MODEL 1
REMARK VINA RESULT:      -8.0      0.000      0.000
REMARK  Name = 
REMARK  5 active torsions:
REMARK  status: ('A' for Active; 'I' for Inactive)
REMARK    1  A    between atoms: O_1  and  C_2
REMARK    2  A    between atoms: C_4  and  C_5
REMARK    3  A    between atoms: C_5  and  N_6
REMARK    4  A    between atoms: C_13  and  O_14
REMARK    5  A    between atoms: O_14  and  C_15
REMARK                            x       y       z     vdW  Elec       q    Type
REMARK                         _______ _______ _______ _____ _____    ______ ____
ROOT
ATOM      1  C   UNL     1       6.047   4.923  18.053  0.00  0.00    +0.000 A 
ATOM      2  C   UNL     1       4.901   5.073  18.841  0.00  0.00    +0.000 A 
ATOM      3  C   UNL     1       3.932   6.033  18.513  0.00  0.00    +0.000 A 
ATOM      4  C   UNL     1       4.121   6.823  17.369  0.00  0.00    +0.000 A 
ATOM      5  C   UNL     1       5.240   6.629  16.554  0.00  0.00    +0.000 A 
ATOM      6  C   UNL     1       6.199   5.660  16.876  0.00  0.00    +0.000 A 
ENDROOT
BRANCH   1   7
ATOM      7  O   UNL     1       7.037   4.087  18.490  0.00  0.00    +0.000 OA
ATOM      8  H   UNL     1       6.689   3.561  19.228  0.00  0.00    +0.000 HD
ENDBRANCH   1   7
BRANCH   3   9
ATOM      9  C   UNL     1       2.722   6.212  19.397  0.00  0.00    +0.000 C 
BRANCH   9  10
ATOM     10  N   UNL     1       2.168   4.945  19.837  0.00  0.00    +0.000 N 
ATOM     11  C   UNL     1       1.448   4.051  19.111  0.00  0.00    +0.000 A 
ATOM     12  N   UNL     1       1.019   3.089  19.895  0.00  0.00    +0.000 NA
ATOM     13  C   UNL     1       1.511   3.448  21.117  0.00  0.00    +0.000 A 
ATOM     14  N   UNL     1       2.214   4.584  21.137  0.00  0.00    +0.000 NA
ENDBRANCH   9  10
ENDBRANCH   3   9
BRANCH   6  15
ATOM     15  O   UNL     1       7.284   5.583  16.032  0.00  0.00    +0.000 OA
BRANCH  15  16
ATOM     16  C   UNL     1       7.104   5.044  14.761  0.00  0.00    +0.000 A 
ATOM     17  C   UNL     1       6.262   3.938  14.696  0.00  0.00    +0.000 A 
ATOM     18  C   UNL     1       5.997   3.379  13.450  0.00  0.00    +0.000 A 
ATOM     19  C   UNL     1       6.577   3.950  12.324  0.00  0.00    +0.000 A 
ATOM     20  C   UNL     1       7.429   5.028  12.499  0.00  0.00    +0.000 A 
ATOM     21  F   UNL     1       7.963   5.597  11.408  0.00  0.00    +0.000 F 
ATOM     22  N   UNL     1       7.743   5.564  13.693  0.00  0.00    +0.000 NA
ENDBRANCH  15  16
ENDBRANCH   6  15
TORSDOF 5
ENDMDL
MODEL 2
REMARK VINA RESULT:      -7.9      0.901      1.063
REMARK  Name = 
REMARK  5 active torsions:
REMARK  status: ('A' for Active; 'I' for Inactive)
REMARK    1  A    between atoms: O_1  and  C_2
REMARK    2  A    between atoms: C_4  and  C_5
REMARK    3  A    between atoms: C_5  and  N_6
REMARK    4  A    between atoms: C_13  and  O_14
REMARK    5  A    between atoms: O_14  and  C_15
REMARK                            x       y       z     vdW  Elec       q    Type
REMARK                         _______ _______ _______ _____ _____    ______ ____
ROOT
ATOM      1  C   UNL     1       6.716   4.802  17.856  0.00  0.00    +0.000 A 
ATOM      2  C   UNL     1       5.722   4.688  18.834  0.00  0.00    +0.000 A 
ATOM      3  C   UNL     1       4.505   5.373  18.694  0.00  0.00    +0.000 A 
ATOM      4  C   UNL     1       4.294   6.153  17.548  0.00  0.00    +0.000 A 
ATOM      5  C   UNL     1       5.269   6.217  16.548  0.00  0.00    +0.000 A 
ATOM      6  C   UNL     1       6.477   5.521  16.683  0.00  0.00    +0.000 A 
ENDROOT
BRANCH   1   7
ATOM      7  O   UNL     1       7.941   4.246  18.100  0.00  0.00    +0.000 OA
ATOM      8  H   UNL     1       8.245   3.810  17.288  0.00  0.00    +0.000 HD
ENDBRANCH   1   7
BRANCH   3   9
ATOM      9  C   UNL     1       3.460   5.274  19.778  0.00  0.00    +0.000 C 
BRANCH   9  10
ATOM     10  N   UNL     1       2.605   4.112  19.617  0.00  0.00    +0.000 N 
ATOM     11  C   UNL     1       2.918   2.809  19.834  0.00  0.00    +0.000 A 
ATOM     12  N   UNL     1       1.918   2.045  19.457  0.00  0.00    +0.000 NA
ATOM     13  C   UNL     1       0.999   2.948  19.005  0.00  0.00    +0.000 A 
ATOM     14  N   UNL     1       1.376   4.228  19.072  0.00  0.00    +0.000 NA
ENDBRANCH   9  10
ENDBRANCH   3   9
BRANCH   6  15
ATOM     15  O   UNL     1       7.385   5.689  15.661  0.00  0.00    +0.000 OA
BRANCH  15  16
ATOM     16  C   UNL     1       7.140   5.067  14.441  0.00  0.00    +0.000 A 
ATOM     17  C   UNL     1       6.337   3.932  14.501  0.00  0.00    +0.000 A 
ATOM     18  C   UNL     1       6.010   3.288  13.311  0.00  0.00    +0.000 A 
ATOM     19  C   UNL     1       6.490   3.807  12.116  0.00  0.00    +0.000 A 
ATOM     20  C   UNL     1       7.311   4.922  12.166  0.00  0.00    +0.000 A 
ATOM     21  F   UNL     1       7.749   5.439  11.009  0.00  0.00    +0.000 F 
ATOM     22  N   UNL     1       7.685   5.541  13.302  0.00  0.00    +0.000 NA
ENDBRANCH  15  16
ENDBRANCH   6  15
TORSDOF 5
ENDMDL
MODEL 3
REMARK VINA RESULT:      -7.8      1.193      1.820
REMARK  Name = 
REMARK  5 active torsions:
REMARK  status: ('A' for Active; 'I' for Inactive)
REMARK    1  A    between atoms: O_1  and  C_2
REMARK    2  A    between atoms: C_4  and  C_5
REMARK    3  A    between atoms: C_5  and  N_6
REMARK    4  A    between atoms: C_13  and  O_14
REMARK    5  A    between atoms: O_14  and  C_15
REMARK                            x       y       z     vdW  Elec       q    Type
REMARK                         _______ _______ _______ _____ _____    ______ ____
ROOT
ATOM      1  C   UNL     1       5.123   6.002  16.902  0.00  0.00    +0.000 A 
ATOM      2  C   UNL     1       3.861   6.067  17.502  0.00  0.00    +0.000 A 
ATOM      3  C   UNL     1       3.142   4.893  17.775  0.00  0.00    +0.000 A 
ATOM      4  C   UNL     1       3.721   3.655  17.459  0.00  0.00    +0.000 A 
ATOM      5  C   UNL     1       5.006   3.595  16.913  0.00  0.00    +0.000 A 
ATOM      6  C   UNL     1       5.727   4.767  16.654  0.00  0.00    +0.000 A 
ENDROOT
BRANCH   1   7
ATOM      7  O   UNL     1       5.723   7.167  16.513  0.00  0.00    +0.000 OA
ATOM      8  H   UNL     1       6.662   6.985  16.344  0.00  0.00    +0.000 HD
ENDBRANCH   1   7
BRANCH   3   9
ATOM      9  C   UNL     1       1.764   4.982  18.383  0.00  0.00    +0.000 C 
BRANCH   9  10
ATOM     10  N   UNL     1       1.681   4.304  19.663  0.00  0.00    +0.000 N 
ATOM     11  C   UNL     1       2.351   4.595  20.808  0.00  0.00    +0.000 A 
ATOM     12  N   UNL     1       2.099   3.677  21.713  0.00  0.00    +0.000 NA
ATOM     13  C   UNL     1       1.254   2.827  21.059  0.00  0.00    +0.000 A 
ATOM     14  N   UNL     1       0.974   3.161  19.797  0.00  0.00    +0.000 NA
ENDBRANCH   9  10
ENDBRANCH   3   9
BRANCH   6  15
ATOM     15  O   UNL     1       6.964   4.597  16.073  0.00  0.00    +0.000 OA
BRANCH  15  16
ATOM     16  C   UNL     1       7.058   4.608  14.685  0.00  0.00    +0.000 A 
ATOM     17  C   UNL     1       6.266   3.672  14.027  0.00  0.00    +0.000 A 
ATOM     18  C   UNL     1       6.272   3.661  12.635  0.00  0.00    +0.000 A 
ATOM     19  C   UNL     1       7.060   4.586  11.962  0.00  0.00    +0.000 A 
ATOM     20  C   UNL     1       7.839   5.453  12.710  0.00  0.00    +0.000 A 
ATOM     21  F   UNL     1       8.575   6.365  12.059  0.00  0.00    +0.000 F 
ATOM     22  N   UNL     1       7.893   5.460  14.055  0.00  0.00    +0.000 NA
ENDBRANCH  15  16
ENDBRANCH   6  15
TORSDOF 5
ENDMDL
MODEL 4
REMARK VINA RESULT:      -7.6      5.405      7.480
REMARK  Name = 
REMARK  5 active torsions:
REMARK  status: ('A' for Active; 'I' for Inactive)
REMARK    1  A    between atoms: O_1  and  C_2
REMARK    2  A    between atoms: C_4  and  C_5
REMARK    3  A    between atoms: C_5  and  N_6
REMARK    4  A    between atoms: C_13  and  O_14
REMARK    5  A    between atoms: O_14  and  C_15
REMARK                            x       y       z     vdW  Elec       q    Type
REMARK                         _______ _______ _______ _____ _____    ______ ____
ROOT
ATOM      1  C   UNL     1       1.568   8.205  20.365  0.00  0.00    +0.000 A 
ATOM      2  C   UNL     1       0.877   9.393  20.100  0.00  0.00    +0.000 A 
ATOM      3  C   UNL     1       0.946   9.987  18.832  0.00  0.00    +0.000 A 
ATOM      4  C   UNL     1       1.697   9.359  17.828  0.00  0.00    +0.000 A 
ATOM      5  C   UNL     1       2.337   8.142  18.082  0.00  0.00    +0.000 A 
ATOM      6  C   UNL     1       2.257   7.544  19.345  0.00  0.00    +0.000 A 
ENDROOT
BRANCH   1   7
ATOM      7  O   UNL     1       1.602   7.740  21.650  0.00  0.00    +0.000 OA
ATOM      8  H   UNL     1       1.771   8.491  22.242  0.00  0.00    +0.000 HD
ENDBRANCH   1   7
BRANCH   3   9
ATOM      9  C   UNL     1       0.230  11.291  18.574  0.00  0.00    +0.000 C 
BRANCH   9  10
ATOM     10  N   UNL     1      -1.171  11.097  18.249  0.00  0.00    +0.000 N 
ATOM     11  C   UNL     1      -2.242  11.779  18.730  0.00  0.00    +0.000 A 
ATOM     12  N   UNL     1      -3.351  11.227  18.291  0.00  0.00    +0.000 NA
ATOM     13  C   UNL     1      -2.894  10.188  17.531  0.00  0.00    +0.000 A 
ATOM     14  N   UNL     1      -1.566  10.059  17.481  0.00  0.00    +0.000 NA
ENDBRANCH   9  10
ENDBRANCH   3   9
BRANCH   6  15
ATOM     15  O   UNL     1       2.961   6.371  19.501  0.00  0.00    +0.000 OA
BRANCH  15  16
ATOM     16  C   UNL     1       2.260   5.169  19.533  0.00  0.00    +0.000 A 
ATOM     17  C   UNL     1       1.987   4.605  18.291  0.00  0.00    +0.000 A 
ATOM     18  C   UNL     1       1.333   3.378  18.250  0.00  0.00    +0.000 A 
ATOM     19  C   UNL     1       0.987   2.764  19.448  0.00  0.00    +0.000 A 
ATOM     20  C   UNL     1       1.273   3.424  20.631  0.00  0.00    +0.000 A 
ATOM     21  F   UNL     1       0.966   2.816  21.786  0.00  0.00    +0.000 F 
ATOM     22  N   UNL     1       1.862   4.632  20.705  0.00  0.00    +0.000 NA
ENDBRANCH  15  16
ENDBRANCH   6  15
TORSDOF 5
ENDMDL
MODEL 5
REMARK VINA RESULT:      -7.5      0.912      1.752
REMARK  Name = 
REMARK  5 active torsions:
REMARK  status: ('A' for Active; 'I' for Inactive)
REMARK    1  A    between atoms: O_1  and  C_2
REMARK    2  A    between atoms: C_4  and  C_5
REMARK    3  A    between atoms: C_5  and  N_6
REMARK    4  A    between atoms: C_13  and  O_14
REMARK    5  A    between atoms: O_14  and  C_15
REMARK                            x       y       z     vdW  Elec       q    Type
REMARK                         _______ _______ _______ _____ _____    ______ ____
ROOT
ATOM      1  C   UNL     1       5.221   6.364  16.571  0.00  0.00    +0.000 A 
ATOM      2  C   UNL     1       4.199   6.392  17.526  0.00  0.00    +0.000 A 
ATOM      3  C   UNL     1       4.273   5.584  18.670  0.00  0.00    +0.000 A 
ATOM      4  C   UNL     1       5.399   4.767  18.852  0.00  0.00    +0.000 A 
ATOM      5  C   UNL     1       6.443   4.787  17.923  0.00  0.00    +0.000 A 
ATOM      6  C   UNL     1       6.374   5.604  16.788  0.00  0.00    +0.000 A 
ENDROOT
BRANCH   1   7
ATOM      7  O   UNL     1       5.042   7.046  15.400  0.00  0.00    +0.000 OA
ATOM      8  H   UNL     1       4.576   6.466  14.777  0.00  0.00    +0.000 HD
ENDBRANCH   1   7
BRANCH   3   9
ATOM      9  C   UNL     1       3.143   5.593  19.670  0.00  0.00    +0.000 C 
BRANCH   9  10
ATOM     10  N   UNL     1       2.373   4.364  19.645  0.00  0.00    +0.000 N 
ATOM     11  C   UNL     1       2.452   3.311  20.499  0.00  0.00    +0.000 A 
ATOM     12  N   UNL     1       1.682   2.336  20.073  0.00  0.00    +0.000 NA
ATOM     13  C   UNL     1       1.143   2.852  18.929  0.00  0.00    +0.000 A 
ATOM     14  N   UNL     1       1.542   4.087  18.617  0.00  0.00    +0.000 NA
ENDBRANCH   9  10
ENDBRANCH   3   9
BRANCH   6  15
ATOM     15  O   UNL     1       7.435   5.513  15.915  0.00  0.00    +0.000 OA
BRANCH  15  16
ATOM     16  C   UNL     1       7.209   5.006  14.639  0.00  0.00    +0.000 A 
ATOM     17  C   UNL     1       6.375   3.894  14.579  0.00  0.00    +0.000 A 
ATOM     18  C   UNL     1       6.065   3.365  13.330  0.00  0.00    +0.000 A 
ATOM     19  C   UNL     1       6.593   3.972  12.197  0.00  0.00    +0.000 A 
ATOM     20  C   UNL     1       7.441   5.054  12.366  0.00  0.00    +0.000 A 
ATOM     21  F   UNL     1       7.924   5.657  11.270  0.00  0.00    +0.000 F 
ATOM     22  N   UNL     1       7.799   5.562  13.560  0.00  0.00    +0.000 NA
ENDBRANCH  15  16
ENDBRANCH   6  15
TORSDOF 5
ENDMDL
MODEL 6
REMARK VINA RESULT:      -7.5      2.948      3.914
REMARK  Name = 
REMARK  5 active torsions:
REMARK  status: ('A' for Active; 'I' for Inactive)
REMARK    1  A    between atoms: O_1  and  C_2
REMARK    2  A    between atoms: C_4  and  C_5
REMARK    3  A    between atoms: C_5  and  N_6
REMARK    4  A    between atoms: C_13  and  O_14
REMARK    5  A    between atoms: O_14  and  C_15
REMARK                            x       y       z     vdW  Elec       q    Type
REMARK                         _______ _______ _______ _____ _____    ______ ____
ROOT
ATOM      1  C   UNL     1       4.867   4.019  16.442  0.00  0.00    +0.000 A 
ATOM      2  C   UNL     1       3.825   3.242  16.958  0.00  0.00    +0.000 A 
ATOM      3  C   UNL     1       2.795   3.837  17.701  0.00  0.00    +0.000 A 
ATOM      4  C   UNL     1       2.815   5.226  17.896  0.00  0.00    +0.000 A 
ATOM      5  C   UNL     1       3.829   6.004  17.329  0.00  0.00    +0.000 A 
ATOM      6  C   UNL     1       4.849   5.409  16.577  0.00  0.00    +0.000 A 
ENDROOT
BRANCH   1   7
ATOM      7  O   UNL     1       5.929   3.385  15.858  0.00  0.00    +0.000 OA
ATOM      8  H   UNL     1       6.037   2.518  16.280  0.00  0.00    +0.000 HD
ENDBRANCH   1   7
BRANCH   3   9
ATOM      9  C   UNL     1       1.700   2.980  18.287  0.00  0.00    +0.000 C 
BRANCH   9  10
ATOM     10  N   UNL     1       1.847   2.798  19.719  0.00  0.00    +0.000 N 
ATOM     11  C   UNL     1       0.953   3.100  20.696  0.00  0.00    +0.000 A 
ATOM     12  N   UNL     1       1.502   2.906  21.873  0.00  0.00    +0.000 NA
ATOM     13  C   UNL     1       2.760   2.478  21.556  0.00  0.00    +0.000 A 
ATOM     14  N   UNL     1       3.025   2.405  20.249  0.00  0.00    +0.000 NA
ENDBRANCH   9  10
ENDBRANCH   3   9
BRANCH   6  15
ATOM     15  O   UNL     1       5.821   6.261  16.102  0.00  0.00    +0.000 OA
BRANCH  15  16
ATOM     16  C   UNL     1       6.694   6.851  17.012  0.00  0.00    +0.000 A 
ATOM     17  C   UNL     1       7.227   5.994  17.969  0.00  0.00    +0.000 A 
ATOM     18  C   UNL     1       8.146   6.506  18.879  0.00  0.00    +0.000 A 
ATOM     19  C   UNL     1       8.498   7.847  18.791  0.00  0.00    +0.000 A 
ATOM     20  C   UNL     1       7.884   8.626  17.824  0.00  0.00    +0.000 A 
ATOM     21  F   UNL     1       8.248   9.912  17.721  0.00  0.00    +0.000 F 
ATOM     22  N   UNL     1       6.957   8.173  16.959  0.00  0.00    +0.000 NA
ENDBRANCH  15  16
ENDBRANCH   6  15
TORSDOF 5
ENDMDL
MODEL 7
REMARK VINA RESULT:      -7.4      3.159      7.089
REMARK  Name = 
REMARK  5 active torsions:
REMARK  status: ('A' for Active; 'I' for Inactive)
REMARK    1  A    between atoms: O_1  and  C_2
REMARK    2  A    between atoms: C_4  and  C_5
REMARK    3  A    between atoms: C_5  and  N_6
REMARK    4  A    between atoms: C_13  and  O_14
REMARK    5  A    between atoms: O_14  and  C_15
REMARK                            x       y       z     vdW  Elec       q    Type
REMARK                         _______ _______ _______ _____ _____    ______ ____
ROOT
ATOM      1  C   UNL     1       5.302   4.705  18.637  0.00  0.00    +0.000 A 
ATOM      2  C   UNL     1       6.349   4.643  17.712  0.00  0.00    +0.000 A 
ATOM      3  C   UNL     1       6.390   5.527  16.624  0.00  0.00    +0.000 A 
ATOM      4  C   UNL     1       5.379   6.490  16.494  0.00  0.00    +0.000 A 
ATOM      5  C   UNL     1       4.367   6.585  17.454  0.00  0.00    +0.000 A 
ATOM      6  C   UNL     1       4.335   5.709  18.547  0.00  0.00    +0.000 A 
ENDROOT
BRANCH   1   7
ATOM      7  O   UNL     1       5.214   3.732  19.593  0.00  0.00    +0.000 OA
ATOM      8  H   UNL     1       5.039   4.158  20.448  0.00  0.00    +0.000 HD
ENDBRANCH   1   7
BRANCH   3   9
ATOM      9  C   UNL     1       7.504   5.419  15.611  0.00  0.00    +0.000 C 
BRANCH   9  10
ATOM     10  N   UNL     1       7.052   4.858  14.351  0.00  0.00    +0.000 N 
ATOM     11  C   UNL     1       6.163   3.849  14.157  0.00  0.00    +0.000 A 
ATOM     12  N   UNL     1       6.111   3.545  12.880  0.00  0.00    +0.000 NA
ATOM     13  C   UNL     1       7.006   4.413  12.324  0.00  0.00    +0.000 A 
ATOM     14  N   UNL     1       7.617   5.232  13.184  0.00  0.00    +0.000 NA
ENDBRANCH   9  10
ENDBRANCH   3   9
BRANCH   6  15
ATOM     15  O   UNL     1       3.271   5.860  19.407  0.00  0.00    +0.000 OA
BRANCH  15  16
ATOM     16  C   UNL     1       2.400   4.789  19.587  0.00  0.00    +0.000 A 
ATOM     17  C   UNL     1       1.778   4.327  18.431  0.00  0.00    +0.000 A 
ATOM     18  C   UNL     1       0.933   3.226  18.529  0.00  0.00    +0.000 A 
ATOM     19  C   UNL     1       0.750   2.631  19.771  0.00  0.00    +0.000 A 
ATOM     20  C   UNL     1       1.388   3.188  20.866  0.00  0.00    +0.000 A 
ATOM     21  F   UNL     1       1.236   2.594  22.058  0.00  0.00    +0.000 F 
ATOM     22  N   UNL     1       2.175   4.280  20.815  0.00  0.00    +0.000 NA
ENDBRANCH  15  16
ENDBRANCH   6  15
TORSDOF 5
ENDMDL
MODEL 8
REMARK VINA RESULT:      -7.4      1.286      1.566
REMARK  Name = 
REMARK  5 active torsions:
REMARK  status: ('A' for Active; 'I' for Inactive)
REMARK    1  A    between atoms: O_1  and  C_2
REMARK    2  A    between atoms: C_4  and  C_5
REMARK    3  A    between atoms: C_5  and  N_6
REMARK    4  A    between atoms: C_13  and  O_14
REMARK    5  A    between atoms: O_14  and  C_15
REMARK                            x       y       z     vdW  Elec       q    Type
REMARK                         _______ _______ _______ _____ _____    ______ ____
ROOT
ATOM      1  C   UNL     1       6.468   4.776  17.683  0.00  0.00    +0.000 A 
ATOM      2  C   UNL     1       5.382   4.799  18.564  0.00  0.00    +0.000 A 
ATOM      3  C   UNL     1       4.274   5.621  18.306  0.00  0.00    +0.000 A 
ATOM      4  C   UNL     1       4.264   6.399  17.139  0.00  0.00    +0.000 A 
ATOM      5  C   UNL     1       5.327   6.327  16.234  0.00  0.00    +0.000 A 
ATOM      6  C   UNL     1       6.425   5.496  16.486  0.00  0.00    +0.000 A 
ENDROOT
BRANCH   1   7
ATOM      7  O   UNL     1       7.590   4.084  18.044  0.00  0.00    +0.000 OA
ATOM      8  H   UNL     1       7.472   3.764  18.953  0.00  0.00    +0.000 HD
ENDBRANCH   1   7
BRANCH   3   9
ATOM      9  C   UNL     1       3.130   5.666  19.289  0.00  0.00    +0.000 C 
BRANCH   9  10
ATOM     10  N   UNL     1       2.357   4.439  19.294  0.00  0.00    +0.000 N 
ATOM     11  C   UNL     1       1.636   3.900  18.276  0.00  0.00    +0.000 A 
ATOM     12  N   UNL     1       0.977   2.850  18.708  0.00  0.00    +0.000 NA
ATOM     13  C   UNL     1       1.333   2.787  20.025  0.00  0.00    +0.000 A 
ATOM     14  N   UNL     1       2.168   3.744  20.436  0.00  0.00    +0.000 NA
ENDBRANCH   9  10
ENDBRANCH   3   9
BRANCH   6  15
ATOM     15  O   UNL     1       7.436   5.536  15.552  0.00  0.00    +0.000 OA
BRANCH  15  16
ATOM     16  C   UNL     1       7.194   5.021  14.282  0.00  0.00    +0.000 A 
ATOM     17  C   UNL     1       7.927   5.603  13.253  0.00  0.00    +0.000 A 
ATOM     18  C   UNL     1       7.772   5.103  11.964  0.00  0.00    +0.000 A 
ATOM     19  C   UNL     1       6.900   4.041  11.759  0.00  0.00    +0.000 A 
ATOM     20  C   UNL     1       6.190   3.555  12.845  0.00  0.00    +0.000 A 
ATOM     21  F   UNL     1       5.372   2.510  12.650  0.00  0.00    +0.000 F 
ATOM     22  N   UNL     1       6.281   4.046  14.095  0.00  0.00    +0.000 NA
ENDBRANCH  15  16
ENDBRANCH   6  15
TORSDOF 5
ENDMDL
MODEL 9
REMARK VINA RESULT:      -7.3      3.206      6.998
REMARK  Name = 
REMARK  5 active torsions:
REMARK  status: ('A' for Active; 'I' for Inactive)
REMARK    1  A    between atoms: O_1  and  C_2
REMARK    2  A    between atoms: C_4  and  C_5
REMARK    3  A    between atoms: C_5  and  N_6
REMARK    4  A    between atoms: C_13  and  O_14
REMARK    5  A    between atoms: O_14  and  C_15
REMARK                            x       y       z     vdW  Elec       q    Type
REMARK                         _______ _______ _______ _____ _____    ______ ____
ROOT
ATOM      1  C   UNL     1       5.624   4.522  18.136  0.00  0.00    +0.000 A 
ATOM      2  C   UNL     1       6.451   4.412  17.013  0.00  0.00    +0.000 A 
ATOM      3  C   UNL     1       6.285   5.278  15.921  0.00  0.00    +0.000 A 
ATOM      4  C   UNL     1       5.295   6.270  15.986  0.00  0.00    +0.000 A 
ATOM      5  C   UNL     1       4.511   6.410  17.135  0.00  0.00    +0.000 A 
ATOM      6  C   UNL     1       4.687   5.553  18.229  0.00  0.00    +0.000 A 
ENDROOT
BRANCH   1   7
ATOM      7  O   UNL     1       5.714   3.566  19.110  0.00  0.00    +0.000 OA
ATOM      8  H   UNL     1       6.602   3.608  19.498  0.00  0.00    +0.000 HD
ENDBRANCH   1   7
BRANCH   3   9
ATOM      9  C   UNL     1       7.157   5.120  14.699  0.00  0.00    +0.000 C 
BRANCH   9  10
ATOM     10  N   UNL     1       6.529   4.307  13.675  0.00  0.00    +0.000 N 
ATOM     11  C   UNL     1       7.065   3.881  12.502  0.00  0.00    +0.000 A 
ATOM     12  N   UNL     1       6.143   3.274  11.789  0.00  0.00    +0.000 NA
ATOM     13  C   UNL     1       5.037   3.358  12.586  0.00  0.00    +0.000 A 
ATOM     14  N   UNL     1       5.218   3.991  13.748  0.00  0.00    +0.000 NA
ENDBRANCH   9  10
ENDBRANCH   3   9
BRANCH   6  15
ATOM     15  O   UNL     1       3.833   5.750  19.290  0.00  0.00    +0.000 OA
BRANCH  15  16
ATOM     16  C   UNL     1       2.808   4.832  19.502  0.00  0.00    +0.000 A 
ATOM     17  C   UNL     1       2.101   4.455  18.365  0.00  0.00    +0.000 A 
ATOM     18  C   UNL     1       1.096   3.502  18.496  0.00  0.00    +0.000 A 
ATOM     19  C   UNL     1       0.845   2.962  19.751  0.00  0.00    +0.000 A 
ATOM     20  C   UNL     1       1.581   3.430  20.827  0.00  0.00    +0.000 A 
ATOM     21  F   UNL     1       1.359   2.885  22.031  0.00  0.00    +0.000 F 
ATOM     22  N   UNL     1       2.528   4.383  20.744  0.00  0.00    +0.000 NA
ENDBRANCH  15  16
ENDBRANCH   6  15
TORSDOF 5
ENDMDL
