MODEL 1
REMARK VINA RESULT:      -8.3      0.000      0.000
REMARK  Name = 
REMARK  3 active torsions:
REMARK  status: ('A' for Active; 'I' for Inactive)
REMARK    1  A    between atoms: C_1  and  N_2
REMARK    2  A    between atoms: C_5  and  C_6
REMARK    3  A    between atoms: C_11  and  N_12
REMARK                            x       y       z     vdW  Elec       q    Type
REMARK                         _______ _______ _______ _____ _____    ______ ____
ROOT
ATOM      1  C   UNL     1       7.682   6.185  18.074  0.00  0.00    +0.000 C 
ATOM      2  N   UNL     1       6.516   5.397  17.697  0.00  0.00    +0.000 N 
ATOM      3  C   UNL     1       5.581   5.111  18.678  0.00  0.00    +0.000 A 
ATOM      4  O   UNL     1       5.696   5.480  19.848  0.00  0.00    +0.000 OA
ATOM      5  C   UNL     1       4.363   4.333  18.288  0.00  0.00    +0.000 A 
ATOM      6  C   UNL     1       4.177   3.974  17.005  0.00  0.00    +0.000 A 
ATOM      7 CL   UNL     1       2.703   3.183  16.506  0.00  0.00    +0.000 Cl
ATOM      8  C   UNL     1       5.205   4.246  15.980  0.00  0.00    +0.000 A 
ATOM      9  C   UNL     1       5.077   3.812  14.644  0.00  0.00    +0.000 A 
ATOM     10  C   UNL     1       6.049   4.104  13.688  0.00  0.00    +0.000 A 
ATOM     11  C   UNL     1       7.185   4.811  14.055  0.00  0.00    +0.000 A 
ATOM     12  C   UNL     1       7.347   5.221  15.379  0.00  0.00    +0.000 A 
ATOM     13  C   UNL     1       6.362   4.956  16.348  0.00  0.00    +0.000 A 
ENDROOT
BRANCH   5  14
ATOM     14  C   UNL     1       3.376   4.032  19.353  0.00  0.00    +0.000 A 
ATOM     15  C   UNL     1       2.440   5.027  19.683  0.00  0.00    +0.000 A 
ATOM     16  C   UNL     1       1.506   4.825  20.704  0.00  0.00    +0.000 A 
ATOM     17  C   UNL     1       1.473   3.617  21.396  0.00  0.00    +0.000 A 
ATOM     18  C   UNL     1       2.388   2.611  21.090  0.00  0.00    +0.000 A 
ATOM     19  C   UNL     1       3.343   2.833  20.086  0.00  0.00    +0.000 A 
BRANCH  19  20
ATOM     20  N   UNL     1       4.321   1.780  19.855  0.00  0.00    +0.000 N 
ATOM     21  O   UNL     1       4.110   1.001  18.915  0.00  0.00    +0.000 OA
ATOM     22  O   UNL     1       5.272   1.711  20.641  0.00  0.00    +0.000 OA
ENDBRANCH  19  20
ENDBRANCH   5  14
TORSDOF 2
ENDMDL
MODEL 2
REMARK VINA RESULT:      -7.8      1.708      2.292
REMARK  Name = 
REMARK  3 active torsions:
REMARK  status: ('A' for Active; 'I' for Inactive)
REMARK    1  A    between atoms: C_1  and  N_2
REMARK    2  A    between atoms: C_5  and  C_6
REMARK    3  A    between atoms: C_11  and  N_12
REMARK                            x       y       z     vdW  Elec       q    Type
REMARK                         _______ _______ _______ _____ _____    ______ ____
ROOT
ATOM      1  C   UNL     1       7.762   6.235  18.000  0.00  0.00    +0.000 C 
ATOM      2  N   UNL     1       6.610   5.399  17.687  0.00  0.00    +0.000 N 
ATOM      3  C   UNL     1       5.724   5.105  18.711  0.00  0.00    +0.000 A 
ATOM      4  O   UNL     1       5.872   5.506  19.866  0.00  0.00    +0.000 OA
ATOM      5  C   UNL     1       4.521   4.277  18.387  0.00  0.00    +0.000 A 
ATOM      6  C   UNL     1       4.298   3.880  17.121  0.00  0.00    +0.000 A 
ATOM      7 CL   UNL     1       2.835   3.028  16.699  0.00  0.00    +0.000 Cl
ATOM      8  C   UNL     1       5.275   4.162  16.050  0.00  0.00    +0.000 A 
ATOM      9  C   UNL     1       5.111   3.691  14.731  0.00  0.00    +0.000 A 
ATOM     10  C   UNL     1       6.035   3.993  13.731  0.00  0.00    +0.000 A 
ATOM     11  C   UNL     1       7.158   4.747  14.036  0.00  0.00    +0.000 A 
ATOM     12  C   UNL     1       7.357   5.195  15.343  0.00  0.00    +0.000 A 
ATOM     13  C   UNL     1       6.420   4.920  16.356  0.00  0.00    +0.000 A 
ENDROOT
BRANCH   5  14
ATOM     14  C   UNL     1       3.587   3.968  19.497  0.00  0.00    +0.000 A 
ATOM     15  C   UNL     1       3.741   2.741  20.166  0.00  0.00    +0.000 A 
ATOM     16  C   UNL     1       2.871   2.369  21.194  0.00  0.00    +0.000 A 
ATOM     17  C   UNL     1       1.847   3.225  21.592  0.00  0.00    +0.000 A 
ATOM     18  C   UNL     1       1.669   4.448  20.948  0.00  0.00    +0.000 A 
ATOM     19  C   UNL     1       2.527   4.801  19.895  0.00  0.00    +0.000 A 
BRANCH  19  20
ATOM     20  N   UNL     1       2.254   6.056  19.209  0.00  0.00    +0.000 N 
ATOM     21  O   UNL     1       1.786   5.992  18.064  0.00  0.00    +0.000 OA
ATOM     22  O   UNL     1       2.551   7.098  19.803  0.00  0.00    +0.000 OA
ENDBRANCH  19  20
ENDBRANCH   5  14
TORSDOF 2
ENDMDL
MODEL 3
REMARK VINA RESULT:      -7.7      2.057      5.814
REMARK  Name = 
REMARK  3 active torsions:
REMARK  status: ('A' for Active; 'I' for Inactive)
REMARK    1  A    between atoms: C_1  and  N_2
REMARK    2  A    between atoms: C_5  and  C_6
REMARK    3  A    between atoms: C_11  and  N_12
REMARK                            x       y       z     vdW  Elec       q    Type
REMARK                         _______ _______ _______ _____ _____    ______ ____
ROOT
ATOM      1  C   UNL     1       2.419   7.365  19.201  0.00  0.00    +0.000 C 
ATOM      2  N   UNL     1       2.890   6.068  18.737  0.00  0.00    +0.000 N 
ATOM      3  C   UNL     1       3.796   6.042  17.689  0.00  0.00    +0.000 A 
ATOM      4  O   UNL     1       4.209   7.059  17.131  0.00  0.00    +0.000 OA
ATOM      5  C   UNL     1       4.311   4.714  17.233  0.00  0.00    +0.000 A 
ATOM      6  C   UNL     1       3.929   3.590  17.868  0.00  0.00    +0.000 A 
ATOM      7 CL   UNL     1       4.619   2.046  17.437  0.00  0.00    +0.000 Cl
ATOM      8  C   UNL     1       2.928   3.630  18.952  0.00  0.00    +0.000 A 
ATOM      9  C   UNL     1       2.446   2.463  19.582  0.00  0.00    +0.000 A 
ATOM     10  C   UNL     1       1.519   2.528  20.622  0.00  0.00    +0.000 A 
ATOM     11  C   UNL     1       1.031   3.759  21.032  0.00  0.00    +0.000 A 
ATOM     12  C   UNL     1       1.468   4.923  20.400  0.00  0.00    +0.000 A 
ATOM     13  C   UNL     1       2.423   4.875  19.367  0.00  0.00    +0.000 A 
ENDROOT
BRANCH   5  14
ATOM     14  C   UNL     1       5.277   4.706  16.108  0.00  0.00    +0.000 A 
ATOM     15  C   UNL     1       4.802   4.341  14.836  0.00  0.00    +0.000 A 
ATOM     16  C   UNL     1       5.666   4.274  13.738  0.00  0.00    +0.000 A 
ATOM     17  C   UNL     1       7.013   4.596  13.884  0.00  0.00    +0.000 A 
ATOM     18  C   UNL     1       7.512   4.962  15.133  0.00  0.00    +0.000 A 
ATOM     19  C   UNL     1       6.646   4.996  16.237  0.00  0.00    +0.000 A 
BRANCH  19  20
ATOM     20  N   UNL     1       7.231   5.315  17.531  0.00  0.00    +0.000 N 
ATOM     21  O   UNL     1       7.377   6.512  17.813  0.00  0.00    +0.000 OA
ATOM     22  O   UNL     1       7.582   4.366  18.240  0.00  0.00    +0.000 OA
ENDBRANCH  19  20
ENDBRANCH   5  14
TORSDOF 2
ENDMDL
MODEL 4
REMARK VINA RESULT:      -7.5      1.844      6.013
REMARK  Name = 
REMARK  3 active torsions:
REMARK  status: ('A' for Active; 'I' for Inactive)
REMARK    1  A    between atoms: C_1  and  N_2
REMARK    2  A    between atoms: C_5  and  C_6
REMARK    3  A    between atoms: C_11  and  N_12
REMARK                            x       y       z     vdW  Elec       q    Type
REMARK                         _______ _______ _______ _____ _____    ______ ____
ROOT
ATOM      1  C   UNL     1       2.702   2.470  19.616  0.00  0.00    +0.000 C 
ATOM      2  N   UNL     1       3.124   3.707  18.972  0.00  0.00    +0.000 N 
ATOM      3  C   UNL     1       3.991   3.616  17.895  0.00  0.00    +0.000 A 
ATOM      4  O   UNL     1       4.425   2.545  17.468  0.00  0.00    +0.000 OA
ATOM      5  C   UNL     1       4.399   4.880  17.207  0.00  0.00    +0.000 A 
ATOM      6  C   UNL     1       3.888   6.059  17.609  0.00  0.00    +0.000 A 
ATOM      7 CL   UNL     1       4.248   7.528  16.738  0.00  0.00    +0.000 Cl
ATOM      8  C   UNL     1       3.003   6.145  18.787  0.00  0.00    +0.000 A 
ATOM      9  C   UNL     1       2.517   7.373  19.283  0.00  0.00    +0.000 A 
ATOM     10  C   UNL     1       1.660   7.426  20.382  0.00  0.00    +0.000 A 
ATOM     11  C   UNL     1       1.296   6.253  21.028  0.00  0.00    +0.000 A 
ATOM     12  C   UNL     1       1.792   5.031  20.575  0.00  0.00    +0.000 A 
ATOM     13  C   UNL     1       2.637   4.960  19.451  0.00  0.00    +0.000 A 
ENDROOT
BRANCH   5  14
ATOM     14  C   UNL     1       5.330   4.763  16.060  0.00  0.00    +0.000 A 
ATOM     15  C   UNL     1       4.803   4.353  14.823  0.00  0.00    +0.000 A 
ATOM     16  C   UNL     1       5.631   4.183  13.709  0.00  0.00    +0.000 A 
ATOM     17  C   UNL     1       6.996   4.446  13.803  0.00  0.00    +0.000 A 
ATOM     18  C   UNL     1       7.547   4.855  15.015  0.00  0.00    +0.000 A 
ATOM     19  C   UNL     1       6.715   4.992  16.138  0.00  0.00    +0.000 A 
BRANCH  19  20
ATOM     20  N   UNL     1       7.352   5.352  17.397  0.00  0.00    +0.000 N 
ATOM     21  O   UNL     1       7.682   4.430  18.154  0.00  0.00    +0.000 OA
ATOM     22  O   UNL     1       7.478   6.557  17.639  0.00  0.00    +0.000 OA
ENDBRANCH  19  20
ENDBRANCH   5  14
TORSDOF 2
ENDMDL
MODEL 5
REMARK VINA RESULT:      -7.2      2.356      5.980
REMARK  Name = 
REMARK  3 active torsions:
REMARK  status: ('A' for Active; 'I' for Inactive)
REMARK    1  A    between atoms: C_1  and  N_2
REMARK    2  A    between atoms: C_5  and  C_6
REMARK    3  A    between atoms: C_11  and  N_12
REMARK                            x       y       z     vdW  Elec       q    Type
REMARK                         _______ _______ _______ _____ _____    ______ ____
ROOT
ATOM      1  C   UNL     1       2.158   4.124  21.329  0.00  0.00    +0.000 C 
ATOM      2  N   UNL     1       2.623   5.039  20.295  0.00  0.00    +0.000 N 
ATOM      3  C   UNL     1       3.568   4.576  19.394  0.00  0.00    +0.000 A 
ATOM      4  O   UNL     1       4.037   3.438  19.435  0.00  0.00    +0.000 OA
ATOM      5  C   UNL     1       4.021   5.501  18.309  0.00  0.00    +0.000 A 
ATOM      6  C   UNL     1       3.477   6.727  18.199  0.00  0.00    +0.000 A 
ATOM      7 CL   UNL     1       3.895   7.770  16.863  0.00  0.00    +0.000 Cl
ATOM      8  C   UNL     1       2.505   7.222  19.194  0.00  0.00    +0.000 A 
ATOM      9  C   UNL     1       1.978   8.530  19.154  0.00  0.00    +0.000 A 
ATOM     10  C   UNL     1       1.042   8.966  20.091  0.00  0.00    +0.000 A 
ATOM     11  C   UNL     1       0.635   8.113  21.106  0.00  0.00    +0.000 A 
ATOM     12  C   UNL     1       1.169   6.826  21.184  0.00  0.00    +0.000 A 
ATOM     13  C   UNL     1       2.095   6.364  20.230  0.00  0.00    +0.000 A 
ENDROOT
BRANCH   5  14
ATOM     14  C   UNL     1       5.036   4.990  17.357  0.00  0.00    +0.000 A 
ATOM     15  C   UNL     1       4.585   4.264  16.240  0.00  0.00    +0.000 A 
ATOM     16  C   UNL     1       5.490   3.719  15.324  0.00  0.00    +0.000 A 
ATOM     17  C   UNL     1       6.860   3.911  15.491  0.00  0.00    +0.000 A 
ATOM     18  C   UNL     1       7.336   4.627  16.587  0.00  0.00    +0.000 A 
ATOM     19  C   UNL     1       6.423   5.143  17.520  0.00  0.00    +0.000 A 
BRANCH  19  20
ATOM     20  N   UNL     1       6.976   5.821  18.685  0.00  0.00    +0.000 N 
ATOM     21  O   UNL     1       7.561   6.896  18.496  0.00  0.00    +0.000 OA
ATOM     22  O   UNL     1       6.858   5.253  19.776  0.00  0.00    +0.000 OA
ENDBRANCH  19  20
ENDBRANCH   5  14
TORSDOF 2
ENDMDL
MODEL 6
REMARK VINA RESULT:      -6.6      2.456      6.030
REMARK  Name = 
REMARK  3 active torsions:
REMARK  status: ('A' for Active; 'I' for Inactive)
REMARK    1  A    between atoms: C_1  and  N_2
REMARK    2  A    between atoms: C_5  and  C_6
REMARK    3  A    between atoms: C_11  and  N_12
REMARK                            x       y       z     vdW  Elec       q    Type
REMARK                         _______ _______ _______ _____ _____    ______ ____
ROOT
ATOM      1  C   UNL     1       2.560   8.592  18.045  0.00  0.00    +0.000 C 
ATOM      2  N   UNL     1       3.061   7.225  18.021  0.00  0.00    +0.000 N 
ATOM      3  C   UNL     1       3.910   6.862  16.988  0.00  0.00    +0.000 A 
ATOM      4  O   UNL     1       4.249   7.635  16.091  0.00  0.00    +0.000 OA
ATOM      5  C   UNL     1       4.457   5.469  16.980  0.00  0.00    +0.000 A 
ATOM      6  C   UNL     1       4.159   4.623  17.983  0.00  0.00    +0.000 A 
ATOM      7 CL   UNL     1       4.890   3.041  18.061  0.00  0.00    +0.000 Cl
ATOM      8  C   UNL     1       3.216   5.010  19.051  0.00  0.00    +0.000 A 
ATOM      9  C   UNL     1       2.819   4.120  20.071  0.00  0.00    +0.000 A 
ATOM     10  C   UNL     1       1.947   4.516  21.085  0.00  0.00    +0.000 A 
ATOM     11  C   UNL     1       1.428   5.803  21.081  0.00  0.00    +0.000 A 
ATOM     12  C   UNL     1       1.781   6.689  20.063  0.00  0.00    +0.000 A 
ATOM     13  C   UNL     1       2.680   6.310  19.049  0.00  0.00    +0.000 A 
ENDROOT
BRANCH   5  14
ATOM     14  C   UNL     1       5.360   5.098  15.864  0.00  0.00    +0.000 A 
ATOM     15  C   UNL     1       4.808   4.406  14.772  0.00  0.00    +0.000 A 
ATOM     16  C   UNL     1       5.609   3.990  13.705  0.00  0.00    +0.000 A 
ATOM     17  C   UNL     1       6.972   4.280  13.695  0.00  0.00    +0.000 A 
ATOM     18  C   UNL     1       7.547   4.966  14.763  0.00  0.00    +0.000 A 
ATOM     19  C   UNL     1       6.743   5.351  15.846  0.00  0.00    +0.000 A 
BRANCH  19  20
ATOM     20  N   UNL     1       7.406   6.001  16.968  0.00  0.00    +0.000 N 
ATOM     21  O   UNL     1       7.730   5.291  17.929  0.00  0.00    +0.000 OA
ATOM     22  O   UNL     1       7.559   7.225  16.900  0.00  0.00    +0.000 OA
ENDBRANCH  19  20
ENDBRANCH   5  14
TORSDOF 2
ENDMDL
MODEL 7
REMARK VINA RESULT:      -6.4      3.576      6.336
REMARK  Name = 
REMARK  3 active torsions:
REMARK  status: ('A' for Active; 'I' for Inactive)
REMARK    1  A    between atoms: C_1  and  N_2
REMARK    2  A    between atoms: C_5  and  C_6
REMARK    3  A    between atoms: C_11  and  N_12
REMARK                            x       y       z     vdW  Elec       q    Type
REMARK                         _______ _______ _______ _____ _____    ______ ____
ROOT
ATOM      1  C   UNL     1       2.080  10.268  17.711  0.00  0.00    +0.000 C 
ATOM      2  N   UNL     1       1.985   9.057  18.514  0.00  0.00    +0.000 N 
ATOM      3  C   UNL     1       2.437   7.871  17.957  0.00  0.00    +0.000 A 
ATOM      4  O   UNL     1       2.901   7.795  16.818  0.00  0.00    +0.000 OA
ATOM      5  C   UNL     1       2.376   6.631  18.791  0.00  0.00    +0.000 A 
ATOM      6  C   UNL     1       1.936   6.695  20.061  0.00  0.00    +0.000 A 
ATOM      7 CL   UNL     1       1.980   5.287  21.091  0.00  0.00    +0.000 Cl
ATOM      8  C   UNL     1       1.415   7.956  20.624  0.00  0.00    +0.000 A 
ATOM      9  C   UNL     1       0.871   8.039  21.924  0.00  0.00    +0.000 A 
ATOM     10  C   UNL     1       0.409   9.249  22.443  0.00  0.00    +0.000 A 
ATOM     11  C   UNL     1       0.452  10.394  21.662  0.00  0.00    +0.000 A 
ATOM     12  C   UNL     1       0.954  10.327  20.363  0.00  0.00    +0.000 A 
ATOM     13  C   UNL     1       1.448   9.120  19.835  0.00  0.00    +0.000 A 
ENDROOT
BRANCH   5  14
ATOM     14  C   UNL     1       2.859   5.371  18.176  0.00  0.00    +0.000 A 
ATOM     15  C   UNL     1       1.900   4.449  17.724  0.00  0.00    +0.000 A 
ATOM     16  C   UNL     1       2.285   3.224  17.171  0.00  0.00    +0.000 A 
ATOM     17  C   UNL     1       3.635   2.908  17.035  0.00  0.00    +0.000 A 
ATOM     18  C   UNL     1       4.608   3.803  17.473  0.00  0.00    +0.000 A 
ATOM     19  C   UNL     1       4.214   5.017  18.058  0.00  0.00    +0.000 A 
BRANCH  19  20
ATOM     20  N   UNL     1       5.268   5.884  18.564  0.00  0.00    +0.000 N 
ATOM     21  O   UNL     1       5.733   6.731  17.790  0.00  0.00    +0.000 OA
ATOM     22  O   UNL     1       5.655   5.684  19.721  0.00  0.00    +0.000 OA
ENDBRANCH  19  20
ENDBRANCH   5  14
TORSDOF 2
ENDMDL
MODEL 8
REMARK VINA RESULT:      -6.3      3.877      6.475
REMARK  Name = 
REMARK  3 active torsions:
REMARK  status: ('A' for Active; 'I' for Inactive)
REMARK    1  A    between atoms: C_1  and  N_2
REMARK    2  A    between atoms: C_5  and  C_6
REMARK    3  A    between atoms: C_11  and  N_12
REMARK                            x       y       z     vdW  Elec       q    Type
REMARK                         _______ _______ _______ _____ _____    ______ ____
ROOT
ATOM      1  C   UNL     1       1.748  10.354  17.729  0.00  0.00    +0.000 C 
ATOM      2  N   UNL     1       1.827   9.134  18.521  0.00  0.00    +0.000 N 
ATOM      3  C   UNL     1       2.562   8.076  18.010  0.00  0.00    +0.000 A 
ATOM      4  O   UNL     1       3.136   8.116  16.921  0.00  0.00    +0.000 OA
ATOM      5  C   UNL     1       2.677   6.833  18.836  0.00  0.00    +0.000 A 
ATOM      6  C   UNL     1       2.116   6.784  20.059  0.00  0.00    +0.000 A 
ATOM      7 CL   UNL     1       2.351   5.396  21.090  0.00  0.00    +0.000 Cl
ATOM      8  C   UNL     1       1.299   7.903  20.569  0.00  0.00    +0.000 A 
ATOM      9  C   UNL     1       0.632   7.850  21.810  0.00  0.00    +0.000 A 
ATOM     10  C   UNL     1      -0.114   8.930  22.282  0.00  0.00    +0.000 A 
ATOM     11  C   UNL     1      -0.233  10.074  21.508  0.00  0.00    +0.000 A 
ATOM     12  C   UNL     1       0.391  10.135  20.262  0.00  0.00    +0.000 A 
ATOM     13  C   UNL     1       1.168   9.063  19.785  0.00  0.00    +0.000 A 
ENDROOT
BRANCH   5  14
ATOM     14  C   UNL     1       3.462   5.710  18.272  0.00  0.00    +0.000 A 
ATOM     15  C   UNL     1       4.850   5.883  18.127  0.00  0.00    +0.000 A 
ATOM     16  C   UNL     1       5.645   4.879  17.566  0.00  0.00    +0.000 A 
ATOM     17  C   UNL     1       5.074   3.674  17.163  0.00  0.00    +0.000 A 
ATOM     18  C   UNL     1       3.701   3.473  17.294  0.00  0.00    +0.000 A 
ATOM     19  C   UNL     1       2.904   4.498  17.829  0.00  0.00    +0.000 A 
BRANCH  19  20
ATOM     20  N   UNL     1       1.468   4.265  17.879  0.00  0.00    +0.000 N 
ATOM     21  O   UNL     1       1.025   3.633  18.848  0.00  0.00    +0.000 OA
ATOM     22  O   UNL     1       0.797   4.677  16.927  0.00  0.00    +0.000 OA
ENDBRANCH  19  20
ENDBRANCH   5  14
TORSDOF 2
ENDMDL
MODEL 9
REMARK VINA RESULT:      -6.0     10.147     12.063
REMARK  Name = 
REMARK  3 active torsions:
REMARK  status: ('A' for Active; 'I' for Inactive)
REMARK    1  A    between atoms: C_1  and  N_2
REMARK    2  A    between atoms: C_5  and  C_6
REMARK    3  A    between atoms: C_11  and  N_12
REMARK                            x       y       z     vdW  Elec       q    Type
REMARK                         _______ _______ _______ _____ _____    ______ ____
ROOT
ATOM      1  C   UNL     1      -5.950  12.315  18.937  0.00  0.00    +0.000 C 
ATOM      2  N   UNL     1      -4.516  12.287  19.194  0.00  0.00    +0.000 N 
ATOM      3  C   UNL     1      -4.029  13.052  20.242  0.00  0.00    +0.000 A 
ATOM      4  O   UNL     1      -4.747  13.757  20.952  0.00  0.00    +0.000 OA
ATOM      5  C   UNL     1      -2.562  12.998  20.533  0.00  0.00    +0.000 A 
ATOM      6  C   UNL     1      -1.764  12.185  19.817  0.00  0.00    +0.000 A 
ATOM      7 CL   UNL     1      -0.076  12.009  20.226  0.00  0.00    +0.000 Cl
ATOM      8  C   UNL     1      -2.290  11.412  18.675  0.00  0.00    +0.000 A 
ATOM      9  C   UNL     1      -1.465  10.615  17.854  0.00  0.00    +0.000 A 
ATOM     10  C   UNL     1      -1.990   9.872  16.796  0.00  0.00    +0.000 A 
ATOM     11  C   UNL     1      -3.347   9.937  16.518  0.00  0.00    +0.000 A 
ATOM     12  C   UNL     1      -4.176  10.745  17.296  0.00  0.00    +0.000 A 
ATOM     13  C   UNL     1      -3.664  11.479  18.383  0.00  0.00    +0.000 A 
ENDROOT
BRANCH   5  14
ATOM     14  C   UNL     1      -2.059  13.827  21.655  0.00  0.00    +0.000 A 
ATOM     15  C   UNL     1      -1.570  15.111  21.357  0.00  0.00    +0.000 A 
ATOM     16  C   UNL     1      -1.043  15.930  22.359  0.00  0.00    +0.000 A 
ATOM     17  C   UNL     1      -1.019  15.494  23.682  0.00  0.00    +0.000 A 
ATOM     18  C   UNL     1      -1.498  14.226  24.008  0.00  0.00    +0.000 A 
ATOM     19  C   UNL     1      -1.995  13.396  22.991  0.00  0.00    +0.000 A 
BRANCH  19  20
ATOM     20  N   UNL     1      -2.415  12.056  23.374  0.00  0.00    +0.000 N 
ATOM     21  O   UNL     1      -3.568  11.920  23.806  0.00  0.00    +0.000 OA
ATOM     22  O   UNL     1      -1.576  11.154  23.280  0.00  0.00    +0.000 OA
ENDBRANCH  19  20
ENDBRANCH   5  14
TORSDOF 2
ENDMDL
