MODEL 1
REMARK VINA RESULT:      -7.9      0.000      0.000
REMARK  Name = 
REMARK  8 active torsions:
REMARK  status: ('A' for Active; 'I' for Inactive)
REMARK    1  A    between atoms: C_1  and  C_2
REMARK    2  A    between atoms: C_2  and  N_3
REMARK    3  A    between atoms: N_3  and  C_4
REMARK    4  A    between atoms: C_4  and  C_5
REMARK    5  A    between atoms: N_8  and  C_9
REMARK    6  A    between atoms: C_16  and  C_17
REMARK    7  A    between atoms: C_17  and  O_19
REMARK    8  A    between atoms: N_21  and  C_22
REMARK                            x       y       z     vdW  Elec       q    Type
REMARK                         _______ _______ _______ _____ _____    ______ ____
ROOT
ATOM      1  C   UNL     1       2.162   7.904  19.197  0.00  0.00    +0.000 A 
ATOM      2  C   UNL     1       2.766   8.630  18.147  0.00  0.00    +0.000 A 
ATOM      3  F   UNL     1       2.500   9.931  17.954  0.00  0.00    +0.000 F 
ATOM      4  C   UNL     1       3.640   8.066  17.227  0.00  0.00    +0.000 A 
ATOM      5  C   UNL     1       3.986   6.721  17.333  0.00  0.00    +0.000 A 
ATOM      6  C   UNL     1       4.953   6.205  16.339  0.00  0.00    +0.000 A 
ATOM      7  O   UNL     1       5.422   6.919  15.454  0.00  0.00    +0.000 OA
ATOM      8  C   UNL     1       5.361   4.793  16.422  0.00  0.00    +0.000 A 
ATOM      9  C   UNL     1       4.793   4.068  17.393  0.00  0.00    +0.000 A 
ATOM     10  N   UNL     1       3.897   4.513  18.355  0.00  0.00    +0.000 N 
ATOM     11  C   UNL     1       3.449   5.892  18.343  0.00  0.00    +0.000 A 
ATOM     12  C   UNL     1       2.525   6.510  19.265  0.00  0.00    +0.000 A 
ATOM     13 CL   UNL     1       1.863   5.578  20.578  0.00  0.00    +0.000 Cl
ENDROOT
BRANCH   1  17
ATOM     14  C   UNL     1      -0.514   9.892  20.920  0.00  0.00    +0.000 C 
ATOM     15  C   UNL     1      -0.264   8.701  21.838  0.00  0.00    +0.000 C 
ATOM     16  C   UNL     1       1.157   8.281  21.511  0.00  0.00    +0.000 C 
ATOM     17  N   UNL     1       1.291   8.545  20.080  0.00  0.00    +0.000 N 
ATOM     18  C   UNL     1       0.280   9.526  19.653  0.00  0.00    +0.000 C 
BRANCH  14  19
ATOM     19  C   UNL     1      -0.107  11.228  21.561  0.00  0.00    +0.000 C 
BRANCH  19  20
ATOM     20  N   UNL     1      -0.645  11.320  22.920  0.00  0.00    +0.000 NA
ATOM     21  H   UNL     1      -1.227  10.510  23.123  0.00  0.00    +0.000 HD
BRANCH  20  23
ATOM     22  C   UNL     1      -2.894  12.120  23.344  0.00  0.00    +0.000 C 
ATOM     23  C   UNL     1      -1.445  12.527  23.114  0.00  0.00    +0.000 C 
ENDBRANCH  20  23
ENDBRANCH  19  20
ENDBRANCH  14  19
ENDBRANCH   1  17
BRANCH  10  24
ATOM     24  C   UNL     1       3.348   3.478  19.272  0.00  0.00    +0.000 C 
ATOM     25  C   UNL     1       3.349   1.984  19.050  0.00  0.00    +0.000 C 
ATOM     26  C   UNL     1       4.305   2.572  20.025  0.00  0.00    +0.000 C 
ENDBRANCH  10  24
BRANCH   8  27
ATOM     27  C   UNL     1       6.338   4.165  15.512  0.00  0.00    +0.000 C 
ATOM     28  O   UNL     1       7.514   4.498  15.466  0.00  0.00    +0.000 OA
BRANCH  27  29
ATOM     29  O   UNL     1       5.833   3.191  14.727  0.00  0.00    +0.000 OA
ATOM     30  H   UNL     1       6.298   3.088  13.860  0.00  0.00    +0.000 HD
ENDBRANCH  27  29
ENDBRANCH   8  27
TORSDOF 7
ENDMDL
MODEL 2
REMARK VINA RESULT:      -7.8      4.331      8.732
REMARK  Name = 
REMARK  8 active torsions:
REMARK  status: ('A' for Active; 'I' for Inactive)
REMARK    1  A    between atoms: C_1  and  C_2
REMARK    2  A    between atoms: C_2  and  N_3
REMARK    3  A    between atoms: N_3  and  C_4
REMARK    4  A    between atoms: C_4  and  C_5
REMARK    5  A    between atoms: N_8  and  C_9
REMARK    6  A    between atoms: C_16  and  C_17
REMARK    7  A    between atoms: C_17  and  O_19
REMARK    8  A    between atoms: N_21  and  C_22
REMARK                            x       y       z     vdW  Elec       q    Type
REMARK                         _______ _______ _______ _____ _____    ______ ____
ROOT
ATOM      1  C   UNL     1       2.079   7.214  19.497  0.00  0.00    +0.000 A 
ATOM      2  C   UNL     1       1.585   6.781  20.747  0.00  0.00    +0.000 A 
ATOM      3  F   UNL     1       1.754   5.517  21.165  0.00  0.00    +0.000 F 
ATOM      4  C   UNL     1       0.872   7.597  21.615  0.00  0.00    +0.000 A 
ATOM      5  C   UNL     1       0.638   8.929  21.281  0.00  0.00    +0.000 A 
ATOM      6  C   UNL     1      -0.094   9.744  22.276  0.00  0.00    +0.000 A 
ATOM      7  O   UNL     1      -0.490   9.271  23.341  0.00  0.00    +0.000 OA
ATOM      8  C   UNL     1      -0.350  11.162  21.973  0.00  0.00    +0.000 A 
ATOM      9  C   UNL     1       0.086  11.602  20.786  0.00  0.00    +0.000 A 
ATOM     10  N   UNL     1       0.790  10.880  19.832  0.00  0.00    +0.000 N 
ATOM     11  C   UNL     1       1.085   9.479  20.058  0.00  0.00    +0.000 A 
ATOM     12  C   UNL     1       1.801   8.591  19.172  0.00  0.00    +0.000 A 
ATOM     13 CL   UNL     1       2.441   9.201  17.673  0.00  0.00    +0.000 Cl
ENDROOT
BRANCH   1  17
ATOM     14  C   UNL     1       4.581   5.031  17.747  0.00  0.00    +0.000 C 
ATOM     15  C   UNL     1       3.261   4.277  17.633  0.00  0.00    +0.000 C 
ATOM     16  C   UNL     1       2.210   5.364  17.745  0.00  0.00    +0.000 C 
ATOM     17  N   UNL     1       2.785   6.329  18.679  0.00  0.00    +0.000 N 
ATOM     18  C   UNL     1       4.247   6.167  18.732  0.00  0.00    +0.000 C 
BRANCH  14  19
ATOM     19  C   UNL     1       5.110   5.506  16.385  0.00  0.00    +0.000 C 
BRANCH  19  20
ATOM     20  N   UNL     1       5.823   6.777  16.536  0.00  0.00    +0.000 NA
ATOM     21  H   UNL     1       5.793   7.301  15.664  0.00  0.00    +0.000 HD
BRANCH  20  23
ATOM     22  C   UNL     1       7.723   7.850  17.591  0.00  0.00    +0.000 C 
ATOM     23  C   UNL     1       7.220   6.583  16.914  0.00  0.00    +0.000 C 
ENDBRANCH  20  23
ENDBRANCH  19  20
ENDBRANCH  14  19
ENDBRANCH   1  17
BRANCH  10  24
ATOM     24  C   UNL     1       1.082  11.587  18.557  0.00  0.00    +0.000 C 
ATOM     25  C   UNL     1       0.888  13.058  18.275  0.00  0.00    +0.000 C 
ATOM     26  C   UNL     1       2.264  12.536  18.488  0.00  0.00    +0.000 C 
ENDBRANCH  10  24
BRANCH   8  27
ATOM     27  C   UNL     1      -1.042  12.087  22.891  0.00  0.00    +0.000 C 
ATOM     28  O   UNL     1      -0.527  13.111  23.315  0.00  0.00    +0.000 OA
BRANCH  27  29
ATOM     29  O   UNL     1      -2.292  11.712  23.234  0.00  0.00    +0.000 OA
ATOM     30  H   UNL     1      -2.353  10.798  23.604  0.00  0.00    +0.000 HD
ENDBRANCH  27  29
ENDBRANCH   8  27
TORSDOF 7
ENDMDL
MODEL 3
REMARK VINA RESULT:      -7.8      4.378      9.101
REMARK  Name = 
REMARK  8 active torsions:
REMARK  status: ('A' for Active; 'I' for Inactive)
REMARK    1  A    between atoms: C_1  and  C_2
REMARK    2  A    between atoms: C_2  and  N_3
REMARK    3  A    between atoms: N_3  and  C_4
REMARK    4  A    between atoms: C_4  and  C_5
REMARK    5  A    between atoms: N_8  and  C_9
REMARK    6  A    between atoms: C_16  and  C_17
REMARK    7  A    between atoms: C_17  and  O_19
REMARK    8  A    between atoms: N_21  and  C_22
REMARK                            x       y       z     vdW  Elec       q    Type
REMARK                         _______ _______ _______ _____ _____    ______ ____
ROOT
ATOM      1  C   UNL     1       2.043   7.591  19.465  0.00  0.00    +0.000 A 
ATOM      2  C   UNL     1       1.630   7.113  20.727  0.00  0.00    +0.000 A 
ATOM      3  F   UNL     1       1.904   5.860  21.123  0.00  0.00    +0.000 F 
ATOM      4  C   UNL     1       0.894   7.867  21.631  0.00  0.00    +0.000 A 
ATOM      5  C   UNL     1       0.553   9.182  21.322  0.00  0.00    +0.000 A 
ATOM      6  C   UNL     1      -0.196   9.933  22.353  0.00  0.00    +0.000 A 
ATOM      7  O   UNL     1      -0.516   9.423  23.426  0.00  0.00    +0.000 OA
ATOM      8  C   UNL     1      -0.563  11.332  22.077  0.00  0.00    +0.000 A 
ATOM      9  C   UNL     1      -0.205  11.813  20.881  0.00  0.00    +0.000 A 
ATOM     10  N   UNL     1       0.511  11.153  19.892  0.00  0.00    +0.000 N 
ATOM     11  C   UNL     1       0.913   9.774  20.089  0.00  0.00    +0.000 A 
ATOM     12  C   UNL     1       1.655   8.948  19.167  0.00  0.00    +0.000 A 
ATOM     13 CL   UNL     1       2.193   9.616  17.652  0.00  0.00    +0.000 Cl
ENDROOT
BRANCH   1  17
ATOM     14  C   UNL     1       4.633   5.672  17.542  0.00  0.00    +0.000 C 
ATOM     15  C   UNL     1       3.424   4.745  17.596  0.00  0.00    +0.000 C 
ATOM     16  C   UNL     1       2.250   5.688  17.778  0.00  0.00    +0.000 C 
ATOM     17  N   UNL     1       2.778   6.767  18.610  0.00  0.00    +0.000 N 
ATOM     18  C   UNL     1       4.246   6.802  18.514  0.00  0.00    +0.000 C 
BRANCH  14  19
ATOM     19  C   UNL     1       4.954   6.142  16.116  0.00  0.00    +0.000 C 
BRANCH  19  20
ATOM     20  N   UNL     1       6.378   5.956  15.831  0.00  0.00    +0.000 NA
ATOM     21  H   UNL     1       6.616   6.377  14.935  0.00  0.00    +0.000 HD
BRANCH  20  23
ATOM     22  C   UNL     1       6.187   3.924  14.522  0.00  0.00    +0.000 C 
ATOM     23  C   UNL     1       6.752   4.544  15.792  0.00  0.00    +0.000 C 
ENDBRANCH  20  23
ENDBRANCH  19  20
ENDBRANCH  14  19
ENDBRANCH   1  17
BRANCH  10  24
ATOM     24  C   UNL     1       0.703  11.891  18.615  0.00  0.00    +0.000 C 
ATOM     25  C   UNL     1       0.327  13.327  18.338  0.00  0.00    +0.000 C 
ATOM     26  C   UNL     1       1.759  12.978  18.538  0.00  0.00    +0.000 C 
ENDBRANCH  10  24
BRANCH   8  27
ATOM     27  C   UNL     1      -1.283  12.196  23.033  0.00  0.00    +0.000 C 
ATOM     28  O   UNL     1      -0.810  13.231  23.480  0.00  0.00    +0.000 OA
BRANCH  27  29
ATOM     29  O   UNL     1      -2.510  11.754  23.380  0.00  0.00    +0.000 OA
ATOM     30  H   UNL     1      -3.035  12.398  23.916  0.00  0.00    +0.000 HD
ENDBRANCH  27  29
ENDBRANCH   8  27
TORSDOF 7
ENDMDL
MODEL 4
REMARK VINA RESULT:      -7.8      2.598      3.783
REMARK  Name = 
REMARK  8 active torsions:
REMARK  status: ('A' for Active; 'I' for Inactive)
REMARK    1  A    between atoms: C_1  and  C_2
REMARK    2  A    between atoms: C_2  and  N_3
REMARK    3  A    between atoms: N_3  and  C_4
REMARK    4  A    between atoms: C_4  and  C_5
REMARK    5  A    between atoms: N_8  and  C_9
REMARK    6  A    between atoms: C_16  and  C_17
REMARK    7  A    between atoms: C_17  and  O_19
REMARK    8  A    between atoms: N_21  and  C_22
REMARK                            x       y       z     vdW  Elec       q    Type
REMARK                         _______ _______ _______ _____ _____    ______ ____
ROOT
ATOM      1  C   UNL     1       1.397   8.334  19.873  0.00  0.00    +0.000 A 
ATOM      2  C   UNL     1       0.987   7.456  20.900  0.00  0.00    +0.000 A 
ATOM      3  F   UNL     1       0.130   7.849  21.855  0.00  0.00    +0.000 F 
ATOM      4  C   UNL     1       1.450   6.153  21.026  0.00  0.00    +0.000 A 
ATOM      5  C   UNL     1       2.345   5.640  20.089  0.00  0.00    +0.000 A 
ATOM      6  C   UNL     1       2.759   4.231  20.270  0.00  0.00    +0.000 A 
ATOM      7  O   UNL     1       2.348   3.546  21.205  0.00  0.00    +0.000 OA
ATOM      8  C   UNL     1       3.691   3.642  19.295  0.00  0.00    +0.000 A 
ATOM      9  C   UNL     1       4.118   4.452  18.318  0.00  0.00    +0.000 A 
ATOM     10  N   UNL     1       3.744   5.770  18.101  0.00  0.00    +0.000 N 
ATOM     11  C   UNL     1       2.826   6.422  19.015  0.00  0.00    +0.000 A 
ATOM     12  C   UNL     1       2.341   7.780  18.934  0.00  0.00    +0.000 A 
ATOM     13 CL   UNL     1       2.833   8.794  17.608  0.00  0.00    +0.000 Cl
ENDROOT
BRANCH   1  17
ATOM     14  C   UNL     1       0.565  11.973  20.264  0.00  0.00    +0.000 C 
ATOM     15  C   UNL     1       0.267  11.662  18.802  0.00  0.00    +0.000 C 
ATOM     16  C   UNL     1      -0.009  10.170  18.797  0.00  0.00    +0.000 C 
ATOM     17  N   UNL     1       0.887   9.633  19.818  0.00  0.00    +0.000 N 
ATOM     18  C   UNL     1       1.284  10.700  20.750  0.00  0.00    +0.000 C 
BRANCH  14  19
ATOM     19  C   UNL     1      -0.698  12.332  21.062  0.00  0.00    +0.000 C 
BRANCH  19  20
ATOM     20  N   UNL     1      -0.472  12.110  22.491  0.00  0.00    +0.000 NA
ATOM     21  H   UNL     1       0.430  11.662  22.639  0.00  0.00    +0.000 HD
BRANCH  20  23
ATOM     22  C   UNL     1      -2.754  12.119  23.309  0.00  0.00    +0.000 C 
ATOM     23  C   UNL     1      -1.509  11.272  23.089  0.00  0.00    +0.000 C 
ENDBRANCH  20  23
ENDBRANCH  19  20
ENDBRANCH  14  19
ENDBRANCH   1  17
BRANCH  10  24
ATOM     24  C   UNL     1       4.435   6.475  16.988  0.00  0.00    +0.000 C 
ATOM     25  C   UNL     1       5.925   6.644  16.815  0.00  0.00    +0.000 C 
ATOM     26  C   UNL     1       5.202   5.665  15.960  0.00  0.00    +0.000 C 
ENDBRANCH  10  24
BRANCH   8  27
ATOM     27  C   UNL     1       4.157   2.242  19.346  0.00  0.00    +0.000 C 
ATOM     28  O   UNL     1       3.725   1.370  18.606  0.00  0.00    +0.000 OA
BRANCH  27  29
ATOM     29  O   UNL     1       5.101   1.996  20.278  0.00  0.00    +0.000 OA
ATOM     30  H   UNL     1       5.216   2.721  20.939  0.00  0.00    +0.000 HD
ENDBRANCH  27  29
ENDBRANCH   8  27
TORSDOF 7
ENDMDL
MODEL 5
REMARK VINA RESULT:      -7.8      1.647      2.210
REMARK  Name = 
REMARK  8 active torsions:
REMARK  status: ('A' for Active; 'I' for Inactive)
REMARK    1  A    between atoms: C_1  and  C_2
REMARK    2  A    between atoms: C_2  and  N_3
REMARK    3  A    between atoms: N_3  and  C_4
REMARK    4  A    between atoms: C_4  and  C_5
REMARK    5  A    between atoms: N_8  and  C_9
REMARK    6  A    between atoms: C_16  and  C_17
REMARK    7  A    between atoms: C_17  and  O_19
REMARK    8  A    between atoms: N_21  and  C_22
REMARK                            x       y       z     vdW  Elec       q    Type
REMARK                         _______ _______ _______ _____ _____    ______ ____
ROOT
ATOM      1  C   UNL     1       1.332   9.192  19.353  0.00  0.00    +0.000 A 
ATOM      2  C   UNL     1       2.090   9.503  18.203  0.00  0.00    +0.000 A 
ATOM      3  F   UNL     1       1.988  10.699  17.602  0.00  0.00    +0.000 F 
ATOM      4  C   UNL     1       2.959   8.610  17.591  0.00  0.00    +0.000 A 
ATOM      5  C   UNL     1       3.142   7.339  18.131  0.00  0.00    +0.000 A 
ATOM      6  C   UNL     1       4.114   6.461  17.445  0.00  0.00    +0.000 A 
ATOM      7  O   UNL     1       4.725   6.824  16.440  0.00  0.00    +0.000 OA
ATOM      8  C   UNL     1       4.352   5.113  17.990  0.00  0.00    +0.000 A 
ATOM      9  C   UNL     1       3.636   4.776  19.068  0.00  0.00    +0.000 A 
ATOM     10  N   UNL     1       2.727   5.571  19.753  0.00  0.00    +0.000 N 
ATOM     11  C   UNL     1       2.441   6.912  19.282  0.00  0.00    +0.000 A 
ATOM     12  C   UNL     1       1.528   7.861  19.874  0.00  0.00    +0.000 A 
ATOM     13 CL   UNL     1       0.670   7.441  21.329  0.00  0.00    +0.000 Cl
ENDROOT
BRANCH   1  17
ATOM     14  C   UNL     1      -0.327  12.003  21.206  0.00  0.00    +0.000 C 
ATOM     15  C   UNL     1      -1.094  11.897  19.893  0.00  0.00    +0.000 C 
ATOM     16  C   UNL     1      -0.879  10.459  19.460  0.00  0.00    +0.000 C 
ATOM     17  N   UNL     1       0.477  10.146  19.907  0.00  0.00    +0.000 N 
ATOM     18  C   UNL     1       0.879  11.071  20.979  0.00  0.00    +0.000 C 
BRANCH  14  19
ATOM     19  C   UNL     1      -1.189  11.641  22.425  0.00  0.00    +0.000 C 
BRANCH  19  20
ATOM     20  N   UNL     1      -2.518  12.241  22.300  0.00  0.00    +0.000 NA
ATOM     21  H   UNL     1      -2.442  13.192  21.944  0.00  0.00    +0.000 HD
BRANCH  20  23
ATOM     22  C   UNL     1      -3.250  13.715  24.079  0.00  0.00    +0.000 C 
ATOM     23  C   UNL     1      -3.228  12.279  23.576  0.00  0.00    +0.000 C 
ENDBRANCH  20  23
ENDBRANCH  19  20
ENDBRANCH  14  19
ENDBRANCH   1  17
BRANCH  10  24
ATOM     24  C   UNL     1       1.999   4.921  20.875  0.00  0.00    +0.000 C 
ATOM     25  C   UNL     1       1.140   3.682  20.796  0.00  0.00    +0.000 C 
ATOM     26  C   UNL     1       2.492   3.588  21.407  0.00  0.00    +0.000 C 
ENDBRANCH  10  24
BRANCH   8  27
ATOM     27  C   UNL     1       5.316   4.153  17.417  0.00  0.00    +0.000 C 
ATOM     28  O   UNL     1       5.127   3.575  16.357  0.00  0.00    +0.000 OA
BRANCH  27  29
ATOM     29  O   UNL     1       6.427   3.959  18.158  0.00  0.00    +0.000 OA
ATOM     30  H   UNL     1       6.599   3.013  18.388  0.00  0.00    +0.000 HD
ENDBRANCH  27  29
ENDBRANCH   8  27
TORSDOF 7
ENDMDL
MODEL 6
REMARK VINA RESULT:      -7.8      1.929      2.334
REMARK  Name = 
REMARK  8 active torsions:
REMARK  status: ('A' for Active; 'I' for Inactive)
REMARK    1  A    between atoms: C_1  and  C_2
REMARK    2  A    between atoms: C_2  and  N_3
REMARK    3  A    between atoms: N_3  and  C_4
REMARK    4  A    between atoms: C_4  and  C_5
REMARK    5  A    between atoms: N_8  and  C_9
REMARK    6  A    between atoms: C_16  and  C_17
REMARK    7  A    between atoms: C_17  and  O_19
REMARK    8  A    between atoms: N_21  and  C_22
REMARK                            x       y       z     vdW  Elec       q    Type
REMARK                         _______ _______ _______ _____ _____    ______ ____
ROOT
ATOM      1  C   UNL     1       1.405   9.219  19.267  0.00  0.00    +0.000 A 
ATOM      2  C   UNL     1       2.160   9.510  18.110  0.00  0.00    +0.000 A 
ATOM      3  F   UNL     1       2.058  10.696  17.490  0.00  0.00    +0.000 F 
ATOM      4  C   UNL     1       3.026   8.605  17.510  0.00  0.00    +0.000 A 
ATOM      5  C   UNL     1       3.208   7.343  18.071  0.00  0.00    +0.000 A 
ATOM      6  C   UNL     1       4.177   6.452  17.396  0.00  0.00    +0.000 A 
ATOM      7  O   UNL     1       4.785   6.797  16.383  0.00  0.00    +0.000 OA
ATOM      8  C   UNL     1       4.415   5.114  17.962  0.00  0.00    +0.000 A 
ATOM      9  C   UNL     1       3.701   4.795  19.049  0.00  0.00    +0.000 A 
ATOM     10  N   UNL     1       2.796   5.603  19.723  0.00  0.00    +0.000 N 
ATOM     11  C   UNL     1       2.510   6.936  19.230  0.00  0.00    +0.000 A 
ATOM     12  C   UNL     1       1.601   7.897  19.809  0.00  0.00    +0.000 A 
ATOM     13 CL   UNL     1       0.747   7.502  21.274  0.00  0.00    +0.000 Cl
ENDROOT
BRANCH   1  17
ATOM     14  C   UNL     1      -1.429  11.454  20.295  0.00  0.00    +0.000 C 
ATOM     15  C   UNL     1      -0.515  11.401  21.514  0.00  0.00    +0.000 C 
ATOM     16  C   UNL     1       0.846  11.067  20.934  0.00  0.00    +0.000 C 
ATOM     17  N   UNL     1       0.553  10.183  19.808  0.00  0.00    +0.000 N 
ATOM     18  C   UNL     1      -0.841  10.369  19.374  0.00  0.00    +0.000 C 
BRANCH  14  19
ATOM     19  C   UNL     1      -1.495  12.854  19.666  0.00  0.00    +0.000 C 
BRANCH  19  20
ATOM     20  N   UNL     1      -2.684  13.565  20.141  0.00  0.00    +0.000 NA
ATOM     21  H   UNL     1      -2.524  13.930  21.078  0.00  0.00    +0.000 HD
BRANCH  20  23
ATOM     22  C   UNL     1      -4.592  12.923  21.490  0.00  0.00    +0.000 C 
ATOM     23  C   UNL     1      -3.864  12.705  20.172  0.00  0.00    +0.000 C 
ENDBRANCH  20  23
ENDBRANCH  19  20
ENDBRANCH  14  19
ENDBRANCH   1  17
BRANCH  10  24
ATOM     24  C   UNL     1       2.070   4.972  20.858  0.00  0.00    +0.000 C 
ATOM     25  C   UNL     1       1.101   3.818  20.779  0.00  0.00    +0.000 C 
ATOM     26  C   UNL     1       2.469   3.580  21.311  0.00  0.00    +0.000 C 
ENDBRANCH  10  24
BRANCH   8  27
ATOM     27  C   UNL     1       5.375   4.143  17.402  0.00  0.00    +0.000 C 
ATOM     28  O   UNL     1       5.197   3.570  16.337  0.00  0.00    +0.000 OA
BRANCH  27  29
ATOM     29  O   UNL     1       6.471   3.931  18.161  0.00  0.00    +0.000 OA
ATOM     30  H   UNL     1       6.415   4.318  19.069  0.00  0.00    +0.000 HD
ENDBRANCH  27  29
ENDBRANCH   8  27
TORSDOF 7
ENDMDL
MODEL 7
REMARK VINA RESULT:      -7.8      2.965      4.276
REMARK  Name = 
REMARK  8 active torsions:
REMARK  status: ('A' for Active; 'I' for Inactive)
REMARK    1  A    between atoms: C_1  and  C_2
REMARK    2  A    between atoms: C_2  and  N_3
REMARK    3  A    between atoms: N_3  and  C_4
REMARK    4  A    between atoms: C_4  and  C_5
REMARK    5  A    between atoms: N_8  and  C_9
REMARK    6  A    between atoms: C_16  and  C_17
REMARK    7  A    between atoms: C_17  and  O_19
REMARK    8  A    between atoms: N_21  and  C_22
REMARK                            x       y       z     vdW  Elec       q    Type
REMARK                         _______ _______ _______ _____ _____    ______ ____
ROOT
ATOM      1  C   UNL     1       1.293   8.494  19.996  0.00  0.00    +0.000 A 
ATOM      2  C   UNL     1       0.869   7.564  20.969  0.00  0.00    +0.000 A 
ATOM      3  F   UNL     1      -0.003   7.907  21.930  0.00  0.00    +0.000 F 
ATOM      4  C   UNL     1       1.331   6.257  21.035  0.00  0.00    +0.000 A 
ATOM      5  C   UNL     1       2.240   5.793  20.086  0.00  0.00    +0.000 A 
ATOM      6  C   UNL     1       2.653   4.377  20.200  0.00  0.00    +0.000 A 
ATOM      7  O   UNL     1       2.229   3.644  21.093  0.00  0.00    +0.000 OA
ATOM      8  C   UNL     1       3.601   3.839  19.210  0.00  0.00    +0.000 A 
ATOM      9  C   UNL     1       4.041   4.699  18.283  0.00  0.00    +0.000 A 
ATOM     10  N   UNL     1       3.668   6.026  18.128  0.00  0.00    +0.000 N 
ATOM     11  C   UNL     1       2.737   6.630  19.061  0.00  0.00    +0.000 A 
ATOM     12  C   UNL     1       2.251   7.990  19.043  0.00  0.00    +0.000 A 
ATOM     13 CL   UNL     1       2.762   9.071  17.778  0.00  0.00    +0.000 Cl
ENDROOT
BRANCH   1  17
ATOM     14  C   UNL     1      -0.497  11.739  19.401  0.00  0.00    +0.000 C 
ATOM     15  C   UNL     1      -0.271  11.691  20.908  0.00  0.00    +0.000 C 
ATOM     16  C   UNL     1       0.933  10.782  21.066  0.00  0.00    +0.000 C 
ATOM     17  N   UNL     1       0.783   9.794  20.000  0.00  0.00    +0.000 N 
ATOM     18  C   UNL     1      -0.097  10.323  18.945  0.00  0.00    +0.000 C 
BRANCH  14  19
ATOM     19  C   UNL     1       0.288  12.871  18.721  0.00  0.00    +0.000 C 
BRANCH  19  20
ATOM     20  N   UNL     1       1.389  12.317  17.930  0.00  0.00    +0.000 NA
ATOM     21  H   UNL     1       1.409  11.302  18.018  0.00  0.00    +0.000 HD
BRANCH  20  23
ATOM     22  C   UNL     1       2.458  13.962  19.354  0.00  0.00    +0.000 C 
ATOM     23  C   UNL     1       2.686  12.844  18.347  0.00  0.00    +0.000 C 
ENDBRANCH  20  23
ENDBRANCH  19  20
ENDBRANCH  14  19
ENDBRANCH   1  17
BRANCH  10  24
ATOM     24  C   UNL     1       4.375   6.788  17.064  0.00  0.00    +0.000 C 
ATOM     25  C   UNL     1       5.869   6.918  16.887  0.00  0.00    +0.000 C 
ATOM     26  C   UNL     1       5.105   6.031  15.970  0.00  0.00    +0.000 C 
ENDBRANCH  10  24
BRANCH   8  27
ATOM     27  C   UNL     1       4.068   2.439  19.196  0.00  0.00    +0.000 C 
ATOM     28  O   UNL     1       3.647   1.606  18.405  0.00  0.00    +0.000 OA
BRANCH  27  29
ATOM     29  O   UNL     1       4.997   2.145  20.128  0.00  0.00    +0.000 OA
ATOM     30  H   UNL     1       5.075   1.181  20.331  0.00  0.00    +0.000 HD
ENDBRANCH  27  29
ENDBRANCH   8  27
TORSDOF 7
ENDMDL
MODEL 8
REMARK VINA RESULT:      -7.7      2.082      2.676
REMARK  Name = 
REMARK  8 active torsions:
REMARK  status: ('A' for Active; 'I' for Inactive)
REMARK    1  A    between atoms: C_1  and  C_2
REMARK    2  A    between atoms: C_2  and  N_3
REMARK    3  A    between atoms: N_3  and  C_4
REMARK    4  A    between atoms: C_4  and  C_5
REMARK    5  A    between atoms: N_8  and  C_9
REMARK    6  A    between atoms: C_16  and  C_17
REMARK    7  A    between atoms: C_17  and  O_19
REMARK    8  A    between atoms: N_21  and  C_22
REMARK                            x       y       z     vdW  Elec       q    Type
REMARK                         _______ _______ _______ _____ _____    ______ ____
ROOT
ATOM      1  C   UNL     1       1.427   9.152  19.283  0.00  0.00    +0.000 A 
ATOM      2  C   UNL     1       2.162   9.453  18.115  0.00  0.00    +0.000 A 
ATOM      3  F   UNL     1       2.035  10.638  17.497  0.00  0.00    +0.000 F 
ATOM      4  C   UNL     1       3.032   8.561  17.504  0.00  0.00    +0.000 A 
ATOM      5  C   UNL     1       3.239   7.301  18.061  0.00  0.00    +0.000 A 
ATOM      6  C   UNL     1       4.212   6.424  17.373  0.00  0.00    +0.000 A 
ATOM      7  O   UNL     1       4.801   6.778  16.353  0.00  0.00    +0.000 OA
ATOM      8  C   UNL     1       4.475   5.089  17.936  0.00  0.00    +0.000 A 
ATOM      9  C   UNL     1       3.781   4.760  19.032  0.00  0.00    +0.000 A 
ATOM     10  N   UNL     1       2.874   5.555  19.718  0.00  0.00    +0.000 N 
ATOM     11  C   UNL     1       2.563   6.885  19.230  0.00  0.00    +0.000 A 
ATOM     12  C   UNL     1       1.648   7.832  19.821  0.00  0.00    +0.000 A 
ATOM     13 CL   UNL     1       0.819   7.425  21.297  0.00  0.00    +0.000 Cl
ENDROOT
BRANCH   1  17
ATOM     14  C   UNL     1      -1.386  11.444  20.241  0.00  0.00    +0.000 C 
ATOM     15  C   UNL     1      -0.632  11.190  21.542  0.00  0.00    +0.000 C 
ATOM     16  C   UNL     1       0.770  10.832  21.086  0.00  0.00    +0.000 C 
ATOM     17  N   UNL     1       0.568  10.104  19.835  0.00  0.00    +0.000 N 
ATOM     18  C   UNL     1      -0.750  10.433  19.269  0.00  0.00    +0.000 C 
BRANCH  14  19
ATOM     19  C   UNL     1      -1.299  12.908  19.784  0.00  0.00    +0.000 C 
BRANCH  19  20
ATOM     20  N   UNL     1      -0.422  13.020  18.616  0.00  0.00    +0.000 NA
ATOM     21  H   UNL     1       0.093  12.153  18.479  0.00  0.00    +0.000 HD
BRANCH  20  23
ATOM     22  C   UNL     1       1.944  13.536  18.714  0.00  0.00    +0.000 C 
ATOM     23  C   UNL     1       0.537  14.113  18.750  0.00  0.00    +0.000 C 
ENDBRANCH  20  23
ENDBRANCH  19  20
ENDBRANCH  14  19
ENDBRANCH   1  17
BRANCH  10  24
ATOM     24  C   UNL     1       2.172   4.915  20.863  0.00  0.00    +0.000 C 
ATOM     25  C   UNL     1       1.119   3.836  20.786  0.00  0.00    +0.000 C 
ATOM     26  C   UNL     1       2.495   3.476  21.219  0.00  0.00    +0.000 C 
ENDBRANCH  10  24
BRANCH   8  27
ATOM     27  C   UNL     1       5.442   4.132  17.363  0.00  0.00    +0.000 C 
ATOM     28  O   UNL     1       5.222   3.496  16.342  0.00  0.00    +0.000 OA
BRANCH  27  29
ATOM     29  O   UNL     1       6.592   4.007  18.058  0.00  0.00    +0.000 OA
ATOM     30  H   UNL     1       6.893   3.074  18.178  0.00  0.00    +0.000 HD
ENDBRANCH  27  29
ENDBRANCH   8  27
TORSDOF 7
ENDMDL
MODEL 9
REMARK VINA RESULT:      -7.7      3.069      4.370
REMARK  Name = 
REMARK  8 active torsions:
REMARK  status: ('A' for Active; 'I' for Inactive)
REMARK    1  A    between atoms: C_1  and  C_2
REMARK    2  A    between atoms: C_2  and  N_3
REMARK    3  A    between atoms: N_3  and  C_4
REMARK    4  A    between atoms: C_4  and  C_5
REMARK    5  A    between atoms: N_8  and  C_9
REMARK    6  A    between atoms: C_16  and  C_17
REMARK    7  A    between atoms: C_17  and  O_19
REMARK    8  A    between atoms: N_21  and  C_22
REMARK                            x       y       z     vdW  Elec       q    Type
REMARK                         _______ _______ _______ _____ _____    ______ ____
ROOT
ATOM      1  C   UNL     1       1.189   8.590  19.943  0.00  0.00    +0.000 A 
ATOM      2  C   UNL     1       0.800   7.717  20.982  0.00  0.00    +0.000 A 
ATOM      3  F   UNL     1      -0.066   8.104  21.932  0.00  0.00    +0.000 F 
ATOM      4  C   UNL     1       1.291   6.426  21.125  0.00  0.00    +0.000 A 
ATOM      5  C   UNL     1       2.197   5.921  20.195  0.00  0.00    +0.000 A 
ATOM      6  C   UNL     1       2.643   4.525  20.395  0.00  0.00    +0.000 A 
ATOM      7  O   UNL     1       2.248   3.843  21.340  0.00  0.00    +0.000 OA
ATOM      8  C   UNL     1       3.588   3.943  19.427  0.00  0.00    +0.000 A 
ATOM      9  C   UNL     1       3.995   4.749  18.439  0.00  0.00    +0.000 A 
ATOM     10  N   UNL     1       3.591   6.056  18.204  0.00  0.00    +0.000 N 
ATOM     11  C   UNL     1       2.660   6.699  19.110  0.00  0.00    +0.000 A 
ATOM     12  C   UNL     1       2.144   8.044  19.010  0.00  0.00    +0.000 A 
ATOM     13 CL   UNL     1       2.612   9.050  17.669  0.00  0.00    +0.000 Cl
ENDROOT
BRANCH   1  17
ATOM     14  C   UNL     1      -0.941  11.672  19.718  0.00  0.00    +0.000 C 
ATOM     15  C   UNL     1       0.256  12.089  20.565  0.00  0.00    +0.000 C 
ATOM     16  C   UNL     1       1.352  11.128  20.143  0.00  0.00    +0.000 C 
ATOM     17  N   UNL     1       0.650   9.876  19.870  0.00  0.00    +0.000 N 
ATOM     18  C   UNL     1      -0.773  10.145  19.609  0.00  0.00    +0.000 C 
BRANCH  14  19
ATOM     19  C   UNL     1      -0.993  12.403  18.368  0.00  0.00    +0.000 C 
BRANCH  19  20
ATOM     20  N   UNL     1      -1.298  11.457  17.293  0.00  0.00    +0.000 NA
ATOM     21  H   UNL     1      -0.831  11.740  16.433  0.00  0.00    +0.000 HD
BRANCH  20  23
ATOM     22  C   UNL     1      -3.059   9.938  16.608  0.00  0.00    +0.000 C 
ATOM     23  C   UNL     1      -2.732  11.363  17.032  0.00  0.00    +0.000 C 
ENDBRANCH  20  23
ENDBRANCH  19  20
ENDBRANCH  14  19
ENDBRANCH   1  17
BRANCH  10  24
ATOM     24  C   UNL     1       4.265   6.760  17.080  0.00  0.00    +0.000 C 
ATOM     25  C   UNL     1       5.751   6.969  16.908  0.00  0.00    +0.000 C 
ATOM     26  C   UNL     1       5.058   5.955  16.068  0.00  0.00    +0.000 C 
ENDBRANCH  10  24
BRANCH   8  27
ATOM     27  C   UNL     1       4.085   2.555  19.496  0.00  0.00    +0.000 C 
ATOM     28  O   UNL     1       3.768   1.694  18.689  0.00  0.00    +0.000 OA
BRANCH  27  29
ATOM     29  O   UNL     1       4.920   2.306  20.527  0.00  0.00    +0.000 OA
ATOM     30  H   UNL     1       5.755   1.845  20.269  0.00  0.00    +0.000 HD
ENDBRANCH  27  29
ENDBRANCH   8  27
TORSDOF 7
ENDMDL
