MODEL 1
REMARK VINA RESULT:      -6.4      0.000      0.000
REMARK  Name = 
REMARK  3 active torsions:
REMARK  status: ('A' for Active; 'I' for Inactive)
REMARK    1  A    between atoms: C_1  and  C_2
REMARK    2  A    between atoms: C_8  and  O_9
REMARK    3  A    between atoms: C_13  and  O_14
REMARK                            x       y       z     vdW  Elec       q    Type
REMARK                         _______ _______ _______ _____ _____    ______ ____
ROOT
ATOM      1  C   UNL     1       0.649   2.891  19.437  0.00  0.00    +0.000 C 
ATOM      2  C   UNL     1       1.144   3.928  20.450  0.00  0.00    +0.000 C 
ATOM      3  O   UNL     1       1.429   5.172  19.795  0.00  0.00    +0.000 OA
ATOM      4  C   UNL     1       2.652   5.253  19.182  0.00  0.00    +0.000 A 
ATOM      5  C   UNL     1       2.794   6.315  18.286  0.00  0.00    +0.000 A 
ATOM      6  C   UNL     1       3.983   6.480  17.579  0.00  0.00    +0.000 A 
ATOM      7  C   UNL     1       5.039   5.589  17.773  0.00  0.00    +0.000 A 
ATOM      8  C   UNL     1       4.908   4.537  18.682  0.00  0.00    +0.000 A 
ATOM      9  C   UNL     1       3.715   4.366  19.396  0.00  0.00    +0.000 A 
ATOM     10  C   UNL     1       3.513   3.278  20.380  0.00  0.00    +0.000 C 
ATOM     11  O   UNL     1       4.222   2.279  20.466  0.00  0.00    +0.000 OA
ATOM     12  C   UNL     1       2.320   3.455  21.298  0.00  0.00    +0.000 C 
ENDROOT
BRANCH   8  13
ATOM     13  O   UNL     1       5.966   3.698  18.881  0.00  0.00    +0.000 OA
ATOM     14  H   UNL     1       6.511   4.014  19.619  0.00  0.00    +0.000 HD
ENDBRANCH   8  13
BRANCH  12  15
ATOM     15  O   UNL     1       1.995   2.252  21.988  0.00  0.00    +0.000 OA
ATOM     16  H   UNL     1       1.211   1.883  21.528  0.00  0.00    +0.000 HD
ENDBRANCH  12  15
TORSDOF 2
ENDMDL
MODEL 2
REMARK VINA RESULT:      -6.4      2.217      4.752
REMARK  Name = 
REMARK  3 active torsions:
REMARK  status: ('A' for Active; 'I' for Inactive)
REMARK    1  A    between atoms: C_1  and  C_2
REMARK    2  A    between atoms: C_8  and  O_9
REMARK    3  A    between atoms: C_13  and  O_14
REMARK                            x       y       z     vdW  Elec       q    Type
REMARK                         _______ _______ _______ _____ _____    ______ ____
ROOT
ATOM      1  C   UNL     1       7.813   6.974  18.176  0.00  0.00    +0.000 C 
ATOM      2  C   UNL     1       7.104   6.332  16.980  0.00  0.00    +0.000 C 
ATOM      3  O   UNL     1       5.913   7.062  16.652  0.00  0.00    +0.000 OA
ATOM      4  C   UNL     1       4.810   6.765  17.409  0.00  0.00    +0.000 A 
ATOM      5  C   UNL     1       3.764   7.686  17.314  0.00  0.00    +0.000 A 
ATOM      6  C   UNL     1       2.603   7.507  18.062  0.00  0.00    +0.000 A 
ATOM      7  C   UNL     1       2.478   6.399  18.901  0.00  0.00    +0.000 A 
ATOM      8  C   UNL     1       3.514   5.466  18.985  0.00  0.00    +0.000 A 
ATOM      9  C   UNL     1       4.683   5.640  18.235  0.00  0.00    +0.000 A 
ATOM     10  C   UNL     1       5.814   4.686  18.271  0.00  0.00    +0.000 C 
ATOM     11  O   UNL     1       5.973   3.828  19.136  0.00  0.00    +0.000 OA
ATOM     12  C   UNL     1       6.824   4.843  17.150  0.00  0.00    +0.000 C 
ENDROOT
BRANCH   8  13
ATOM     13  O   UNL     1       3.356   4.372  19.787  0.00  0.00    +0.000 OA
ATOM     14  H   UNL     1       3.684   3.577  19.337  0.00  0.00    +0.000 HD
ENDBRANCH   8  13
BRANCH  12  15
ATOM     15  O   UNL     1       8.028   4.127  17.413  0.00  0.00    +0.000 OA
ATOM     16  H   UNL     1       8.748   4.791  17.369  0.00  0.00    +0.000 HD
ENDBRANCH  12  15
TORSDOF 2
ENDMDL
MODEL 3
REMARK VINA RESULT:      -6.2      1.287      3.912
REMARK  Name = 
REMARK  3 active torsions:
REMARK  status: ('A' for Active; 'I' for Inactive)
REMARK    1  A    between atoms: C_1  and  C_2
REMARK    2  A    between atoms: C_8  and  O_9
REMARK    3  A    between atoms: C_13  and  O_14
REMARK                            x       y       z     vdW  Elec       q    Type
REMARK                         _______ _______ _______ _____ _____    ______ ____
ROOT
ATOM      1  C   UNL     1       3.346   6.676  18.467  0.00  0.00    +0.000 C 
ATOM      2  C   UNL     1       2.866   5.450  17.685  0.00  0.00    +0.000 C 
ATOM      3  O   UNL     1       1.754   4.834  18.351  0.00  0.00    +0.000 OA
ATOM      4  C   UNL     1       2.075   3.994  19.385  0.00  0.00    +0.000 A 
ATOM      5  C   UNL     1       1.010   3.660  20.225  0.00  0.00    +0.000 A 
ATOM      6  C   UNL     1       1.221   2.838  21.330  0.00  0.00    +0.000 A 
ATOM      7  C   UNL     1       2.496   2.337  21.594  0.00  0.00    +0.000 A 
ATOM      8  C   UNL     1       3.560   2.654  20.745  0.00  0.00    +0.000 A 
ATOM      9  C   UNL     1       3.354   3.479  19.633  0.00  0.00    +0.000 A 
ATOM     10  C   UNL     1       4.435   3.847  18.690  0.00  0.00    +0.000 C 
ATOM     11  O   UNL     1       5.634   3.717  18.923  0.00  0.00    +0.000 OA
ATOM     12  C   UNL     1       3.967   4.441  17.376  0.00  0.00    +0.000 C 
ENDROOT
BRANCH   8  13
ATOM     13  O   UNL     1       4.792   2.126  21.003  0.00  0.00    +0.000 OA
ATOM     14  H   UNL     1       4.910   2.002  21.958  0.00  0.00    +0.000 HD
ENDBRANCH   8  13
BRANCH  12  15
ATOM     15  O   UNL     1       5.033   5.058  16.660  0.00  0.00    +0.000 OA
ATOM     16  H   UNL     1       4.611   5.558  15.929  0.00  0.00    +0.000 HD
ENDBRANCH  12  15
TORSDOF 2
ENDMDL
MODEL 4
REMARK VINA RESULT:      -6.2      1.873      4.156
REMARK  Name = 
REMARK  3 active torsions:
REMARK  status: ('A' for Active; 'I' for Inactive)
REMARK    1  A    between atoms: C_1  and  C_2
REMARK    2  A    between atoms: C_8  and  O_9
REMARK    3  A    between atoms: C_13  and  O_14
REMARK                            x       y       z     vdW  Elec       q    Type
REMARK                         _______ _______ _______ _____ _____    ______ ____
ROOT
ATOM      1  C   UNL     1       6.097   4.668  18.820  0.00  0.00    +0.000 C 
ATOM      2  C   UNL     1       5.048   5.137  17.807  0.00  0.00    +0.000 C 
ATOM      3  O   UNL     1       3.968   5.804  18.477  0.00  0.00    +0.000 OA
ATOM      4  C   UNL     1       3.013   4.986  19.021  0.00  0.00    +0.000 A 
ATOM      5  C   UNL     1       2.157   5.604  19.935  0.00  0.00    +0.000 A 
ATOM      6  C   UNL     1       1.166   4.865  20.576  0.00  0.00    +0.000 A 
ATOM      7  C   UNL     1       1.019   3.506  20.299  0.00  0.00    +0.000 A 
ATOM      8  C   UNL     1       1.861   2.888  19.371  0.00  0.00    +0.000 A 
ATOM      9  C   UNL     1       2.859   3.626  18.723  0.00  0.00    +0.000 A 
ATOM     10  C   UNL     1       3.778   3.034  17.724  0.00  0.00    +0.000 C 
ATOM     11  O   UNL     1       3.956   1.829  17.571  0.00  0.00    +0.000 OA
ATOM     12  C   UNL     1       4.542   4.037  16.881  0.00  0.00    +0.000 C 
ENDROOT
BRANCH   8  13
ATOM     13  O   UNL     1       1.678   1.564  19.090  0.00  0.00    +0.000 OA
ATOM     14  H   UNL     1       1.142   1.146  19.783  0.00  0.00    +0.000 HD
ENDBRANCH   8  13
BRANCH  12  15
ATOM     15  O   UNL     1       5.623   3.429  16.179  0.00  0.00    +0.000 OA
ATOM     16  H   UNL     1       5.475   3.633  15.231  0.00  0.00    +0.000 HD
ENDBRANCH  12  15
TORSDOF 2
ENDMDL
MODEL 5
REMARK VINA RESULT:      -6.1      1.112      1.309
REMARK  Name = 
REMARK  3 active torsions:
REMARK  status: ('A' for Active; 'I' for Inactive)
REMARK    1  A    between atoms: C_1  and  C_2
REMARK    2  A    between atoms: C_8  and  O_9
REMARK    3  A    between atoms: C_13  and  O_14
REMARK                            x       y       z     vdW  Elec       q    Type
REMARK                         _______ _______ _______ _____ _____    ______ ____
ROOT
ATOM      1  C   UNL     1       1.468   3.482  18.222  0.00  0.00    +0.000 C 
ATOM      2  C   UNL     1       1.854   4.482  19.317  0.00  0.00    +0.000 C 
ATOM      3  O   UNL     1       2.276   5.724  18.734  0.00  0.00    +0.000 OA
ATOM      4  C   UNL     1       3.576   5.763  18.302  0.00  0.00    +0.000 A 
ATOM      5  C   UNL     1       3.885   6.831  17.457  0.00  0.00    +0.000 A 
ATOM      6  C   UNL     1       5.167   6.958  16.928  0.00  0.00    +0.000 A 
ATOM      7  C   UNL     1       6.151   6.022  17.251  0.00  0.00    +0.000 A 
ATOM      8  C   UNL     1       5.851   4.962  18.111  0.00  0.00    +0.000 A 
ATOM      9  C   UNL     1       4.563   4.830  18.646  0.00  0.00    +0.000 A 
ATOM     10  C   UNL     1       4.182   3.737  19.568  0.00  0.00    +0.000 C 
ATOM     11  O   UNL     1       4.832   2.708  19.734  0.00  0.00    +0.000 OA
ATOM     12  C   UNL     1       2.878   3.949  20.313  0.00  0.00    +0.000 C 
ENDROOT
BRANCH   8  13
ATOM     13  O   UNL     1       6.837   4.078  18.440  0.00  0.00    +0.000 OA
ATOM     14  H   UNL     1       6.493   3.170  18.423  0.00  0.00    +0.000 HD
ENDBRANCH   8  13
BRANCH  12  15
ATOM     15  O   UNL     1       2.412   2.750  20.925  0.00  0.00    +0.000 OA
ATOM     16  H   UNL     1       1.454   2.887  21.086  0.00  0.00    +0.000 HD
ENDBRANCH  12  15
TORSDOF 2
ENDMDL
MODEL 6
REMARK VINA RESULT:      -6.1      2.875      5.238
REMARK  Name = 
REMARK  3 active torsions:
REMARK  status: ('A' for Active; 'I' for Inactive)
REMARK    1  A    between atoms: C_1  and  C_2
REMARK    2  A    between atoms: C_8  and  O_9
REMARK    3  A    between atoms: C_13  and  O_14
REMARK                            x       y       z     vdW  Elec       q    Type
REMARK                         _______ _______ _______ _____ _____    ______ ____
ROOT
ATOM      1  C   UNL     1       5.630   4.461  14.412  0.00  0.00    +0.000 C 
ATOM      2  C   UNL     1       6.101   4.012  15.798  0.00  0.00    +0.000 C 
ATOM      3  O   UNL     1       5.099   3.202  16.430  0.00  0.00    +0.000 OA
ATOM      4  C   UNL     1       4.085   3.889  17.046  0.00  0.00    +0.000 A 
ATOM      5  C   UNL     1       2.964   3.121  17.368  0.00  0.00    +0.000 A 
ATOM      6  C   UNL     1       1.856   3.716  17.968  0.00  0.00    +0.000 A 
ATOM      7  C   UNL     1       1.869   5.080  18.258  0.00  0.00    +0.000 A 
ATOM      8  C   UNL     1       2.996   5.848  17.955  0.00  0.00    +0.000 A 
ATOM      9  C   UNL     1       4.112   5.255  17.352  0.00  0.00    +0.000 A 
ATOM     10  C   UNL     1       5.341   6.009  17.012  0.00  0.00    +0.000 C 
ATOM     11  O   UNL     1       5.410   7.234  16.954  0.00  0.00    +0.000 OA
ATOM     12  C   UNL     1       6.554   5.155  16.701  0.00  0.00    +0.000 C 
ENDROOT
BRANCH   8  13
ATOM     13  O   UNL     1       3.000   7.174  18.278  0.00  0.00    +0.000 OA
ATOM     14  H   UNL     1       3.807   7.398  18.769  0.00  0.00    +0.000 HD
ENDBRANCH   8  13
BRANCH  12  15
ATOM     15  O   UNL     1       7.592   5.909  16.081  0.00  0.00    +0.000 OA
ATOM     16  H   UNL     1       7.142   6.541  15.481  0.00  0.00    +0.000 HD
ENDBRANCH  12  15
TORSDOF 2
ENDMDL
MODEL 7
REMARK VINA RESULT:      -6.0      2.123      4.321
REMARK  Name = 
REMARK  3 active torsions:
REMARK  status: ('A' for Active; 'I' for Inactive)
REMARK    1  A    between atoms: C_1  and  C_2
REMARK    2  A    between atoms: C_8  and  O_9
REMARK    3  A    between atoms: C_13  and  O_14
REMARK                            x       y       z     vdW  Elec       q    Type
REMARK                         _______ _______ _______ _____ _____    ______ ____
ROOT
ATOM      1  C   UNL     1       5.863   5.233  19.259  0.00  0.00    +0.000 C 
ATOM      2  C   UNL     1       4.693   6.022  18.664  0.00  0.00    +0.000 C 
ATOM      3  O   UNL     1       3.568   5.999  19.555  0.00  0.00    +0.000 OA
ATOM      4  C   UNL     1       2.785   4.876  19.491  0.00  0.00    +0.000 A 
ATOM      5  C   UNL     1       1.904   4.710  20.561  0.00  0.00    +0.000 A 
ATOM      6  C   UNL     1       1.080   3.588  20.621  0.00  0.00    +0.000 A 
ATOM      7  C   UNL     1       1.126   2.633  19.605  0.00  0.00    +0.000 A 
ATOM      8  C   UNL     1       1.993   2.806  18.523  0.00  0.00    +0.000 A 
ATOM      9  C   UNL     1       2.823   3.931  18.457  0.00  0.00    +0.000 A 
ATOM     10  C   UNL     1       3.758   4.178  17.336  0.00  0.00    +0.000 C 
ATOM     11  O   UNL     1       4.107   3.327  16.522  0.00  0.00    +0.000 OA
ATOM     12  C   UNL     1       4.305   5.590  17.254  0.00  0.00    +0.000 C 
ENDROOT
BRANCH   8  13
ATOM     13  O   UNL     1       1.997   1.876  17.524  0.00  0.00    +0.000 OA
ATOM     14  H   UNL     1       2.854   1.875  17.070  0.00  0.00    +0.000 HD
ENDBRANCH   8  13
BRANCH  12  15
ATOM     15  O   UNL     1       5.419   5.680  16.372  0.00  0.00    +0.000 OA
ATOM     16  H   UNL     1       5.926   6.469  16.660  0.00  0.00    +0.000 HD
ENDBRANCH  12  15
TORSDOF 2
ENDMDL
MODEL 8
REMARK VINA RESULT:      -6.0      1.734      2.517
REMARK  Name = 
REMARK  3 active torsions:
REMARK  status: ('A' for Active; 'I' for Inactive)
REMARK    1  A    between atoms: C_1  and  C_2
REMARK    2  A    between atoms: C_8  and  O_9
REMARK    3  A    between atoms: C_13  and  O_14
REMARK                            x       y       z     vdW  Elec       q    Type
REMARK                         _______ _______ _______ _____ _____    ______ ____
ROOT
ATOM      1  C   UNL     1       1.302   2.180  18.754  0.00  0.00    +0.000 C 
ATOM      2  C   UNL     1       2.444   2.514  19.720  0.00  0.00    +0.000 C 
ATOM      3  O   UNL     1       2.216   3.785  20.344  0.00  0.00    +0.000 OA
ATOM      4  C   UNL     1       2.580   4.881  19.606  0.00  0.00    +0.000 A 
ATOM      5  C   UNL     1       2.068   6.097  20.063  0.00  0.00    +0.000 A 
ATOM      6  C   UNL     1       2.343   7.276  19.375  0.00  0.00    +0.000 A 
ATOM      7  C   UNL     1       3.141   7.246  18.231  0.00  0.00    +0.000 A 
ATOM      8  C   UNL     1       3.671   6.034  17.781  0.00  0.00    +0.000 A 
ATOM      9  C   UNL     1       3.398   4.846  18.469  0.00  0.00    +0.000 A 
ATOM     10  C   UNL     1       3.934   3.530  18.051  0.00  0.00    +0.000 C 
ATOM     11  O   UNL     1       4.414   3.296  16.945  0.00  0.00    +0.000 OA
ATOM     12  C   UNL     1       3.831   2.434  19.093  0.00  0.00    +0.000 C 
ENDROOT
BRANCH   8  13
ATOM     13  O   UNL     1       4.477   6.033  16.679  0.00  0.00    +0.000 OA
ATOM     14  H   UNL     1       4.927   5.177  16.594  0.00  0.00    +0.000 HD
ENDBRANCH   8  13
BRANCH  12  15
ATOM     15  O   UNL     1       4.061   1.144  18.534  0.00  0.00    +0.000 OA
ATOM     16  H   UNL     1       4.875   1.227  17.994  0.00  0.00    +0.000 HD
ENDBRANCH  12  15
TORSDOF 2
ENDMDL
MODEL 9
REMARK VINA RESULT:      -5.9      2.254      3.109
REMARK  Name = 
REMARK  3 active torsions:
REMARK  status: ('A' for Active; 'I' for Inactive)
REMARK    1  A    between atoms: C_1  and  C_2
REMARK    2  A    between atoms: C_8  and  O_9
REMARK    3  A    between atoms: C_13  and  O_14
REMARK                            x       y       z     vdW  Elec       q    Type
REMARK                         _______ _______ _______ _____ _____    ______ ____
ROOT
ATOM      1  C   UNL     1       3.313   1.893  18.169  0.00  0.00    +0.000 C 
ATOM      2  C   UNL     1       2.994   3.378  17.974  0.00  0.00    +0.000 C 
ATOM      3  O   UNL     1       3.422   3.816  16.676  0.00  0.00    +0.000 OA
ATOM      4  C   UNL     1       4.751   4.133  16.567  0.00  0.00    +0.000 A 
ATOM      5  C   UNL     1       5.225   4.240  15.257  0.00  0.00    +0.000 A 
ATOM      6  C   UNL     1       6.568   4.526  15.021  0.00  0.00    +0.000 A 
ATOM      7  C   UNL     1       7.440   4.718  16.093  0.00  0.00    +0.000 A 
ATOM      8  C   UNL     1       6.965   4.630  17.404  0.00  0.00    +0.000 A 
ATOM      9  C   UNL     1       5.617   4.343  17.648  0.00  0.00    +0.000 A 
ATOM     10  C   UNL     1       5.048   4.244  19.011  0.00  0.00    +0.000 C 
ATOM     11  O   UNL     1       5.714   4.120  20.035  0.00  0.00    +0.000 OA
ATOM     12  C   UNL     1       3.533   4.280  19.080  0.00  0.00    +0.000 C 
ENDROOT
BRANCH   8  13
ATOM     13  O   UNL     1       7.829   4.854  18.437  0.00  0.00    +0.000 OA
ATOM     14  H   UNL     1       8.737   4.646  18.165  0.00  0.00    +0.000 HD
ENDBRANCH   8  13
BRANCH  12  15
ATOM     15  O   UNL     1       3.047   3.866  20.353  0.00  0.00    +0.000 OA
ATOM     16  H   UNL     1       3.388   4.523  20.996  0.00  0.00    +0.000 HD
ENDBRANCH  12  15
TORSDOF 2
ENDMDL
