MODEL 1
REMARK VINA RESULT:      -7.5      0.000      0.000
REMARK  Name = 
REMARK  9 active torsions:
REMARK  status: ('A' for Active; 'I' for Inactive)
REMARK    1  A    between atoms: N_1  and  N_2
REMARK    2  A    between atoms: C_3  and  C_4
REMARK    3  A    between atoms: C_4  and  C_5
REMARK    4  A    between atoms: N_11  and  C_12
REMARK    5  A    between atoms: C_12  and  C_13
REMARK    6  A    between atoms: N_15  and  N_16
REMARK    7  A    between atoms: N_16  and  C_17
REMARK    8  A    between atoms: C_17  and  N_19
REMARK    9  A    between atoms: N_19  and  C_20
REMARK                            x       y       z     vdW  Elec       q    Type
REMARK                         _______ _______ _______ _____ _____    ______ ____
ROOT
ATOM      1  C   UNL     1       7.914   6.620  18.696  0.00  0.00    +0.000 C 
ENDROOT
BRANCH   1   5
ATOM      2  N   UNL     1       5.829   4.324  16.884  0.00  0.00    +0.000 N 
ATOM      3  C   UNL     1       4.958   5.141  17.525  0.00  0.00    +0.000 A 
ATOM      4  N   UNL     1       5.532   6.135  18.158  0.00  0.00    +0.000 NA
ATOM      5  N   UNL     1       6.883   5.940  17.941  0.00  0.00    +0.000 N 
ATOM      6  C   UNL     1       7.099   4.764  17.206  0.00  0.00    +0.000 A 
ATOM      7  O   UNL     1       8.159   4.209  16.961  0.00  0.00    +0.000 OA
BRANCH   2   8
ATOM      8  N   UNL     1       5.550   3.093  16.282  0.00  0.00    +0.000 N 
ATOM      9  H   UNL     1       4.961   2.566  16.931  0.00  0.00    +0.000 HD
ATOM     10  H   UNL     1       4.941   3.293  15.480  0.00  0.00    +0.000 HD
ENDBRANCH   2   8
BRANCH   3  11
ATOM     11  C   UNL     1       3.480   4.881  17.547  0.00  0.00    +0.000 C 
BRANCH  11  12
ATOM     12  C   UNL     1       3.034   4.364  18.880  0.00  0.00    +0.000 A 
ATOM     13  C   UNL     1       2.337   5.033  19.868  0.00  0.00    +0.000 A 
ATOM     14  C   UNL     1       2.220   4.266  21.064  0.00  0.00    +0.000 A 
ATOM     15  C   UNL     1       2.801   3.025  20.941  0.00  0.00    +0.000 A 
ATOM     16  S   UNL     1       3.468   2.783  19.385  0.00  0.00    +0.000 S 
ENDBRANCH  11  12
ENDBRANCH   3  11
ENDBRANCH   1   5
BRANCH   1  17
ATOM     17  C   UNL     1       8.143   8.057  18.268  0.00  0.00    +0.000 C 
ATOM     18  O   UNL     1       7.828   8.453  17.142  0.00  0.00    +0.000 OA
ATOM     19  N   UNL     1       8.876   8.845  19.132  0.00  0.00    +0.000 N 
ATOM     20  H   UNL     1       9.129   8.538  20.074  0.00  0.00    +0.000 HD
BRANCH  19  21
ATOM     21  N   UNL     1       9.123  10.162  18.729  0.00  0.00    +0.000 N 
ATOM     22  H   UNL     1       9.078  10.285  17.716  0.00  0.00    +0.000 HD
BRANCH  21  23
ATOM     23  C   UNL     1       9.991  10.982  19.417  0.00  0.00    +0.000 C 
ATOM     24  S   UNL     1      11.332  11.722  18.750  0.00  0.00    +0.000 S 
BRANCH  23  25
ATOM     25  N   UNL     1       9.764  11.041  20.776  0.00  0.00    +0.000 N 
ATOM     26  H   UNL     1      10.404  10.514  21.361  0.00  0.00    +0.000 HD
BRANCH  25  27
ATOM     27  C   UNL     1       8.923  11.962  21.440  0.00  0.00    +0.000 A 
ATOM     28  C   UNL     1       8.183  11.531  22.542  0.00  0.00    +0.000 A 
ATOM     29  C   UNL     1       7.345  12.427  23.216  0.00  0.00    +0.000 A 
ATOM     30  C   UNL     1       7.278  13.760  22.820  0.00  0.00    +0.000 A 
ATOM     31  C   UNL     1       8.043  14.203  21.744  0.00  0.00    +0.000 A 
ATOM     32  C   UNL     1       8.859  13.307  21.058  0.00  0.00    +0.000 A 
ENDBRANCH  25  27
ENDBRANCH  23  25
ENDBRANCH  21  23
ENDBRANCH  19  21
ENDBRANCH   1  17
TORSDOF 9
ENDMDL
MODEL 2
REMARK VINA RESULT:      -7.4      2.147      3.121
REMARK  Name = 
REMARK  9 active torsions:
REMARK  status: ('A' for Active; 'I' for Inactive)
REMARK    1  A    between atoms: N_1  and  N_2
REMARK    2  A    between atoms: C_3  and  C_4
REMARK    3  A    between atoms: C_4  and  C_5
REMARK    4  A    between atoms: N_11  and  C_12
REMARK    5  A    between atoms: C_12  and  C_13
REMARK    6  A    between atoms: N_15  and  N_16
REMARK    7  A    between atoms: N_16  and  C_17
REMARK    8  A    between atoms: C_17  and  N_19
REMARK    9  A    between atoms: N_19  and  C_20
REMARK                            x       y       z     vdW  Elec       q    Type
REMARK                         _______ _______ _______ _____ _____    ______ ____
ROOT
ATOM      1  C   UNL     1       7.605   6.526  18.722  0.00  0.00    +0.000 C 
ENDROOT
BRANCH   1   5
ATOM      2  N   UNL     1       5.502   4.204  16.965  0.00  0.00    +0.000 N 
ATOM      3  C   UNL     1       4.654   4.889  17.771  0.00  0.00    +0.000 A 
ATOM      4  N   UNL     1       5.221   5.877  18.419  0.00  0.00    +0.000 NA
ATOM      5  N   UNL     1       6.547   5.819  18.033  0.00  0.00    +0.000 N 
ATOM      6  C   UNL     1       6.764   4.728  17.178  0.00  0.00    +0.000 A 
ATOM      7  O   UNL     1       7.826   4.289  16.765  0.00  0.00    +0.000 OA
BRANCH   2   8
ATOM      8  N   UNL     1       5.250   3.005  16.293  0.00  0.00    +0.000 N 
ATOM      9  H   UNL     1       6.028   2.374  16.498  0.00  0.00    +0.000 HD
ATOM     10  H   UNL     1       4.438   2.578  16.756  0.00  0.00    +0.000 HD
ENDBRANCH   2   8
BRANCH   3  11
ATOM     11  C   UNL     1       3.214   4.498  17.939  0.00  0.00    +0.000 C 
BRANCH  11  12
ATOM     12  C   UNL     1       2.957   3.921  19.296  0.00  0.00    +0.000 A 
ATOM     13  C   UNL     1       3.713   2.992  19.987  0.00  0.00    +0.000 A 
ATOM     14  C   UNL     1       3.078   2.565  21.191  0.00  0.00    +0.000 A 
ATOM     15  C   UNL     1       1.877   3.204  21.396  0.00  0.00    +0.000 A 
ATOM     16  S   UNL     1       1.527   4.324  20.154  0.00  0.00    +0.000 S 
ENDBRANCH  11  12
ENDBRANCH   3  11
ENDBRANCH   1   5
BRANCH   1  17
ATOM     17  C   UNL     1       7.977   7.851  18.085  0.00  0.00    +0.000 C 
ATOM     18  O   UNL     1       7.828   8.049  16.875  0.00  0.00    +0.000 OA
ATOM     19  N   UNL     1       8.647   8.751  18.887  0.00  0.00    +0.000 N 
ATOM     20  H   UNL     1       8.762   8.610  19.893  0.00  0.00    +0.000 HD
BRANCH  19  21
ATOM     21  N   UNL     1       9.025   9.963  18.297  0.00  0.00    +0.000 N 
ATOM     22  H   UNL     1       9.640   9.839  17.490  0.00  0.00    +0.000 HD
BRANCH  21  23
ATOM     23  C   UNL     1       9.199  11.110  19.040  0.00  0.00    +0.000 C 
ATOM     24  S   UNL     1       9.378  11.151  20.701  0.00  0.00    +0.000 S 
BRANCH  23  25
ATOM     25  N   UNL     1       9.065  12.280  18.324  0.00  0.00    +0.000 N 
ATOM     26  H   UNL     1       8.139  12.695  18.310  0.00  0.00    +0.000 HD
BRANCH  25  27
ATOM     27  C   UNL     1      10.120  13.091  17.848  0.00  0.00    +0.000 A 
ATOM     28  C   UNL     1      10.011  14.478  17.957  0.00  0.00    +0.000 A 
ATOM     29  C   UNL     1      11.046  15.299  17.493  0.00  0.00    +0.000 A 
ATOM     30  C   UNL     1      12.205  14.739  16.963  0.00  0.00    +0.000 A 
ATOM     31  C   UNL     1      12.333  13.354  16.887  0.00  0.00    +0.000 A 
ATOM     32  C   UNL     1      11.295  12.537  17.326  0.00  0.00    +0.000 A 
ENDBRANCH  25  27
ENDBRANCH  23  25
ENDBRANCH  21  23
ENDBRANCH  19  21
ENDBRANCH   1  17
TORSDOF 9
ENDMDL
MODEL 3
REMARK VINA RESULT:      -7.3      5.464      6.750
REMARK  Name = 
REMARK  9 active torsions:
REMARK  status: ('A' for Active; 'I' for Inactive)
REMARK    1  A    between atoms: N_1  and  N_2
REMARK    2  A    between atoms: C_3  and  C_4
REMARK    3  A    between atoms: C_4  and  C_5
REMARK    4  A    between atoms: N_11  and  C_12
REMARK    5  A    between atoms: C_12  and  C_13
REMARK    6  A    between atoms: N_15  and  N_16
REMARK    7  A    between atoms: N_16  and  C_17
REMARK    8  A    between atoms: C_17  and  N_19
REMARK    9  A    between atoms: N_19  and  C_20
REMARK                            x       y       z     vdW  Elec       q    Type
REMARK                         _______ _______ _______ _____ _____    ______ ____
ROOT
ATOM      1  C   UNL     1       3.878   7.527  17.592  0.00  0.00    +0.000 C 
ENDROOT
BRANCH   1   5
ATOM      2  N   UNL     1       4.897   4.270  16.470  0.00  0.00    +0.000 N 
ATOM      3  C   UNL     1       3.860   4.031  17.310  0.00  0.00    +0.000 A 
ATOM      4  N   UNL     1       3.267   5.118  17.741  0.00  0.00    +0.000 NA
ATOM      5  N   UNL     1       3.985   6.149  17.164  0.00  0.00    +0.000 N 
ATOM      6  C   UNL     1       5.063   5.642  16.422  0.00  0.00    +0.000 A 
ATOM      7  O   UNL     1       5.982   6.258  15.905  0.00  0.00    +0.000 OA
BRANCH   2   8
ATOM      8  N   UNL     1       5.831   3.346  15.993  0.00  0.00    +0.000 N 
ATOM      9  H   UNL     1       6.438   3.097  16.778  0.00  0.00    +0.000 HD
ATOM     10  H   UNL     1       5.309   2.487  15.784  0.00  0.00    +0.000 HD
ENDBRANCH   2   8
BRANCH   3  11
ATOM     11  C   UNL     1       3.480   2.646  17.744  0.00  0.00    +0.000 C 
BRANCH  11  12
ATOM     12  C   UNL     1       2.762   2.660  19.058  0.00  0.00    +0.000 A 
ATOM     13  C   UNL     1       1.409   2.813  19.292  0.00  0.00    +0.000 A 
ATOM     14  C   UNL     1       1.108   2.926  20.681  0.00  0.00    +0.000 A 
ATOM     15  C   UNL     1       2.234   2.823  21.464  0.00  0.00    +0.000 A 
ATOM     16  S   UNL     1       3.644   2.574  20.528  0.00  0.00    +0.000 S 
ENDBRANCH  11  12
ENDBRANCH   3  11
ENDBRANCH   1   5
BRANCH   1  17
ATOM     17  C   UNL     1       2.529   7.883  18.188  0.00  0.00    +0.000 C 
ATOM     18  O   UNL     1       1.687   8.517  17.546  0.00  0.00    +0.000 OA
ATOM     19  N   UNL     1       2.363   7.616  19.532  0.00  0.00    +0.000 N 
ATOM     20  H   UNL     1       3.042   7.076  20.073  0.00  0.00    +0.000 HD
BRANCH  19  21
ATOM     21  N   UNL     1       1.134   7.974  20.098  0.00  0.00    +0.000 N 
ATOM     22  H   UNL     1       0.333   7.613  19.577  0.00  0.00    +0.000 HD
BRANCH  21  23
ATOM     23  C   UNL     1       0.958   9.174  20.755  0.00  0.00    +0.000 C 
ATOM     24  S   UNL     1       0.831   9.341  22.412  0.00  0.00    +0.000 S 
BRANCH  23  25
ATOM     25  N   UNL     1       0.739  10.252  19.925  0.00  0.00    +0.000 N 
ATOM     26  H   UNL     1       1.554  10.627  19.451  0.00  0.00    +0.000 HD
BRANCH  25  27
ATOM     27  C   UNL     1      -0.517  10.704  19.461  0.00  0.00    +0.000 A 
ATOM     28  C   UNL     1      -1.160  11.736  20.146  0.00  0.00    +0.000 A 
ATOM     29  C   UNL     1      -2.405  12.200  19.701  0.00  0.00    +0.000 A 
ATOM     30  C   UNL     1      -2.985  11.667  18.554  0.00  0.00    +0.000 A 
ATOM     31  C   UNL     1      -2.329  10.663  17.847  0.00  0.00    +0.000 A 
ATOM     32  C   UNL     1      -1.102  10.184  18.301  0.00  0.00    +0.000 A 
ENDBRANCH  25  27
ENDBRANCH  23  25
ENDBRANCH  21  23
ENDBRANCH  19  21
ENDBRANCH   1  17
TORSDOF 9
ENDMDL
MODEL 4
REMARK VINA RESULT:      -7.2      5.443      6.755
REMARK  Name = 
REMARK  9 active torsions:
REMARK  status: ('A' for Active; 'I' for Inactive)
REMARK    1  A    between atoms: N_1  and  N_2
REMARK    2  A    between atoms: C_3  and  C_4
REMARK    3  A    between atoms: C_4  and  C_5
REMARK    4  A    between atoms: N_11  and  C_12
REMARK    5  A    between atoms: C_12  and  C_13
REMARK    6  A    between atoms: N_15  and  N_16
REMARK    7  A    between atoms: N_16  and  C_17
REMARK    8  A    between atoms: C_17  and  N_19
REMARK    9  A    between atoms: N_19  and  C_20
REMARK                            x       y       z     vdW  Elec       q    Type
REMARK                         _______ _______ _______ _____ _____    ______ ____
ROOT
ATOM      1  C   UNL     1       3.951   7.602  17.526  0.00  0.00    +0.000 C 
ENDROOT
BRANCH   1   5
ATOM      2  N   UNL     1       4.999   4.326  16.490  0.00  0.00    +0.000 N 
ATOM      3  C   UNL     1       3.965   4.100  17.338  0.00  0.00    +0.000 A 
ATOM      4  N   UNL     1       3.362   5.193  17.740  0.00  0.00    +0.000 NA
ATOM      5  N   UNL     1       4.070   6.214  17.135  0.00  0.00    +0.000 N 
ATOM      6  C   UNL     1       5.151   5.697  16.404  0.00  0.00    +0.000 A 
ATOM      7  O   UNL     1       6.064   6.308  15.869  0.00  0.00    +0.000 OA
BRANCH   2   8
ATOM      8  N   UNL     1       5.940   3.398  16.036  0.00  0.00    +0.000 N 
ATOM      9  H   UNL     1       6.466   3.077  16.852  0.00  0.00    +0.000 HD
ATOM     10  H   UNL     1       5.410   2.575  15.725  0.00  0.00    +0.000 HD
ENDBRANCH   2   8
BRANCH   3  11
ATOM     11  C   UNL     1       3.599   2.723  17.810  0.00  0.00    +0.000 C 
BRANCH  11  12
ATOM     12  C   UNL     1       2.935   2.762  19.152  0.00  0.00    +0.000 A 
ATOM     13  C   UNL     1       3.527   2.726  20.400  0.00  0.00    +0.000 A 
ATOM     14  C   UNL     1       2.569   2.629  21.452  0.00  0.00    +0.000 A 
ATOM     15  C   UNL     1       1.278   2.626  20.976  0.00  0.00    +0.000 A 
ATOM     16  S   UNL     1       1.224   2.757  19.272  0.00  0.00    +0.000 S 
ENDBRANCH  11  12
ENDBRANCH   3  11
ENDBRANCH   1   5
BRANCH   1  17
ATOM     17  C   UNL     1       2.586   7.971  18.076  0.00  0.00    +0.000 C 
ATOM     18  O   UNL     1       1.776   8.620  17.409  0.00  0.00    +0.000 OA
ATOM     19  N   UNL     1       2.368   7.698  19.411  0.00  0.00    +0.000 N 
ATOM     20  H   UNL     1       3.021   7.146  19.972  0.00  0.00    +0.000 HD
BRANCH  19  21
ATOM     21  N   UNL     1       1.124   8.068  19.936  0.00  0.00    +0.000 N 
ATOM     22  H   UNL     1       0.340   7.757  19.360  0.00  0.00    +0.000 HD
BRANCH  21  23
ATOM     23  C   UNL     1       0.953   9.240  20.641  0.00  0.00    +0.000 C 
ATOM     24  S   UNL     1       0.829   9.340  22.304  0.00  0.00    +0.000 S 
BRANCH  23  25
ATOM     25  N   UNL     1       0.734  10.351  19.856  0.00  0.00    +0.000 N 
ATOM     26  H   UNL     1       1.546  10.733  19.382  0.00  0.00    +0.000 HD
BRANCH  25  27
ATOM     27  C   UNL     1      -0.524  10.836  19.430  0.00  0.00    +0.000 A 
ATOM     28  C   UNL     1      -1.142  10.240  18.330  0.00  0.00    +0.000 A 
ATOM     29  C   UNL     1      -2.389  10.703  17.893  0.00  0.00    +0.000 A 
ATOM     30  C   UNL     1      -3.038  11.728  18.577  0.00  0.00    +0.000 A 
ATOM     31  C   UNL     1      -2.441  12.300  19.698  0.00  0.00    +0.000 A 
ATOM     32  C   UNL     1      -1.190  11.855  20.119  0.00  0.00    +0.000 A 
ENDBRANCH  25  27
ENDBRANCH  23  25
ENDBRANCH  21  23
ENDBRANCH  19  21
ENDBRANCH   1  17
TORSDOF 9
ENDMDL
MODEL 5
REMARK VINA RESULT:      -7.2      5.804      8.873
REMARK  Name = 
REMARK  9 active torsions:
REMARK  status: ('A' for Active; 'I' for Inactive)
REMARK    1  A    between atoms: N_1  and  N_2
REMARK    2  A    between atoms: C_3  and  C_4
REMARK    3  A    between atoms: C_4  and  C_5
REMARK    4  A    between atoms: N_11  and  C_12
REMARK    5  A    between atoms: C_12  and  C_13
REMARK    6  A    between atoms: N_15  and  N_16
REMARK    7  A    between atoms: N_16  and  C_17
REMARK    8  A    between atoms: C_17  and  N_19
REMARK    9  A    between atoms: N_19  and  C_20
REMARK                            x       y       z     vdW  Elec       q    Type
REMARK                         _______ _______ _______ _____ _____    ______ ____
ROOT
ATOM      1  C   UNL     1       2.936   7.751  18.256  0.00  0.00    +0.000 C 
ENDROOT
BRANCH   1   5
ATOM      2  N   UNL     1       0.417   9.591  20.037  0.00  0.00    +0.000 N 
ATOM      3  C   UNL     1       0.425  10.138  18.796  0.00  0.00    +0.000 A 
ATOM      4  N   UNL     1       1.209   9.517  17.949  0.00  0.00    +0.000 NA
ATOM      5  N   UNL     1       1.781   8.504  18.695  0.00  0.00    +0.000 N 
ATOM      6  C   UNL     1       1.356   8.577  20.031  0.00  0.00    +0.000 A 
ATOM      7  O   UNL     1       1.766   7.943  20.991  0.00  0.00    +0.000 OA
BRANCH   2   8
ATOM      8  N   UNL     1      -0.165  10.120  21.192  0.00  0.00    +0.000 N 
ATOM      9  H   UNL     1       0.578  10.218  21.887  0.00  0.00    +0.000 HD
ATOM     10  H   UNL     1      -0.439  11.084  20.964  0.00  0.00    +0.000 HD
ENDBRANCH   2   8
BRANCH   3  11
ATOM     11  C   UNL     1      -0.352  11.377  18.459  0.00  0.00    +0.000 C 
BRANCH  11  12
ATOM     12  C   UNL     1      -1.736  11.048  17.992  0.00  0.00    +0.000 A 
ATOM     13  C   UNL     1      -2.112  10.241  16.935  0.00  0.00    +0.000 A 
ATOM     14  C   UNL     1      -3.517  10.281  16.695  0.00  0.00    +0.000 A 
ATOM     15  C   UNL     1      -4.171  11.089  17.596  0.00  0.00    +0.000 A 
ATOM     16  S   UNL     1      -3.098  11.781  18.733  0.00  0.00    +0.000 S 
ENDBRANCH  11  12
ENDBRANCH   3  11
ENDBRANCH   1   5
BRANCH   1  17
ATOM     17  C   UNL     1       2.852   6.266  18.557  0.00  0.00    +0.000 C 
ATOM     18  O   UNL     1       2.014   5.543  18.012  0.00  0.00    +0.000 OA
ATOM     19  N   UNL     1       3.639   5.806  19.594  0.00  0.00    +0.000 N 
ATOM     20  H   UNL     1       4.350   6.387  20.043  0.00  0.00    +0.000 HD
BRANCH  19  21
ATOM     21  N   UNL     1       3.541   4.444  19.902  0.00  0.00    +0.000 N 
ATOM     22  H   UNL     1       3.151   4.271  20.830  0.00  0.00    +0.000 HD
BRANCH  21  23
ATOM     23  C   UNL     1       4.456   3.525  19.431  0.00  0.00    +0.000 C 
ATOM     24  S   UNL     1       4.317   1.870  19.604  0.00  0.00    +0.000 S 
BRANCH  23  25
ATOM     25  N   UNL     1       5.608   4.080  18.918  0.00  0.00    +0.000 N 
ATOM     26  H   UNL     1       6.389   4.169  19.560  0.00  0.00    +0.000 HD
BRANCH  25  27
ATOM     27  C   UNL     1       5.900   4.276  17.549  0.00  0.00    +0.000 A 
ATOM     28  C   UNL     1       7.183   4.685  17.182  0.00  0.00    +0.000 A 
ATOM     29  C   UNL     1       7.493   4.883  15.831  0.00  0.00    +0.000 A 
ATOM     30  C   UNL     1       6.542   4.633  14.846  0.00  0.00    +0.000 A 
ATOM     31  C   UNL     1       5.272   4.189  15.206  0.00  0.00    +0.000 A 
ATOM     32  C   UNL     1       4.954   4.013  16.551  0.00  0.00    +0.000 A 
ENDBRANCH  25  27
ENDBRANCH  23  25
ENDBRANCH  21  23
ENDBRANCH  19  21
ENDBRANCH   1  17
TORSDOF 9
ENDMDL
MODEL 6
REMARK VINA RESULT:      -7.2      5.311      8.212
REMARK  Name = 
REMARK  9 active torsions:
REMARK  status: ('A' for Active; 'I' for Inactive)
REMARK    1  A    between atoms: N_1  and  N_2
REMARK    2  A    between atoms: C_3  and  C_4
REMARK    3  A    between atoms: C_4  and  C_5
REMARK    4  A    between atoms: N_11  and  C_12
REMARK    5  A    between atoms: C_12  and  C_13
REMARK    6  A    between atoms: N_15  and  N_16
REMARK    7  A    between atoms: N_16  and  C_17
REMARK    8  A    between atoms: C_17  and  N_19
REMARK    9  A    between atoms: N_19  and  C_20
REMARK                            x       y       z     vdW  Elec       q    Type
REMARK                         _______ _______ _______ _____ _____    ______ ____
ROOT
ATOM      1  C   UNL     1       2.616   3.837  18.622  0.00  0.00    +0.000 C 
ENDROOT
BRANCH   1   5
ATOM      2  N   UNL     1       1.986   7.045  20.110  0.00  0.00    +0.000 N 
ATOM      3  C   UNL     1       2.244   7.319  18.808  0.00  0.00    +0.000 A 
ATOM      4  N   UNL     1       2.387   6.252  18.061  0.00  0.00    +0.000 NA
ATOM      5  N   UNL     1       2.241   5.197  18.942  0.00  0.00    +0.000 N 
ATOM      6  C   UNL     1       2.064   5.672  20.251  0.00  0.00    +0.000 A 
ATOM      7  O   UNL     1       2.050   5.034  21.292  0.00  0.00    +0.000 OA
BRANCH   2   8
ATOM      8  N   UNL     1       1.964   7.947  21.177  0.00  0.00    +0.000 N 
ATOM      9  H   UNL     1       2.877   8.407  21.203  0.00  0.00    +0.000 HD
ATOM     10  H   UNL     1       1.304   8.690  20.917  0.00  0.00    +0.000 HD
ENDBRANCH   2   8
BRANCH   3  11
ATOM     11  C   UNL     1       2.409   8.721  18.299  0.00  0.00    +0.000 C 
BRANCH  11  12
ATOM     12  C   UNL     1       1.129   9.494  18.394  0.00  0.00    +0.000 A 
ATOM     13  C   UNL     1      -0.048   9.286  17.702  0.00  0.00    +0.000 A 
ATOM     14  C   UNL     1      -1.007  10.313  17.943  0.00  0.00    +0.000 A 
ATOM     15  C   UNL     1      -0.545  11.253  18.835  0.00  0.00    +0.000 A 
ATOM     16  S   UNL     1       1.030  10.887  19.391  0.00  0.00    +0.000 S 
ENDBRANCH  11  12
ENDBRANCH   3  11
ENDBRANCH   1   5
BRANCH   1  17
ATOM     17  C   UNL     1       3.948   3.719  17.906  0.00  0.00    +0.000 C 
ATOM     18  O   UNL     1       4.136   2.869  17.030  0.00  0.00    +0.000 OA
ATOM     19  N   UNL     1       4.982   4.486  18.402  0.00  0.00    +0.000 N 
ATOM     20  H   UNL     1       4.838   5.206  19.114  0.00  0.00    +0.000 HD
BRANCH  19  21
ATOM     21  N   UNL     1       6.224   4.356  17.770  0.00  0.00    +0.000 N 
ATOM     22  H   UNL     1       6.884   3.785  18.300  0.00  0.00    +0.000 HD
BRANCH  21  23
ATOM     23  C   UNL     1       6.755   5.367  16.999  0.00  0.00    +0.000 C 
ATOM     24  S   UNL     1       6.323   6.977  17.111  0.00  0.00    +0.000 S 
BRANCH  23  25
ATOM     25  N   UNL     1       7.590   4.937  15.990  0.00  0.00    +0.000 N 
ATOM     26  H   UNL     1       8.501   4.593  16.277  0.00  0.00    +0.000 HD
BRANCH  25  27
ATOM     27  C   UNL     1       7.214   4.672  14.654  0.00  0.00    +0.000 A 
ATOM     28  C   UNL     1       7.949   5.247  13.616  0.00  0.00    +0.000 A 
ATOM     29  C   UNL     1       7.594   4.996  12.285  0.00  0.00    +0.000 A 
ATOM     30  C   UNL     1       6.538   4.138  11.989  0.00  0.00    +0.000 A 
ATOM     31  C   UNL     1       5.826   3.533  13.021  0.00  0.00    +0.000 A 
ATOM     32  C   UNL     1       6.163   3.800  14.345  0.00  0.00    +0.000 A 
ENDBRANCH  25  27
ENDBRANCH  23  25
ENDBRANCH  21  23
ENDBRANCH  19  21
ENDBRANCH   1  17
TORSDOF 9
ENDMDL
MODEL 7
REMARK VINA RESULT:      -7.1      6.471     10.602
REMARK  Name = 
REMARK  9 active torsions:
REMARK  status: ('A' for Active; 'I' for Inactive)
REMARK    1  A    between atoms: N_1  and  N_2
REMARK    2  A    between atoms: C_3  and  C_4
REMARK    3  A    between atoms: C_4  and  C_5
REMARK    4  A    between atoms: N_11  and  C_12
REMARK    5  A    between atoms: C_12  and  C_13
REMARK    6  A    between atoms: N_15  and  N_16
REMARK    7  A    between atoms: N_16  and  C_17
REMARK    8  A    between atoms: C_17  and  N_19
REMARK    9  A    between atoms: N_19  and  C_20
REMARK                            x       y       z     vdW  Elec       q    Type
REMARK                         _______ _______ _______ _____ _____    ______ ____
ROOT
ATOM      1  C   UNL     1      -0.688  10.542  21.697  0.00  0.00    +0.000 C 
ENDROOT
BRANCH   1   5
ATOM      2  N   UNL     1      -0.569  12.532  18.709  0.00  0.00    +0.000 N 
ATOM      3  C   UNL     1      -0.006  13.315  19.662  0.00  0.00    +0.000 A 
ATOM      4  N   UNL     1       0.150  12.714  20.816  0.00  0.00    +0.000 NA
ATOM      5  N   UNL     1      -0.374  11.451  20.616  0.00  0.00    +0.000 N 
ATOM      6  C   UNL     1      -0.902  11.338  19.320  0.00  0.00    +0.000 A 
ATOM      7  O   UNL     1      -1.566  10.427  18.851  0.00  0.00    +0.000 OA
BRANCH   2   8
ATOM      8  N   UNL     1      -1.027  12.928  17.449  0.00  0.00    +0.000 N 
ATOM      9  H   UNL     1      -1.826  13.547  17.600  0.00  0.00    +0.000 HD
ATOM     10  H   UNL     1      -0.298  13.532  17.051  0.00  0.00    +0.000 HD
ENDBRANCH   2   8
BRANCH   3  11
ATOM     11  C   UNL     1       0.341  14.755  19.417  0.00  0.00    +0.000 C 
BRANCH  11  12
ATOM     12  C   UNL     1       1.707  14.895  18.820  0.00  0.00    +0.000 A 
ATOM     13  C   UNL     1       2.684  13.928  18.682  0.00  0.00    +0.000 A 
ATOM     14  C   UNL     1       3.915  14.465  18.202  0.00  0.00    +0.000 A 
ATOM     15  C   UNL     1       3.829  15.816  17.959  0.00  0.00    +0.000 A 
ATOM     16  S   UNL     1       2.268  16.428  18.291  0.00  0.00    +0.000 S 
ENDBRANCH  11  12
ENDBRANCH   3  11
ENDBRANCH   1   5
BRANCH   1  17
ATOM     17  C   UNL     1      -0.102   9.153  21.522  0.00  0.00    +0.000 C 
ATOM     18  O   UNL     1      -0.724   8.143  21.863  0.00  0.00    +0.000 OA
ATOM     19  N   UNL     1       1.219   9.090  21.128  0.00  0.00    +0.000 N 
ATOM     20  H   UNL     1       1.741   9.915  20.824  0.00  0.00    +0.000 HD
BRANCH  19  21
ATOM     21  N   UNL     1       1.777   7.813  20.998  0.00  0.00    +0.000 N 
ATOM     22  H   UNL     1       2.211   7.477  21.859  0.00  0.00    +0.000 HD
BRANCH  21  23
ATOM     23  C   UNL     1       2.332   7.380  19.812  0.00  0.00    +0.000 C 
ATOM     24  S   UNL     1       2.223   8.194  18.357  0.00  0.00    +0.000 S 
BRANCH  23  25
ATOM     25  N   UNL     1       2.880   6.116  19.867  0.00  0.00    +0.000 N 
ATOM     26  H   UNL     1       3.801   6.044  20.285  0.00  0.00    +0.000 HD
BRANCH  25  27
ATOM     27  C   UNL     1       2.190   4.901  19.658  0.00  0.00    +0.000 A 
ATOM     28  C   UNL     1       2.063   4.408  18.358  0.00  0.00    +0.000 A 
ATOM     29  C   UNL     1       1.385   3.205  18.130  0.00  0.00    +0.000 A 
ATOM     30  C   UNL     1       0.873   2.472  19.197  0.00  0.00    +0.000 A 
ATOM     31  C   UNL     1       1.031   2.941  20.499  0.00  0.00    +0.000 A 
ATOM     32  C   UNL     1       1.684   4.150  20.726  0.00  0.00    +0.000 A 
ENDBRANCH  25  27
ENDBRANCH  23  25
ENDBRANCH  21  23
ENDBRANCH  19  21
ENDBRANCH   1  17
TORSDOF 9
ENDMDL
MODEL 8
REMARK VINA RESULT:      -7.1      2.243      2.718
REMARK  Name = 
REMARK  9 active torsions:
REMARK  status: ('A' for Active; 'I' for Inactive)
REMARK    1  A    between atoms: N_1  and  N_2
REMARK    2  A    between atoms: C_3  and  C_4
REMARK    3  A    between atoms: C_4  and  C_5
REMARK    4  A    between atoms: N_11  and  C_12
REMARK    5  A    between atoms: C_12  and  C_13
REMARK    6  A    between atoms: N_15  and  N_16
REMARK    7  A    between atoms: N_16  and  C_17
REMARK    8  A    between atoms: C_17  and  N_19
REMARK    9  A    between atoms: N_19  and  C_20
REMARK                            x       y       z     vdW  Elec       q    Type
REMARK                         _______ _______ _______ _____ _____    ______ ____
ROOT
ATOM      1  C   UNL     1       8.058   6.386  18.747  0.00  0.00    +0.000 C 
ENDROOT
BRANCH   1   5
ATOM      2  N   UNL     1       5.877   4.007  17.171  0.00  0.00    +0.000 N 
ATOM      3  C   UNL     1       5.493   4.011  18.471  0.00  0.00    +0.000 A 
ATOM      4  N   UNL     1       6.102   4.914  19.200  0.00  0.00    +0.000 NA
ATOM      5  N   UNL     1       6.972   5.531  18.320  0.00  0.00    +0.000 N 
ATOM      6  C   UNL     1       6.903   4.926  17.055  0.00  0.00    +0.000 A 
ATOM      7  O   UNL     1       7.625   5.111  16.088  0.00  0.00    +0.000 OA
BRANCH   2   8
ATOM      8  N   UNL     1       5.554   3.060  16.195  0.00  0.00    +0.000 N 
ATOM      9  H   UNL     1       5.755   2.138  16.590  0.00  0.00    +0.000 HD
ATOM     10  H   UNL     1       4.532   3.084  16.094  0.00  0.00    +0.000 HD
ENDBRANCH   2   8
BRANCH   3  11
ATOM     11  C   UNL     1       4.506   3.023  19.020  0.00  0.00    +0.000 C 
BRANCH  11  12
ATOM     12  C   UNL     1       3.348   3.710  19.675  0.00  0.00    +0.000 A 
ATOM     13  C   UNL     1       2.719   3.383  20.861  0.00  0.00    +0.000 A 
ATOM     14  C   UNL     1       1.555   4.174  21.094  0.00  0.00    +0.000 A 
ATOM     15  C   UNL     1       1.353   5.100  20.097  0.00  0.00    +0.000 A 
ATOM     16  S   UNL     1       2.569   5.026  18.897  0.00  0.00    +0.000 S 
ENDBRANCH  11  12
ENDBRANCH   3  11
ENDBRANCH   1   5
BRANCH   1  17
ATOM     17  C   UNL     1       8.004   7.786  18.165  0.00  0.00    +0.000 C 
ATOM     18  O   UNL     1       7.472   8.011  17.074  0.00  0.00    +0.000 OA
ATOM     19  N   UNL     1       8.729   8.755  18.829  0.00  0.00    +0.000 N 
ATOM     20  H   UNL     1       9.159   8.589  19.741  0.00  0.00    +0.000 HD
BRANCH  19  21
ATOM     21  N   UNL     1       8.713  10.042  18.279  0.00  0.00    +0.000 N 
ATOM     22  H   UNL     1       8.680  10.040  17.258  0.00  0.00    +0.000 HD
BRANCH  21  23
ATOM     23  C   UNL     1       9.371  11.095  18.877  0.00  0.00    +0.000 C 
ATOM     24  S   UNL     1       9.551  11.291  20.526  0.00  0.00    +0.000 S 
BRANCH  23  25
ATOM     25  N   UNL     1       9.759  12.093  18.008  0.00  0.00    +0.000 N 
ATOM     26  H   UNL     1      10.291  11.798  17.196  0.00  0.00    +0.000 HD
BRANCH  25  27
ATOM     27  C   UNL     1       9.267  13.417  17.988  0.00  0.00    +0.000 A 
ATOM     28  C   UNL     1      10.173  14.477  18.044  0.00  0.00    +0.000 A 
ATOM     29  C   UNL     1       9.706  15.797  18.023  0.00  0.00    +0.000 A 
ATOM     30  C   UNL     1       8.344  16.060  17.901  0.00  0.00    +0.000 A 
ATOM     31  C   UNL     1       7.440  15.005  17.807  0.00  0.00    +0.000 A 
ATOM     32  C   UNL     1       7.901  13.692  17.851  0.00  0.00    +0.000 A 
ENDBRANCH  25  27
ENDBRANCH  23  25
ENDBRANCH  21  23
ENDBRANCH  19  21
ENDBRANCH   1  17
TORSDOF 9
ENDMDL
MODEL 9
REMARK VINA RESULT:      -7.1      1.144      1.523
REMARK  Name = 
REMARK  9 active torsions:
REMARK  status: ('A' for Active; 'I' for Inactive)
REMARK    1  A    between atoms: N_1  and  N_2
REMARK    2  A    between atoms: C_3  and  C_4
REMARK    3  A    between atoms: C_4  and  C_5
REMARK    4  A    between atoms: N_11  and  C_12
REMARK    5  A    between atoms: C_12  and  C_13
REMARK    6  A    between atoms: N_15  and  N_16
REMARK    7  A    between atoms: N_16  and  C_17
REMARK    8  A    between atoms: C_17  and  N_19
REMARK    9  A    between atoms: N_19  and  C_20
REMARK                            x       y       z     vdW  Elec       q    Type
REMARK                         _______ _______ _______ _____ _____    ______ ____
ROOT
ATOM      1  C   UNL     1       7.843   6.629  18.682  0.00  0.00    +0.000 C 
ENDROOT
BRANCH   1   5
ATOM      2  N   UNL     1       5.680   4.291  17.022  0.00  0.00    +0.000 N 
ATOM      3  C   UNL     1       4.843   5.070  17.750  0.00  0.00    +0.000 A 
ATOM      4  N   UNL     1       5.440   6.073  18.347  0.00  0.00    +0.000 NA
ATOM      5  N   UNL     1       6.772   5.926  18.009  0.00  0.00    +0.000 N 
ATOM      6  C   UNL     1       6.959   4.768  17.238  0.00  0.00    +0.000 A 
ATOM      7  O   UNL     1       8.009   4.252  16.891  0.00  0.00    +0.000 OA
BRANCH   2   8
ATOM      8  N   UNL     1       5.388   3.061  16.426  0.00  0.00    +0.000 N 
ATOM      9  H   UNL     1       5.267   2.381  17.181  0.00  0.00    +0.000 HD
ATOM     10  H   UNL     1       4.455   3.155  16.007  0.00  0.00    +0.000 HD
ENDBRANCH   2   8
BRANCH   3  11
ATOM     11  C   UNL     1       3.382   4.761  17.899  0.00  0.00    +0.000 C 
BRANCH  11  12
ATOM     12  C   UNL     1       3.078   4.184  19.247  0.00  0.00    +0.000 A 
ATOM     13  C   UNL     1       3.391   2.928  19.730  0.00  0.00    +0.000 A 
ATOM     14  C   UNL     1       2.808   2.677  21.007  0.00  0.00    +0.000 A 
ATOM     15  C   UNL     1       2.096   3.759  21.471  0.00  0.00    +0.000 A 
ATOM     16  S   UNL     1       2.147   5.075  20.380  0.00  0.00    +0.000 S 
ENDBRANCH  11  12
ENDBRANCH   3  11
ENDBRANCH   1   5
BRANCH   1  17
ATOM     17  C   UNL     1       8.096   8.024  18.144  0.00  0.00    +0.000 C 
ATOM     18  O   UNL     1       7.783   8.339  16.992  0.00  0.00    +0.000 OA
ATOM     19  N   UNL     1       8.847   8.863  18.943  0.00  0.00    +0.000 N 
ATOM     20  H   UNL     1       9.098   8.624  19.905  0.00  0.00    +0.000 HD
BRANCH  19  21
ATOM     21  N   UNL     1       9.115  10.141  18.439  0.00  0.00    +0.000 N 
ATOM     22  H   UNL     1       9.262  10.149  17.429  0.00  0.00    +0.000 HD
BRANCH  21  23
ATOM     23  C   UNL     1       9.802  11.082  19.176  0.00  0.00    +0.000 C 
ATOM     24  S   UNL     1      11.398  11.508  18.924  0.00  0.00    +0.000 S 
BRANCH  23  25
ATOM     25  N   UNL     1       9.114  11.566  20.267  0.00  0.00    +0.000 N 
ATOM     26  H   UNL     1       8.788  10.875  20.935  0.00  0.00    +0.000 HD
BRANCH  25  27
ATOM     27  C   UNL     1       9.058  12.915  20.685  0.00  0.00    +0.000 A 
ATOM     28  C   UNL     1       8.423  13.851  19.868  0.00  0.00    +0.000 A 
ATOM     29  C   UNL     1       8.355  15.193  20.265  0.00  0.00    +0.000 A 
ATOM     30  C   UNL     1       8.878  15.591  21.491  0.00  0.00    +0.000 A 
ATOM     31  C   UNL     1       9.478  14.653  22.327  0.00  0.00    +0.000 A 
ATOM     32  C   UNL     1       9.568  13.323  21.923  0.00  0.00    +0.000 A 
ENDBRANCH  25  27
ENDBRANCH  23  25
ENDBRANCH  21  23
ENDBRANCH  19  21
ENDBRANCH   1  17
TORSDOF 9
ENDMDL
