MODEL 1
REMARK VINA RESULT:      -6.8      0.000      0.000
REMARK  Name = 
REMARK  7 active torsions:
REMARK  status: ('A' for Active; 'I' for Inactive)
REMARK    1  A    between atoms: C_1  and  C_2
REMARK    2  A    between atoms: C_5  and  C_7
REMARK    3  A    between atoms: C_7  and  C_8
REMARK    4  A    between atoms: C_7  and  C_9
REMARK    5  A    between atoms: C_7  and  C_10
REMARK    6  A    between atoms: C_14  and  C_16
REMARK    7  A    between atoms: C_19  and  N_20
REMARK                            x       y       z     vdW  Elec       q    Type
REMARK                         _______ _______ _______ _____ _____    ______ ____
ROOT
ATOM      1  C   UNL     1       2.100   9.381  22.398  0.00  0.00    +0.000 C 
ATOM      2  C   UNL     1       1.178   8.569  21.488  0.00  0.00    +0.000 C 
ATOM      3  C   UNL     1      -0.320   8.827  21.783  0.00  0.00    +0.000 C 
ATOM      4  N   UNL     1      -0.726  10.168  21.336  0.00  0.00    +0.000 N 
ATOM      5  C   UNL     1      -1.046  11.104  22.308  0.00  0.00    +0.000 C 
ATOM      6  O   UNL     1      -1.054  10.759  23.496  0.00  0.00    +0.000 OA
ATOM      7  C   UNL     1      -0.475  10.379  19.900  0.00  0.00    +0.000 C 
ATOM      8  C   UNL     1       1.008  10.143  19.568  0.00  0.00    +0.000 C 
ATOM      9  N   UNL     1       1.444   8.820  20.045  0.00  0.00    +0.000 N 
ATOM     10  C   UNL     1       2.044   7.962  19.119  0.00  0.00    +0.000 C 
ATOM     11  O   UNL     1       2.323   8.318  17.975  0.00  0.00    +0.000 OA
ENDROOT
BRANCH  10  12
ATOM     12  C   UNL     1       2.383   6.556  19.478  0.00  0.00    +0.000 A 
ATOM     13  C   UNL     1       1.638   5.824  20.411  0.00  0.00    +0.000 A 
ATOM     14  C   UNL     1       2.045   4.546  20.796  0.00  0.00    +0.000 A 
ATOM     15  C   UNL     1       3.135   3.946  20.152  0.00  0.00    +0.000 A 
ATOM     16  C   UNL     1       3.809   4.621  19.125  0.00  0.00    +0.000 A 
ATOM     17  C   UNL     1       3.431   5.927  18.794  0.00  0.00    +0.000 A 
BRANCH  15  18
ATOM     18  N   UNL     1       3.555   2.593  20.549  0.00  0.00    +0.000 N 
ATOM     19  O   UNL     1       3.263   2.215  21.694  0.00  0.00    +0.000 OA
ATOM     20  O   UNL     1       4.200   1.928  19.728  0.00  0.00    +0.000 OA
ENDBRANCH  15  18
ENDBRANCH  10  12
BRANCH   5  21
ATOM     21  C   UNL     1      -1.403  12.568  21.948  0.00  0.00    +0.000 C 
ATOM     22  C   UNL     1      -2.624  12.627  21.019  0.00  0.00    +0.000 C 
ATOM     23  C   UNL     1      -1.803  13.304  23.255  0.00  0.00    +0.000 C 
ATOM     24  C   UNL     1      -0.192  13.333  21.394  0.00  0.00    +0.000 C 
ENDBRANCH   5  21
TORSDOF 3
ENDMDL
MODEL 2
REMARK VINA RESULT:      -6.8      0.988      1.066
REMARK  Name = 
REMARK  7 active torsions:
REMARK  status: ('A' for Active; 'I' for Inactive)
REMARK    1  A    between atoms: C_1  and  C_2
REMARK    2  A    between atoms: C_5  and  C_7
REMARK    3  A    between atoms: C_7  and  C_8
REMARK    4  A    between atoms: C_7  and  C_9
REMARK    5  A    between atoms: C_7  and  C_10
REMARK    6  A    between atoms: C_14  and  C_16
REMARK    7  A    between atoms: C_19  and  N_20
REMARK                            x       y       z     vdW  Elec       q    Type
REMARK                         _______ _______ _______ _____ _____    ______ ____
ROOT
ATOM      1  C   UNL     1       2.184   9.055  21.953  0.00  0.00    +0.000 C 
ATOM      2  C   UNL     1       1.282   8.367  20.929  0.00  0.00    +0.000 C 
ATOM      3  C   UNL     1      -0.222   8.550  21.248  0.00  0.00    +0.000 C 
ATOM      4  N   UNL     1      -0.653   9.934  20.998  0.00  0.00    +0.000 N 
ATOM      5  C   UNL     1      -0.996  10.711  22.094  0.00  0.00    +0.000 C 
ATOM      6  O   UNL     1      -1.000  10.197  23.220  0.00  0.00    +0.000 OA
ATOM      7  C   UNL     1      -0.401  10.356  19.611  0.00  0.00    +0.000 C 
ATOM      8  C   UNL     1       1.087  10.200  19.257  0.00  0.00    +0.000 C 
ATOM      9  N   UNL     1       1.548   8.830  19.539  0.00  0.00    +0.000 N 
ATOM     10  C   UNL     1       2.168   8.127  18.502  0.00  0.00    +0.000 C 
ATOM     11  O   UNL     1       2.445   8.652  17.424  0.00  0.00    +0.000 OA
ENDROOT
BRANCH  10  12
ATOM     12  C   UNL     1       2.534   6.691  18.655  0.00  0.00    +0.000 A 
ATOM     13  C   UNL     1       1.741   5.660  18.137  0.00  0.00    +0.000 A 
ATOM     14  C   UNL     1       2.062   4.325  18.386  0.00  0.00    +0.000 A 
ATOM     15  C   UNL     1       3.255   4.016  19.053  0.00  0.00    +0.000 A 
ATOM     16  C   UNL     1       4.122   5.039  19.464  0.00  0.00    +0.000 A 
ATOM     17  C   UNL     1       3.755   6.374  19.265  0.00  0.00    +0.000 A 
BRANCH  15  18
ATOM     18  N   UNL     1       3.601   2.608  19.304  0.00  0.00    +0.000 N 
ATOM     19  O   UNL     1       4.659   2.376  19.907  0.00  0.00    +0.000 OA
ATOM     20  O   UNL     1       2.831   1.742  18.869  0.00  0.00    +0.000 OA
ENDBRANCH  15  18
ENDBRANCH  10  12
BRANCH   5  21
ATOM     21  C   UNL     1      -1.380  12.205  21.949  0.00  0.00    +0.000 C 
ATOM     22  C   UNL     1      -2.445  12.398  20.860  0.00  0.00    +0.000 C 
ATOM     23  C   UNL     1      -2.020  12.672  23.284  0.00  0.00    +0.000 C 
ATOM     24  C   UNL     1      -0.147  13.097  21.744  0.00  0.00    +0.000 C 
ENDBRANCH   5  21
TORSDOF 3
ENDMDL
MODEL 3
REMARK VINA RESULT:      -6.6      0.999      1.443
REMARK  Name = 
REMARK  7 active torsions:
REMARK  status: ('A' for Active; 'I' for Inactive)
REMARK    1  A    between atoms: C_1  and  C_2
REMARK    2  A    between atoms: C_5  and  C_7
REMARK    3  A    between atoms: C_7  and  C_8
REMARK    4  A    between atoms: C_7  and  C_9
REMARK    5  A    between atoms: C_7  and  C_10
REMARK    6  A    between atoms: C_14  and  C_16
REMARK    7  A    between atoms: C_19  and  N_20
REMARK                            x       y       z     vdW  Elec       q    Type
REMARK                         _______ _______ _______ _____ _____    ______ ____
ROOT
ATOM      1  C   UNL     1       2.189   9.018  21.978  0.00  0.00    +0.000 C 
ATOM      2  C   UNL     1       1.287   8.335  20.950  0.00  0.00    +0.000 C 
ATOM      3  C   UNL     1      -0.217   8.506  21.276  0.00  0.00    +0.000 C 
ATOM      4  N   UNL     1      -0.656   9.890  21.040  0.00  0.00    +0.000 N 
ATOM      5  C   UNL     1      -0.999  10.656  22.144  0.00  0.00    +0.000 C 
ATOM      6  O   UNL     1      -0.998  10.132  23.265  0.00  0.00    +0.000 OA
ATOM      7  C   UNL     1      -0.411  10.326  19.655  0.00  0.00    +0.000 C 
ATOM      8  C   UNL     1       1.078  10.181  19.295  0.00  0.00    +0.000 C 
ATOM      9  N   UNL     1       1.547   8.811  19.564  0.00  0.00    +0.000 N 
ATOM     10  C   UNL     1       2.167   8.121  18.519  0.00  0.00    +0.000 C 
ATOM     11  O   UNL     1       2.438   8.657  17.445  0.00  0.00    +0.000 OA
ENDROOT
BRANCH  10  12
ATOM     12  C   UNL     1       2.541   6.686  18.658  0.00  0.00    +0.000 A 
ATOM     13  C   UNL     1       1.738   5.654  18.157  0.00  0.00    +0.000 A 
ATOM     14  C   UNL     1       2.070   4.320  18.394  0.00  0.00    +0.000 A 
ATOM     15  C   UNL     1       3.281   4.012  19.029  0.00  0.00    +0.000 A 
ATOM     16  C   UNL     1       4.154   5.037  19.421  0.00  0.00    +0.000 A 
ATOM     17  C   UNL     1       3.778   6.371  19.235  0.00  0.00    +0.000 A 
BRANCH  15  18
ATOM     18  N   UNL     1       3.637   2.605  19.267  0.00  0.00    +0.000 N 
ATOM     19  O   UNL     1       2.879   1.736  18.808  0.00  0.00    +0.000 OA
ATOM     20  O   UNL     1       4.652   2.374  19.936  0.00  0.00    +0.000 OA
ENDBRANCH  15  18
ENDBRANCH  10  12
BRANCH   5  21
ATOM     21  C   UNL     1      -1.392  12.149  22.013  0.00  0.00    +0.000 C 
ATOM     22  C   UNL     1      -0.159  13.024  21.748  0.00  0.00    +0.000 C 
ATOM     23  C   UNL     1      -2.318  12.299  20.775  0.00  0.00    +0.000 C 
ATOM     24  C   UNL     1      -2.221  12.631  23.213  0.00  0.00    +0.000 C 
ENDBRANCH   5  21
TORSDOF 3
ENDMDL
MODEL 4
REMARK VINA RESULT:      -6.5      3.352      4.590
REMARK  Name = 
REMARK  7 active torsions:
REMARK  status: ('A' for Active; 'I' for Inactive)
REMARK    1  A    between atoms: C_1  and  C_2
REMARK    2  A    between atoms: C_5  and  C_7
REMARK    3  A    between atoms: C_7  and  C_8
REMARK    4  A    between atoms: C_7  and  C_9
REMARK    5  A    between atoms: C_7  and  C_10
REMARK    6  A    between atoms: C_14  and  C_16
REMARK    7  A    between atoms: C_19  and  N_20
REMARK                            x       y       z     vdW  Elec       q    Type
REMARK                         _______ _______ _______ _____ _____    ______ ____
ROOT
ATOM      1  C   UNL     1       2.602  13.152  18.043  0.00  0.00    +0.000 C 
ATOM      2  C   UNL     1       1.855  12.463  19.186  0.00  0.00    +0.000 C 
ATOM      3  C   UNL     1       1.781  13.341  20.458  0.00  0.00    +0.000 C 
ATOM      4  N   UNL     1       0.859  14.472  20.270  0.00  0.00    +0.000 N 
ATOM      5  C   UNL     1       1.403  15.746  20.213  0.00  0.00    +0.000 C 
ATOM      6  O   UNL     1       2.618  15.891  20.399  0.00  0.00    +0.000 OA
ATOM      7  C   UNL     1      -0.499  14.033  19.908  0.00  0.00    +0.000 C 
ATOM      8  C   UNL     1      -0.469  13.164  18.639  0.00  0.00    +0.000 C 
ATOM      9  N   UNL     1       0.479  12.049  18.794  0.00  0.00    +0.000 N 
ATOM     10  C   UNL     1       0.002  10.755  18.566  0.00  0.00    +0.000 C 
ATOM     11  O   UNL     1      -1.127  10.537  18.128  0.00  0.00    +0.000 OA
ENDROOT
BRANCH  10  12
ATOM     12  C   UNL     1       0.851   9.561  18.838  0.00  0.00    +0.000 A 
ATOM     13  C   UNL     1       1.660   8.981  17.854  0.00  0.00    +0.000 A 
ATOM     14  C   UNL     1       2.364   7.805  18.118  0.00  0.00    +0.000 A 
ATOM     15  C   UNL     1       2.356   7.273  19.415  0.00  0.00    +0.000 A 
ATOM     16  C   UNL     1       1.651   7.919  20.440  0.00  0.00    +0.000 A 
ATOM     17  C   UNL     1       0.898   9.060  20.146  0.00  0.00    +0.000 A 
BRANCH  15  18
ATOM     18  N   UNL     1       3.109   6.041  19.695  0.00  0.00    +0.000 N 
ATOM     19  O   UNL     1       2.649   5.271  20.552  0.00  0.00    +0.000 OA
ATOM     20  O   UNL     1       4.170   5.864  19.083  0.00  0.00    +0.000 OA
ENDBRANCH  15  18
ENDBRANCH  10  12
BRANCH   5  21
ATOM     21  C   UNL     1       0.532  16.996  19.932  0.00  0.00    +0.000 C 
ATOM     22  C   UNL     1      -0.508  17.205  21.041  0.00  0.00    +0.000 C 
ATOM     23  C   UNL     1       1.456  18.244  19.949  0.00  0.00    +0.000 C 
ATOM     24  C   UNL     1      -0.090  16.957  18.529  0.00  0.00    +0.000 C 
ENDBRANCH   5  21
TORSDOF 3
ENDMDL
MODEL 5
REMARK VINA RESULT:      -6.5      0.542      1.015
REMARK  Name = 
REMARK  7 active torsions:
REMARK  status: ('A' for Active; 'I' for Inactive)
REMARK    1  A    between atoms: C_1  and  C_2
REMARK    2  A    between atoms: C_5  and  C_7
REMARK    3  A    between atoms: C_7  and  C_8
REMARK    4  A    between atoms: C_7  and  C_9
REMARK    5  A    between atoms: C_7  and  C_10
REMARK    6  A    between atoms: C_14  and  C_16
REMARK    7  A    between atoms: C_19  and  N_20
REMARK                            x       y       z     vdW  Elec       q    Type
REMARK                         _______ _______ _______ _____ _____    ______ ____
ROOT
ATOM      1  C   UNL     1       2.088   9.218  22.288  0.00  0.00    +0.000 C 
ATOM      2  C   UNL     1       1.145   8.528  21.302  0.00  0.00    +0.000 C 
ATOM      3  C   UNL     1      -0.345   8.824  21.604  0.00  0.00    +0.000 C 
ATOM      4  N   UNL     1      -0.688  10.214  21.269  0.00  0.00    +0.000 N 
ATOM      5  C   UNL     1      -0.981  11.077  22.315  0.00  0.00    +0.000 C 
ATOM      6  O   UNL     1      -1.019  10.632  23.469  0.00  0.00    +0.000 OA
ATOM      7  C   UNL     1      -0.409  10.536  19.860  0.00  0.00    +0.000 C 
ATOM      8  C   UNL     1       1.067  10.266  19.523  0.00  0.00    +0.000 C 
ATOM      9  N   UNL     1       1.441   8.889  19.889  0.00  0.00    +0.000 N 
ATOM     10  C   UNL     1       2.016   8.088  18.898  0.00  0.00    +0.000 C 
ATOM     11  O   UNL     1       2.326   8.528  17.792  0.00  0.00    +0.000 OA
ENDROOT
BRANCH  10  12
ATOM     12  C   UNL     1       2.291   6.643  19.139  0.00  0.00    +0.000 A 
ATOM     13  C   UNL     1       1.964   6.013  20.346  0.00  0.00    +0.000 A 
ATOM     14  C   UNL     1       2.327   4.685  20.572  0.00  0.00    +0.000 A 
ATOM     15  C   UNL     1       2.911   3.943  19.536  0.00  0.00    +0.000 A 
ATOM     16  C   UNL     1       3.126   4.529  18.281  0.00  0.00    +0.000 A 
ATOM     17  C   UNL     1       2.817   5.880  18.089  0.00  0.00    +0.000 A 
BRANCH  15  18
ATOM     18  N   UNL     1       3.282   2.539  19.771  0.00  0.00    +0.000 N 
ATOM     19  O   UNL     1       3.719   2.241  20.893  0.00  0.00    +0.000 OA
ATOM     20  O   UNL     1       3.165   1.749  18.826  0.00  0.00    +0.000 OA
ENDBRANCH  15  18
ENDBRANCH  10  12
BRANCH   5  21
ATOM     21  C   UNL     1      -1.271  12.580  22.079  0.00  0.00    +0.000 C 
ATOM     22  C   UNL     1      -1.672  13.278  23.386  0.00  0.00    +0.000 C 
ATOM     23  C   UNL     1       0.042  13.256  21.599  0.00  0.00    +0.000 C 
ATOM     24  C   UNL     1      -2.288  12.797  20.949  0.00  0.00    +0.000 C 
ENDBRANCH   5  21
TORSDOF 3
ENDMDL
MODEL 6
REMARK VINA RESULT:      -6.5      0.570      1.212
REMARK  Name = 
REMARK  7 active torsions:
REMARK  status: ('A' for Active; 'I' for Inactive)
REMARK    1  A    between atoms: C_1  and  C_2
REMARK    2  A    between atoms: C_5  and  C_7
REMARK    3  A    between atoms: C_7  and  C_8
REMARK    4  A    between atoms: C_7  and  C_9
REMARK    5  A    between atoms: C_7  and  C_10
REMARK    6  A    between atoms: C_14  and  C_16
REMARK    7  A    between atoms: C_19  and  N_20
REMARK                            x       y       z     vdW  Elec       q    Type
REMARK                         _______ _______ _______ _____ _____    ______ ____
ROOT
ATOM      1  C   UNL     1       2.104   9.310  22.251  0.00  0.00    +0.000 C 
ATOM      2  C   UNL     1       1.174   8.591  21.273  0.00  0.00    +0.000 C 
ATOM      3  C   UNL     1      -0.321   8.840  21.588  0.00  0.00    +0.000 C 
ATOM      4  N   UNL     1      -0.710  10.220  21.257  0.00  0.00    +0.000 N 
ATOM      5  C   UNL     1      -1.022  11.072  22.306  0.00  0.00    +0.000 C 
ATOM      6  O   UNL     1      -1.035  10.627  23.460  0.00  0.00    +0.000 OA
ATOM      7  C   UNL     1      -0.454  10.550  19.845  0.00  0.00    +0.000 C 
ATOM      8  C   UNL     1       1.027  10.326  19.495  0.00  0.00    +0.000 C 
ATOM      9  N   UNL     1       1.446   8.961  19.857  0.00  0.00    +0.000 N 
ATOM     10  C   UNL     1       2.037   8.178  18.862  0.00  0.00    +0.000 C 
ATOM     11  O   UNL     1       2.323   8.628  17.753  0.00  0.00    +0.000 OA
ENDROOT
BRANCH  10  12
ATOM     12  C   UNL     1       2.359   6.743  19.099  0.00  0.00    +0.000 A 
ATOM     13  C   UNL     1       3.131   5.994  18.203  0.00  0.00    +0.000 A 
ATOM     14  C   UNL     1       3.328   4.628  18.407  0.00  0.00    +0.000 A 
ATOM     15  C   UNL     1       2.853   4.031  19.584  0.00  0.00    +0.000 A 
ATOM     16  C   UNL     1       2.189   4.801  20.549  0.00  0.00    +0.000 A 
ATOM     17  C   UNL     1       1.942   6.155  20.301  0.00  0.00    +0.000 A 
BRANCH  15  18
ATOM     18  N   UNL     1       3.073   2.593  19.805  0.00  0.00    +0.000 N 
ATOM     19  O   UNL     1       2.572   1.804  18.989  0.00  0.00    +0.000 OA
ATOM     20  O   UNL     1       3.715   2.259  20.809  0.00  0.00    +0.000 OA
ENDBRANCH  15  18
ENDBRANCH  10  12
BRANCH   5  21
ATOM     21  C   UNL     1      -1.360  12.566  22.072  0.00  0.00    +0.000 C 
ATOM     22  C   UNL     1      -2.539  12.720  21.102  0.00  0.00    +0.000 C 
ATOM     23  C   UNL     1      -1.815  13.176  23.426  0.00  0.00    +0.000 C 
ATOM     24  C   UNL     1      -0.125  13.373  21.646  0.00  0.00    +0.000 C 
ENDBRANCH   5  21
TORSDOF 3
ENDMDL
MODEL 7
REMARK VINA RESULT:      -6.4      0.667      1.489
REMARK  Name = 
REMARK  7 active torsions:
REMARK  status: ('A' for Active; 'I' for Inactive)
REMARK    1  A    between atoms: C_1  and  C_2
REMARK    2  A    between atoms: C_5  and  C_7
REMARK    3  A    between atoms: C_7  and  C_8
REMARK    4  A    between atoms: C_7  and  C_9
REMARK    5  A    between atoms: C_7  and  C_10
REMARK    6  A    between atoms: C_14  and  C_16
REMARK    7  A    between atoms: C_19  and  N_20
REMARK                            x       y       z     vdW  Elec       q    Type
REMARK                         _______ _______ _______ _____ _____    ______ ____
ROOT
ATOM      1  C   UNL     1       2.095   9.229  22.223  0.00  0.00    +0.000 C 
ATOM      2  C   UNL     1       1.161   8.556  21.218  0.00  0.00    +0.000 C 
ATOM      3  C   UNL     1      -0.332   8.827  21.525  0.00  0.00    +0.000 C 
ATOM      4  N   UNL     1      -0.690  10.222  21.228  0.00  0.00    +0.000 N 
ATOM      5  C   UNL     1      -0.994  11.053  22.296  0.00  0.00    +0.000 C 
ATOM      6  O   UNL     1      -1.028  10.577  23.438  0.00  0.00    +0.000 OA
ATOM      7  C   UNL     1      -0.413  10.585  19.828  0.00  0.00    +0.000 C 
ATOM      8  C   UNL     1       1.067  10.340  19.486  0.00  0.00    +0.000 C 
ATOM      9  N   UNL     1       1.455   8.958  19.815  0.00  0.00    +0.000 N 
ATOM     10  C   UNL     1       2.040   8.190  18.804  0.00  0.00    +0.000 C 
ATOM     11  O   UNL     1       2.346   8.664  17.711  0.00  0.00    +0.000 OA
ENDROOT
BRANCH  10  12
ATOM     12  C   UNL     1       2.330   6.743  19.006  0.00  0.00    +0.000 A 
ATOM     13  C   UNL     1       3.034   5.985  18.062  0.00  0.00    +0.000 A 
ATOM     14  C   UNL     1       3.200   4.611  18.238  0.00  0.00    +0.000 A 
ATOM     15  C   UNL     1       2.767   4.011  19.429  0.00  0.00    +0.000 A 
ATOM     16  C   UNL     1       2.176   4.785  20.437  0.00  0.00    +0.000 A 
ATOM     17  C   UNL     1       1.957   6.149  20.219  0.00  0.00    +0.000 A 
BRANCH  15  18
ATOM     18  N   UNL     1       2.955   2.564  19.619  0.00  0.00    +0.000 N 
ATOM     19  O   UNL     1       4.067   2.176  20.007  0.00  0.00    +0.000 OA
ATOM     20  O   UNL     1       2.001   1.822  19.351  0.00  0.00    +0.000 OA
ENDBRANCH  15  18
ENDBRANCH  10  12
BRANCH   5  21
ATOM     21  C   UNL     1      -1.300  12.559  22.100  0.00  0.00    +0.000 C 
ATOM     22  C   UNL     1      -1.726  13.213  23.422  0.00  0.00    +0.000 C 
ATOM     23  C   UNL     1       0.010  13.265  21.656  0.00  0.00    +0.000 C 
ATOM     24  C   UNL     1      -2.306  12.796  20.964  0.00  0.00    +0.000 C 
ENDBRANCH   5  21
TORSDOF 3
ENDMDL
MODEL 8
REMARK VINA RESULT:      -6.3      3.344      4.671
REMARK  Name = 
REMARK  7 active torsions:
REMARK  status: ('A' for Active; 'I' for Inactive)
REMARK    1  A    between atoms: C_1  and  C_2
REMARK    2  A    between atoms: C_5  and  C_7
REMARK    3  A    between atoms: C_7  and  C_8
REMARK    4  A    between atoms: C_7  and  C_9
REMARK    5  A    between atoms: C_7  and  C_10
REMARK    6  A    between atoms: C_14  and  C_16
REMARK    7  A    between atoms: C_19  and  N_20
REMARK                            x       y       z     vdW  Elec       q    Type
REMARK                         _______ _______ _______ _____ _____    ______ ____
ROOT
ATOM      1  C   UNL     1       2.616  13.161  18.068  0.00  0.00    +0.000 C 
ATOM      2  C   UNL     1       1.861  12.470  19.203  0.00  0.00    +0.000 C 
ATOM      3  C   UNL     1       1.782  13.345  20.478  0.00  0.00    +0.000 C 
ATOM      4  N   UNL     1       0.864  14.478  20.287  0.00  0.00    +0.000 N 
ATOM      5  C   UNL     1       1.411  15.752  20.238  0.00  0.00    +0.000 C 
ATOM      6  O   UNL     1       2.626  15.893  20.431  0.00  0.00    +0.000 OA
ATOM      7  C   UNL     1      -0.493  14.044  19.917  0.00  0.00    +0.000 C 
ATOM      8  C   UNL     1      -0.458  13.179  18.645  0.00  0.00    +0.000 C 
ATOM      9  N   UNL     1       0.487  12.060  18.803  0.00  0.00    +0.000 N 
ATOM     10  C   UNL     1       0.008  10.769  18.567  0.00  0.00    +0.000 C 
ATOM     11  O   UNL     1      -1.119  10.554  18.122  0.00  0.00    +0.000 OA
ENDROOT
BRANCH  10  12
ATOM     12  C   UNL     1       0.852   9.572  18.841  0.00  0.00    +0.000 A 
ATOM     13  C   UNL     1       1.659   8.988  17.858  0.00  0.00    +0.000 A 
ATOM     14  C   UNL     1       2.358   7.809  18.123  0.00  0.00    +0.000 A 
ATOM     15  C   UNL     1       2.349   7.279  19.420  0.00  0.00    +0.000 A 
ATOM     16  C   UNL     1       1.647   7.929  20.445  0.00  0.00    +0.000 A 
ATOM     17  C   UNL     1       0.898   9.073  20.150  0.00  0.00    +0.000 A 
BRANCH  15  18
ATOM     18  N   UNL     1       3.097   6.044  19.702  0.00  0.00    +0.000 N 
ATOM     19  O   UNL     1       4.167   5.871  19.098  0.00  0.00    +0.000 OA
ATOM     20  O   UNL     1       2.598   5.240  20.500  0.00  0.00    +0.000 OA
ENDBRANCH  15  18
ENDBRANCH  10  12
BRANCH   5  21
ATOM     21  C   UNL     1       0.545  17.004  19.956  0.00  0.00    +0.000 C 
ATOM     22  C   UNL     1       1.391  18.284  20.004  0.00  0.00    +0.000 C 
ATOM     23  C   UNL     1      -0.011  16.893  18.510  0.00  0.00    +0.000 C 
ATOM     24  C   UNL     1      -0.687  17.067  20.871  0.00  0.00    +0.000 C 
ENDBRANCH   5  21
TORSDOF 3
ENDMDL
MODEL 9
REMARK VINA RESULT:      -6.3      2.463      3.565
REMARK  Name = 
REMARK  7 active torsions:
REMARK  status: ('A' for Active; 'I' for Inactive)
REMARK    1  A    between atoms: C_1  and  C_2
REMARK    2  A    between atoms: C_5  and  C_7
REMARK    3  A    between atoms: C_7  and  C_8
REMARK    4  A    between atoms: C_7  and  C_9
REMARK    5  A    between atoms: C_7  and  C_10
REMARK    6  A    between atoms: C_14  and  C_16
REMARK    7  A    between atoms: C_19  and  N_20
REMARK                            x       y       z     vdW  Elec       q    Type
REMARK                         _______ _______ _______ _____ _____    ______ ____
ROOT
ATOM      1  C   UNL     1      -1.063  10.242  18.847  0.00  0.00    +0.000 C 
ATOM      2  C   UNL     1       0.447  10.178  19.084  0.00  0.00    +0.000 C 
ATOM      3  C   UNL     1       1.173  11.463  18.617  0.00  0.00    +0.000 C 
ATOM      4  N   UNL     1       0.878  12.593  19.511  0.00  0.00    +0.000 N 
ATOM      5  C   UNL     1       0.108  13.630  19.007  0.00  0.00    +0.000 C 
ATOM      6  O   UNL     1      -0.234  13.604  17.818  0.00  0.00    +0.000 OA
ATOM      7  C   UNL     1       1.246  12.313  20.908  0.00  0.00    +0.000 C 
ATOM      8  C   UNL     1       0.534  11.047  21.414  0.00  0.00    +0.000 C 
ATOM      9  N   UNL     1       0.785   9.912  20.509  0.00  0.00    +0.000 N 
ATOM     10  C   UNL     1       1.301   8.739  21.067  0.00  0.00    +0.000 C 
ATOM     11  O   UNL     1       1.431   8.589  22.281  0.00  0.00    +0.000 OA
ENDROOT
BRANCH  10  12
ATOM     12  C   UNL     1       1.719   7.596  20.208  0.00  0.00    +0.000 A 
ATOM     13  C   UNL     1       2.295   7.784  18.946  0.00  0.00    +0.000 A 
ATOM     14  C   UNL     1       2.581   6.690  18.127  0.00  0.00    +0.000 A 
ATOM     15  C   UNL     1       2.405   5.392  18.626  0.00  0.00    +0.000 A 
ATOM     16  C   UNL     1       1.949   5.193  19.936  0.00  0.00    +0.000 A 
ATOM     17  C   UNL     1       1.605   6.298  20.721  0.00  0.00    +0.000 A 
BRANCH  15  18
ATOM     18  N   UNL     1       2.720   4.239  17.767  0.00  0.00    +0.000 N 
ATOM     19  O   UNL     1       3.912   3.914  17.658  0.00  0.00    +0.000 OA
ATOM     20  O   UNL     1       1.780   3.685  17.183  0.00  0.00    +0.000 OA
ENDBRANCH  15  18
ENDBRANCH  10  12
BRANCH   5  21
ATOM     21  C   UNL     1      -0.332  14.826  19.889  0.00  0.00    +0.000 C 
ATOM     22  C   UNL     1       0.811  15.287  20.803  0.00  0.00    +0.000 C 
ATOM     23  C   UNL     1      -0.664  16.020  18.954  0.00  0.00    +0.000 C 
ATOM     24  C   UNL     1      -1.628  14.526  20.656  0.00  0.00    +0.000 C 
ENDBRANCH   5  21
TORSDOF 3
ENDMDL
