MODEL 1
REMARK VINA RESULT:      -7.5      0.000      0.000
REMARK  Name = 
REMARK  6 active torsions:
REMARK  status: ('A' for Active; 'I' for Inactive)
REMARK    1  A    between atoms: C_1  and  C_2
REMARK    2  A    between atoms: C_3  and  C_4
REMARK    3  A    between atoms: C_10  and  C_11
REMARK    4  A    between atoms: C_14  and  C_15
REMARK    5  A    between atoms: C_17  and  C_18
REMARK    6  A    between atoms: C_17  and  C_19
REMARK                            x       y       z     vdW  Elec       q    Type
REMARK                         _______ _______ _______ _____ _____    ______ ____
ROOT
ATOM      1  C   UNL     1       4.972   6.050  16.302  0.00  0.00    +0.000 C 
ATOM      2  O   UNL     1       5.091   7.178  15.825  0.00  0.00    +0.000 OA
ATOM      3  N   UNL     1       4.240   5.708  17.478  0.00  0.00    +0.000 N 
ATOM      4  C   UNL     1       3.341   6.691  18.119  0.00  0.00    +0.000 A 
ATOM      5  C   UNL     1       3.073   7.946  17.537  0.00  0.00    +0.000 A 
ATOM      6  C   UNL     1       2.228   8.899  18.129  0.00  0.00    +0.000 A 
ATOM      7  C   UNL     1       1.601   8.627  19.331  0.00  0.00    +0.000 A 
ATOM      8  C   UNL     1       0.687   9.616  19.989  0.00  0.00    +0.000 C 
ATOM      9  C   UNL     1       1.826   7.383  19.922  0.00  0.00    +0.000 A 
ATOM     10  C   UNL     1       2.671   6.405  19.340  0.00  0.00    +0.000 A 
ATOM     11  C   UNL     1       2.829   5.110  20.014  0.00  0.00    +0.000 C 
ATOM     12  C   UNL     1       2.150   4.707  21.292  0.00  0.00    +0.000 C 
ATOM     13  C   UNL     1       3.613   4.212  19.419  0.00  0.00    +0.000 C 
ATOM     14  C   UNL     1       4.358   4.353  18.115  0.00  0.00    +0.000 C 
ATOM     15  C   UNL     1       3.687   3.262  17.244  0.00  0.00    +0.000 C 
ATOM     16  C   UNL     1       5.819   4.060  18.549  0.00  0.00    +0.000 C 
ENDROOT
BRANCH   1  19
ATOM     17  C   UNL     1       6.286   3.641  13.553  0.00  0.00    +0.000 C 
ATOM     18  C   UNL     1       5.560   4.768  14.221  0.00  0.00    +0.000 C 
ATOM     19  C   UNL     1       5.670   4.960  15.543  0.00  0.00    +0.000 C 
ENDBRANCH   1  19
TORSDOF 1
ENDMDL
MODEL 2
REMARK VINA RESULT:      -7.4      1.078      1.237
REMARK  Name = 
REMARK  6 active torsions:
REMARK  status: ('A' for Active; 'I' for Inactive)
REMARK    1  A    between atoms: C_1  and  C_2
REMARK    2  A    between atoms: C_3  and  C_4
REMARK    3  A    between atoms: C_10  and  C_11
REMARK    4  A    between atoms: C_14  and  C_15
REMARK    5  A    between atoms: C_17  and  C_18
REMARK    6  A    between atoms: C_17  and  C_19
REMARK                            x       y       z     vdW  Elec       q    Type
REMARK                         _______ _______ _______ _____ _____    ______ ____
ROOT
ATOM      1  C   UNL     1       4.448   5.590  16.991  0.00  0.00    +0.000 C 
ATOM      2  O   UNL     1       4.689   6.782  16.794  0.00  0.00    +0.000 OA
ATOM      3  N   UNL     1       3.669   5.057  18.060  0.00  0.00    +0.000 N 
ATOM      4  C   UNL     1       2.866   5.946  18.926  0.00  0.00    +0.000 A 
ATOM      5  C   UNL     1       2.736   7.324  18.662  0.00  0.00    +0.000 A 
ATOM      6  C   UNL     1       1.985   8.191  19.471  0.00  0.00    +0.000 A 
ATOM      7  C   UNL     1       1.317   7.708  20.582  0.00  0.00    +0.000 A 
ATOM      8  C   UNL     1       0.500   8.602  21.466  0.00  0.00    +0.000 C 
ATOM      9  C   UNL     1       1.405   6.343  20.857  0.00  0.00    +0.000 A 
ATOM     10  C   UNL     1       2.154   5.449  20.051  0.00  0.00    +0.000 A 
ATOM     11  C   UNL     1       2.169   4.023  20.397  0.00  0.00    +0.000 C 
ATOM     12  C   UNL     1       1.434   3.400  21.550  0.00  0.00    +0.000 C 
ATOM     13  C   UNL     1       2.864   3.216  19.598  0.00  0.00    +0.000 C 
ATOM     14  C   UNL     1       3.639   3.584  18.356  0.00  0.00    +0.000 C 
ATOM     15  C   UNL     1       2.871   2.806  17.258  0.00  0.00    +0.000 C 
ATOM     16  C   UNL     1       5.056   3.048  18.693  0.00  0.00    +0.000 C 
ENDROOT
BRANCH   1  19
ATOM     17  C   UNL     1       6.119   4.001  13.866  0.00  0.00    +0.000 C 
ATOM     18  C   UNL     1       5.562   5.021  14.810  0.00  0.00    +0.000 C 
ATOM     19  C   UNL     1       5.042   4.646  15.988  0.00  0.00    +0.000 C 
ENDBRANCH   1  19
TORSDOF 1
ENDMDL
MODEL 3
REMARK VINA RESULT:      -7.2      1.605      5.568
REMARK  Name = 
REMARK  6 active torsions:
REMARK  status: ('A' for Active; 'I' for Inactive)
REMARK    1  A    between atoms: C_1  and  C_2
REMARK    2  A    between atoms: C_3  and  C_4
REMARK    3  A    between atoms: C_10  and  C_11
REMARK    4  A    between atoms: C_14  and  C_15
REMARK    5  A    between atoms: C_17  and  C_18
REMARK    6  A    between atoms: C_17  and  C_19
REMARK                            x       y       z     vdW  Elec       q    Type
REMARK                         _______ _______ _______ _____ _____    ______ ____
ROOT
ATOM      1  C   UNL     1       2.343   7.035  19.355  0.00  0.00    +0.000 C 
ATOM      2  O   UNL     1       2.557   7.996  18.616  0.00  0.00    +0.000 OA
ATOM      3  N   UNL     1       2.711   5.682  19.101  0.00  0.00    +0.000 N 
ATOM      4  C   UNL     1       3.618   5.344  17.984  0.00  0.00    +0.000 A 
ATOM      5  C   UNL     1       4.251   6.337  17.211  0.00  0.00    +0.000 A 
ATOM      6  C   UNL     1       5.112   6.043  16.142  0.00  0.00    +0.000 A 
ATOM      7  C   UNL     1       5.388   4.730  15.808  0.00  0.00    +0.000 A 
ATOM      8  C   UNL     1       6.308   4.377  14.677  0.00  0.00    +0.000 C 
ATOM      9  C   UNL     1       4.797   3.721  16.569  0.00  0.00    +0.000 A 
ATOM     10  C   UNL     1       3.929   3.996  17.656  0.00  0.00    +0.000 A 
ATOM     11  C   UNL     1       3.373   2.874  18.422  0.00  0.00    +0.000 C 
ATOM     12  C   UNL     1       3.656   1.421  18.166  0.00  0.00    +0.000 C 
ATOM     13  C   UNL     1       2.582   3.179  19.450  0.00  0.00    +0.000 C 
ATOM     14  C   UNL     1       2.190   4.550  19.941  0.00  0.00    +0.000 C 
ATOM     15  C   UNL     1       2.812   4.572  21.360  0.00  0.00    +0.000 C 
ATOM     16  C   UNL     1       0.640   4.477  19.889  0.00  0.00    +0.000 C 
ENDROOT
BRANCH   1  19
ATOM     17  C   UNL     1       0.432   8.800  22.241  0.00  0.00    +0.000 C 
ATOM     18  C   UNL     1       1.111   8.564  20.926  0.00  0.00    +0.000 C 
ATOM     19  C   UNL     1       1.632   7.363  20.635  0.00  0.00    +0.000 C 
ENDBRANCH   1  19
TORSDOF 1
ENDMDL
MODEL 4
REMARK VINA RESULT:      -7.2      1.750      3.856
REMARK  Name = 
REMARK  6 active torsions:
REMARK  status: ('A' for Active; 'I' for Inactive)
REMARK    1  A    between atoms: C_1  and  C_2
REMARK    2  A    between atoms: C_3  and  C_4
REMARK    3  A    between atoms: C_10  and  C_11
REMARK    4  A    between atoms: C_14  and  C_15
REMARK    5  A    between atoms: C_17  and  C_18
REMARK    6  A    between atoms: C_17  and  C_19
REMARK                            x       y       z     vdW  Elec       q    Type
REMARK                         _______ _______ _______ _____ _____    ______ ____
ROOT
ATOM      1  C   UNL     1       5.771   4.170  15.754  0.00  0.00    +0.000 C 
ATOM      2  O   UNL     1       5.610   2.966  15.557  0.00  0.00    +0.000 OA
ATOM      3  N   UNL     1       4.974   4.997  16.600  0.00  0.00    +0.000 N 
ATOM      4  C   UNL     1       3.986   4.400  17.524  0.00  0.00    +0.000 A 
ATOM      5  C   UNL     1       3.876   3.007  17.699  0.00  0.00    +0.000 A 
ATOM      6  C   UNL     1       2.943   2.415  18.565  0.00  0.00    +0.000 A 
ATOM      7  C   UNL     1       2.081   3.202  19.307  0.00  0.00    +0.000 A 
ATOM      8  C   UNL     1       1.076   2.607  20.247  0.00  0.00    +0.000 C 
ATOM      9  C   UNL     1       2.180   4.587  19.175  0.00  0.00    +0.000 A 
ATOM     10  C   UNL     1       3.118   5.206  18.311  0.00  0.00    +0.000 A 
ATOM     11  C   UNL     1       3.174   6.671  18.255  0.00  0.00    +0.000 C 
ATOM     12  C   UNL     1       2.316   7.606  19.060  0.00  0.00    +0.000 C 
ATOM     13  C   UNL     1       4.088   7.209  17.448  0.00  0.00    +0.000 C 
ATOM     14  C   UNL     1       5.095   6.494  16.583  0.00  0.00    +0.000 C 
ATOM     15  C   UNL     1       6.437   6.957  17.205  0.00  0.00    +0.000 C 
ATOM     16  C   UNL     1       4.774   7.069  15.177  0.00  0.00    +0.000 C 
ENDROOT
BRANCH   1  19
ATOM     17  C   UNL     1       8.246   5.452  13.048  0.00  0.00    +0.000 C 
ATOM     18  C   UNL     1       7.043   4.827  13.688  0.00  0.00    +0.000 C 
ATOM     19  C   UNL     1       6.927   4.786  15.023  0.00  0.00    +0.000 C 
ENDBRANCH   1  19
TORSDOF 1
ENDMDL
MODEL 5
REMARK VINA RESULT:      -6.6      2.099      5.845
REMARK  Name = 
REMARK  6 active torsions:
REMARK  status: ('A' for Active; 'I' for Inactive)
REMARK    1  A    between atoms: C_1  and  C_2
REMARK    2  A    between atoms: C_3  and  C_4
REMARK    3  A    between atoms: C_10  and  C_11
REMARK    4  A    between atoms: C_14  and  C_15
REMARK    5  A    between atoms: C_17  and  C_18
REMARK    6  A    between atoms: C_17  and  C_19
REMARK                            x       y       z     vdW  Elec       q    Type
REMARK                         _______ _______ _______ _____ _____    ______ ____
ROOT
ATOM      1  C   UNL     1       3.012   3.735  17.248  0.00  0.00    +0.000 C 
ATOM      2  O   UNL     1       2.877   2.791  16.469  0.00  0.00    +0.000 OA
ATOM      3  N   UNL     1       4.082   4.677  17.249  0.00  0.00    +0.000 N 
ATOM      4  C   UNL     1       5.040   4.732  16.125  0.00  0.00    +0.000 A 
ATOM      5  C   UNL     1       4.869   3.955  14.962  0.00  0.00    +0.000 A 
ATOM      6  C   UNL     1       5.768   3.984  13.883  0.00  0.00    +0.000 A 
ATOM      7  C   UNL     1       6.877   4.809  13.919  0.00  0.00    +0.000 A 
ATOM      8  C   UNL     1       7.854   4.872  12.784  0.00  0.00    +0.000 C 
ATOM      9  C   UNL     1       7.063   5.609  15.047  0.00  0.00    +0.000 A 
ATOM     10  C   UNL     1       6.166   5.599  16.145  0.00  0.00    +0.000 A 
ATOM     11  C   UNL     1       6.422   6.495  17.279  0.00  0.00    +0.000 C 
ATOM     12  C   UNL     1       7.569   7.460  17.384  0.00  0.00    +0.000 C 
ATOM     13  C   UNL     1       5.540   6.471  18.277  0.00  0.00    +0.000 C 
ATOM     14  C   UNL     1       4.288   5.637  18.386  0.00  0.00    +0.000 C 
ATOM     15  C   UNL     1       3.182   6.723  18.411  0.00  0.00    +0.000 C 
ATOM     16  C   UNL     1       4.519   4.885  19.724  0.00  0.00    +0.000 C 
ENDROOT
BRANCH   1  19
ATOM     17  C   UNL     1       0.572   3.219  20.227  0.00  0.00    +0.000 C 
ATOM     18  C   UNL     1       1.695   3.000  19.260  0.00  0.00    +0.000 C 
ATOM     19  C   UNL     1       1.923   3.876  18.271  0.00  0.00    +0.000 C 
ENDBRANCH   1  19
TORSDOF 1
ENDMDL
MODEL 6
REMARK VINA RESULT:      -6.3      5.964      9.471
REMARK  Name = 
REMARK  6 active torsions:
REMARK  status: ('A' for Active; 'I' for Inactive)
REMARK    1  A    between atoms: C_1  and  C_2
REMARK    2  A    between atoms: C_3  and  C_4
REMARK    3  A    between atoms: C_10  and  C_11
REMARK    4  A    between atoms: C_14  and  C_15
REMARK    5  A    between atoms: C_17  and  C_18
REMARK    6  A    between atoms: C_17  and  C_19
REMARK                            x       y       z     vdW  Elec       q    Type
REMARK                         _______ _______ _______ _____ _____    ______ ____
ROOT
ATOM      1  C   UNL     1      -2.464  12.453  21.342  0.00  0.00    +0.000 C 
ATOM      2  O   UNL     1      -3.667  12.623  21.141  0.00  0.00    +0.000 OA
ATOM      3  N   UNL     1      -1.566  11.733  20.500  0.00  0.00    +0.000 N 
ATOM      4  C   UNL     1      -1.979  11.306  19.146  0.00  0.00    +0.000 A 
ATOM      5  C   UNL     1      -3.213  11.694  18.587  0.00  0.00    +0.000 A 
ATOM      6  C   UNL     1      -3.631  11.298  17.306  0.00  0.00    +0.000 A 
ATOM      7  C   UNL     1      -2.819  10.500  16.521  0.00  0.00    +0.000 A 
ATOM      8  C   UNL     1      -3.229  10.063  15.146  0.00  0.00    +0.000 C 
ATOM      9  C   UNL     1      -1.580  10.119  17.035  0.00  0.00    +0.000 A 
ATOM     10  C   UNL     1      -1.135  10.511  18.323  0.00  0.00    +0.000 A 
ATOM     11  C   UNL     1       0.196  10.089  18.774  0.00  0.00    +0.000 C 
ATOM     12  C   UNL     1       1.166   9.268  17.973  0.00  0.00    +0.000 C 
ATOM     13  C   UNL     1       0.582  10.502  19.981  0.00  0.00    +0.000 C 
ATOM     14  C   UNL     1      -0.179  11.371  20.950  0.00  0.00    +0.000 C 
ATOM     15  C   UNL     1       0.728  12.624  21.038  0.00  0.00    +0.000 C 
ATOM     16  C   UNL     1      -0.215  10.478  22.220  0.00  0.00    +0.000 C 
ENDROOT
BRANCH   1  19
ATOM     17  C   UNL     1      -1.444  14.928  24.156  0.00  0.00    +0.000 C 
ATOM     18  C   UNL     1      -2.021  14.389  22.883  0.00  0.00    +0.000 C 
ATOM     19  C   UNL     1      -1.932  13.083  22.595  0.00  0.00    +0.000 C 
ENDBRANCH   1  19
TORSDOF 1
ENDMDL
MODEL 7
REMARK VINA RESULT:      -5.8      7.717      9.807
REMARK  Name = 
REMARK  6 active torsions:
REMARK  status: ('A' for Active; 'I' for Inactive)
REMARK    1  A    between atoms: C_1  and  C_2
REMARK    2  A    between atoms: C_3  and  C_4
REMARK    3  A    between atoms: C_10  and  C_11
REMARK    4  A    between atoms: C_14  and  C_15
REMARK    5  A    between atoms: C_17  and  C_18
REMARK    6  A    between atoms: C_17  and  C_19
REMARK                            x       y       z     vdW  Elec       q    Type
REMARK                         _______ _______ _______ _____ _____    ______ ____
ROOT
ATOM      1  C   UNL     1      -3.875  11.677  17.770  0.00  0.00    +0.000 C 
ATOM      2  O   UNL     1      -5.052  11.951  17.532  0.00  0.00    +0.000 OA
ATOM      3  N   UNL     1      -3.187  11.925  18.994  0.00  0.00    +0.000 N 
ATOM      4  C   UNL     1      -3.926  12.343  20.204  0.00  0.00    +0.000 A 
ATOM      5  C   UNL     1      -5.334  12.393  20.237  0.00  0.00    +0.000 A 
ATOM      6  C   UNL     1      -6.060  12.792  21.371  0.00  0.00    +0.000 A 
ATOM      7  C   UNL     1      -5.400  13.148  22.534  0.00  0.00    +0.000 A 
ATOM      8  C   UNL     1      -6.141  13.573  23.766  0.00  0.00    +0.000 C 
ATOM      9  C   UNL     1      -4.007  13.086  22.542  0.00  0.00    +0.000 A 
ATOM     10  C   UNL     1      -3.254  12.682  21.410  0.00  0.00    +0.000 A 
ATOM     11  C   UNL     1      -1.792  12.617  21.516  0.00  0.00    +0.000 C 
ATOM     12  C   UNL     1      -0.993  12.934  22.748  0.00  0.00    +0.000 C 
ATOM     13  C   UNL     1      -1.127  12.208  20.436  0.00  0.00    +0.000 C 
ATOM     14  C   UNL     1      -1.695  11.784  19.104  0.00  0.00    +0.000 C 
ATOM     15  C   UNL     1      -1.265  10.297  19.032  0.00  0.00    +0.000 C 
ATOM     16  C   UNL     1      -0.965  12.742  18.126  0.00  0.00    +0.000 C 
ENDROOT
BRANCH   1  19
ATOM     17  C   UNL     1      -2.868  10.002  14.413  0.00  0.00    +0.000 C 
ATOM     18  C   UNL     1      -3.688  10.672  15.473  0.00  0.00    +0.000 C 
ATOM     19  C   UNL     1      -3.134  11.018  16.645  0.00  0.00    +0.000 C 
ENDBRANCH   1  19
TORSDOF 1
ENDMDL
MODEL 8
REMARK VINA RESULT:      -5.7      8.805     10.878
REMARK  Name = 
REMARK  6 active torsions:
REMARK  status: ('A' for Active; 'I' for Inactive)
REMARK    1  A    between atoms: C_1  and  C_2
REMARK    2  A    between atoms: C_3  and  C_4
REMARK    3  A    between atoms: C_10  and  C_11
REMARK    4  A    between atoms: C_14  and  C_15
REMARK    5  A    between atoms: C_17  and  C_18
REMARK    6  A    between atoms: C_17  and  C_19
REMARK                            x       y       z     vdW  Elec       q    Type
REMARK                         _______ _______ _______ _____ _____    ______ ____
ROOT
ATOM      1  C   UNL     1      -3.361  11.552  18.372  0.00  0.00    +0.000 C 
ATOM      2  O   UNL     1      -2.183  11.456  18.714  0.00  0.00    +0.000 OA
ATOM      3  N   UNL     1      -4.448  11.952  19.204  0.00  0.00    +0.000 N 
ATOM      4  C   UNL     1      -4.201  12.526  20.543  0.00  0.00    +0.000 A 
ATOM      5  C   UNL     1      -2.900  12.816  21.002  0.00  0.00    +0.000 A 
ATOM      6  C   UNL     1      -2.638  13.355  22.272  0.00  0.00    +0.000 A 
ATOM      7  C   UNL     1      -3.677  13.641  23.138  0.00  0.00    +0.000 A 
ATOM      8  C   UNL     1      -3.437  14.223  24.498  0.00  0.00    +0.000 C 
ATOM      9  C   UNL     1      -4.979  13.388  22.706  0.00  0.00    +0.000 A 
ATOM     10  C   UNL     1      -5.267  12.849  21.426  0.00  0.00    +0.000 A 
ATOM     11  C   UNL     1      -6.668  12.643  21.041  0.00  0.00    +0.000 C 
ATOM     12  C   UNL     1      -7.862  12.970  21.893  0.00  0.00    +0.000 C 
ATOM     13  C   UNL     1      -6.893  12.157  19.821  0.00  0.00    +0.000 C 
ATOM     14  C   UNL     1      -5.876  11.801  18.765  0.00  0.00    +0.000 C 
ATOM     15  C   UNL     1      -6.226  12.801  17.634  0.00  0.00    +0.000 C 
ATOM     16  C   UNL     1      -6.222  10.315  18.477  0.00  0.00    +0.000 C 
ENDROOT
BRANCH   1  19
ATOM     17  C   UNL     1      -3.166  10.230  14.724  0.00  0.00    +0.000 C 
ATOM     18  C   UNL     1      -2.810  10.504  16.153  0.00  0.00    +0.000 C 
ATOM     19  C   UNL     1      -3.636  11.214  16.936  0.00  0.00    +0.000 C 
ENDBRANCH   1  19
TORSDOF 1
ENDMDL
MODEL 9
REMARK VINA RESULT:      -5.7      8.667     11.652
REMARK  Name = 
REMARK  6 active torsions:
REMARK  status: ('A' for Active; 'I' for Inactive)
REMARK    1  A    between atoms: C_1  and  C_2
REMARK    2  A    between atoms: C_3  and  C_4
REMARK    3  A    between atoms: C_10  and  C_11
REMARK    4  A    between atoms: C_14  and  C_15
REMARK    5  A    between atoms: C_17  and  C_18
REMARK    6  A    between atoms: C_17  and  C_19
REMARK                            x       y       z     vdW  Elec       q    Type
REMARK                         _______ _______ _______ _____ _____    ______ ____
ROOT
ATOM      1  C   UNL     1      -5.764  12.479  20.767  0.00  0.00    +0.000 C 
ATOM      2  O   UNL     1      -6.668  11.855  20.211  0.00  0.00    +0.000 OA
ATOM      3  N   UNL     1      -4.401  12.530  20.351  0.00  0.00    +0.000 N 
ATOM      4  C   UNL     1      -3.993  11.997  19.034  0.00  0.00    +0.000 A 
ATOM      5  C   UNL     1      -4.936  11.536  18.092  0.00  0.00    +0.000 A 
ATOM      6  C   UNL     1      -4.574  11.020  16.837  0.00  0.00    +0.000 A 
ATOM      7  C   UNL     1      -3.244  10.954  16.465  0.00  0.00    +0.000 A 
ATOM      8  C   UNL     1      -2.821  10.416  15.131  0.00  0.00    +0.000 C 
ATOM      9  C   UNL     1      -2.287  11.424  17.364  0.00  0.00    +0.000 A 
ATOM     10  C   UNL     1      -2.630  11.954  18.634  0.00  0.00    +0.000 A 
ATOM     11  C   UNL     1      -1.561  12.455  19.507  0.00  0.00    +0.000 C 
ATOM     12  C   UNL     1      -0.097  12.472  19.168  0.00  0.00    +0.000 C 
ATOM     13  C   UNL     1      -1.931  12.966  20.680  0.00  0.00    +0.000 C 
ATOM     14  C   UNL     1      -3.329  13.112  21.228  0.00  0.00    +0.000 C 
ATOM     15  C   UNL     1      -3.469  14.651  21.341  0.00  0.00    +0.000 C 
ATOM     16  C   UNL     1      -3.226  12.346  22.574  0.00  0.00    +0.000 C 
ENDROOT
BRANCH   1  19
ATOM     17  C   UNL     1      -7.382  13.638  24.102  0.00  0.00    +0.000 C 
ATOM     18  C   UNL     1      -7.016  12.787  22.925  0.00  0.00    +0.000 C 
ATOM     19  C   UNL     1      -6.177  13.249  21.986  0.00  0.00    +0.000 C 
ENDBRANCH   1  19
TORSDOF 1
ENDMDL
