MODEL 1
REMARK VINA RESULT:      -8.5      0.000      0.000
REMARK  Name = 
REMARK  6 active torsions:
REMARK  status: ('A' for Active; 'I' for Inactive)
REMARK    1  A    between atoms: C_2  and  C_3
REMARK    2  A    between atoms: C_2  and  C_10
REMARK    3  A    between atoms: C_12  and  C_13
REMARK    4  A    between atoms: C_13  and  C_15
REMARK    5  A    between atoms: N_19  and  C_20
REMARK    6  A    between atoms: N_23  and  O_24
REMARK                            x       y       z     vdW  Elec       q    Type
REMARK                         _______ _______ _______ _____ _____    ______ ____
ROOT
ATOM      1  C   UNL     1       2.572   7.480  18.060  0.00  0.00    +0.000 A 
ATOM      2  C   UNL     1       1.971   6.201  18.119  0.00  0.00    +0.000 A 
ATOM      3  C   UNL     1       2.929   5.217  17.867  0.00  0.00    +0.000 A 
ATOM      4  N   UNL     1       4.128   5.885  17.676  0.00  0.00    +0.000 N 
ATOM      5  C   UNL     1       3.911   7.243  17.845  0.00  0.00    +0.000 A 
ENDROOT
BRANCH   4   6
ATOM      6  C   UNL     1       5.392   5.362  17.335  0.00  0.00    +0.000 A 
ATOM      7  C   UNL     1       5.982   5.295  16.058  0.00  0.00    +0.000 A 
ATOM      8  N   UNL     1       7.203   4.752  16.096  0.00  0.00    +0.000 NA
ATOM      9  N   UNL     1       7.353   4.485  17.386  0.00  0.00    +0.000 N 
ATOM     10  C   UNL     1       6.340   4.849  18.190  0.00  0.00    +0.000 A 
BRANCH   9  11
ATOM     11  O   UNL     1       8.546   3.927  17.775  0.00  0.00    +0.000 OA
ATOM     12  H   UNL     1       8.697   4.563  18.493  0.00  0.00    +0.000 HD
ENDBRANCH   9  11
ENDBRANCH   4   6
BRANCH   1  14
ATOM     13  O   UNL     1       1.963   9.636  17.349  0.00  0.00    +0.000 OA
ATOM     14  C   UNL     1       1.925   8.776  18.224  0.00  0.00    +0.000 C 
BRANCH  14  15
ATOM     15  C   UNL     1       1.235   9.067  19.512  0.00  0.00    +0.000 A 
ATOM     16  C   UNL     1       1.574   8.324  20.649  0.00  0.00    +0.000 A 
ATOM     17  C   UNL     1       0.921   8.568  21.859  0.00  0.00    +0.000 A 
ATOM     18  C   UNL     1      -0.072   9.540  21.920  0.00  0.00    +0.000 A 
ATOM     19  F   UNL     1      -0.705   9.764  23.080  0.00  0.00    +0.000 F 
ATOM     20  C   UNL     1      -0.428  10.276  20.798  0.00  0.00    +0.000 A 
ATOM     21  C   UNL     1       0.220  10.036  19.590  0.00  0.00    +0.000 A 
ENDBRANCH  14  15
ENDBRANCH   1  14
BRANCH   3  22
ATOM     22  C   UNL     1       2.775   3.750  17.887  0.00  0.00    +0.000 C 
ATOM     23  O   UNL     1       2.370   3.095  16.928  0.00  0.00    +0.000 OA
BRANCH  22  24
ATOM     24  C   UNL     1       3.175   3.002  19.159  0.00  0.00    +0.000 C 
ATOM     25  F   UNL     1       2.203   2.241  19.715  0.00  0.00    +0.000 F 
ATOM     26  F   UNL     1       4.219   2.158  18.938  0.00  0.00    +0.000 F 
ATOM     27  F   UNL     1       3.570   3.867  20.134  0.00  0.00    +0.000 F 
ENDBRANCH  22  24
ENDBRANCH   3  22
TORSDOF 6
ENDMDL
MODEL 2
REMARK VINA RESULT:      -8.5      0.146      1.239
REMARK  Name = 
REMARK  6 active torsions:
REMARK  status: ('A' for Active; 'I' for Inactive)
REMARK    1  A    between atoms: C_2  and  C_3
REMARK    2  A    between atoms: C_2  and  C_10
REMARK    3  A    between atoms: C_12  and  C_13
REMARK    4  A    between atoms: C_13  and  C_15
REMARK    5  A    between atoms: N_19  and  C_20
REMARK    6  A    between atoms: N_23  and  O_24
REMARK                            x       y       z     vdW  Elec       q    Type
REMARK                         _______ _______ _______ _____ _____    ______ ____
ROOT
ATOM      1  C   UNL     1       2.596   7.460  18.083  0.00  0.00    +0.000 A 
ATOM      2  C   UNL     1       1.993   6.181  18.120  0.00  0.00    +0.000 A 
ATOM      3  C   UNL     1       2.950   5.198  17.865  0.00  0.00    +0.000 A 
ATOM      4  N   UNL     1       4.152   5.866  17.693  0.00  0.00    +0.000 N 
ATOM      5  C   UNL     1       3.937   7.222  17.878  0.00  0.00    +0.000 A 
ENDROOT
BRANCH   4   6
ATOM      6  C   UNL     1       5.419   5.344  17.358  0.00  0.00    +0.000 A 
ATOM      7  C   UNL     1       6.003   5.252  16.080  0.00  0.00    +0.000 A 
ATOM      8  N   UNL     1       7.228   4.719  16.124  0.00  0.00    +0.000 NA
ATOM      9  N   UNL     1       7.386   4.483  17.419  0.00  0.00    +0.000 N 
ATOM     10  C   UNL     1       6.375   4.859  18.220  0.00  0.00    +0.000 A 
BRANCH   9  11
ATOM     11  O   UNL     1       8.586   3.943  17.815  0.00  0.00    +0.000 OA
ATOM     12  H   UNL     1       8.372   3.048  17.506  0.00  0.00    +0.000 HD
ENDBRANCH   9  11
ENDBRANCH   4   6
BRANCH   1  14
ATOM     13  O   UNL     1       2.004   9.628  17.394  0.00  0.00    +0.000 OA
ATOM     14  C   UNL     1       1.951   8.755  18.257  0.00  0.00    +0.000 C 
BRANCH  14  15
ATOM     15  C   UNL     1       1.243   9.029  19.538  0.00  0.00    +0.000 A 
ATOM     16  C   UNL     1       0.309  10.072  19.590  0.00  0.00    +0.000 A 
ATOM     17  C   UNL     1      -0.347  10.358  20.788  0.00  0.00    +0.000 A 
ATOM     18  C   UNL     1      -0.057   9.612  21.926  0.00  0.00    +0.000 A 
ATOM     19  F   UNL     1      -0.679   9.897  23.078  0.00  0.00    +0.000 F 
ATOM     20  C   UNL     1       0.876   8.584  21.893  0.00  0.00    +0.000 A 
ATOM     21  C   UNL     1       1.533   8.295  20.701  0.00  0.00    +0.000 A 
ENDBRANCH  14  15
ENDBRANCH   1  14
BRANCH   3  22
ATOM     22  C   UNL     1       2.794   3.731  17.866  0.00  0.00    +0.000 C 
ATOM     23  O   UNL     1       2.372   3.092  16.904  0.00  0.00    +0.000 OA
BRANCH  22  24
ATOM     24  C   UNL     1       3.212   2.964  19.120  0.00  0.00    +0.000 C 
ATOM     25  F   UNL     1       4.439   2.393  19.069  0.00  0.00    +0.000 F 
ATOM     26  F   UNL     1       3.227   3.766  20.219  0.00  0.00    +0.000 F 
ATOM     27  F   UNL     1       2.343   1.949  19.387  0.00  0.00    +0.000 F 
ENDBRANCH  22  24
ENDBRANCH   3  22
TORSDOF 6
ENDMDL
MODEL 3
REMARK VINA RESULT:      -8.3      2.848      7.274
REMARK  Name = 
REMARK  6 active torsions:
REMARK  status: ('A' for Active; 'I' for Inactive)
REMARK    1  A    between atoms: C_2  and  C_3
REMARK    2  A    between atoms: C_2  and  C_10
REMARK    3  A    between atoms: C_12  and  C_13
REMARK    4  A    between atoms: C_13  and  C_15
REMARK    5  A    between atoms: N_19  and  C_20
REMARK    6  A    between atoms: N_23  and  O_24
REMARK                            x       y       z     vdW  Elec       q    Type
REMARK                         _______ _______ _______ _____ _____    ______ ____
ROOT
ATOM      1  C   UNL     1       5.352   4.854  16.946  0.00  0.00    +0.000 A 
ATOM      2  C   UNL     1       4.301   3.928  17.138  0.00  0.00    +0.000 A 
ATOM      3  C   UNL     1       3.205   4.569  17.717  0.00  0.00    +0.000 A 
ATOM      4  N   UNL     1       3.567   5.899  17.862  0.00  0.00    +0.000 N 
ATOM      5  C   UNL     1       4.843   6.069  17.347  0.00  0.00    +0.000 A 
ENDROOT
BRANCH   4   6
ATOM      6  C   UNL     1       2.844   6.959  18.445  0.00  0.00    +0.000 A 
ATOM      7  C   UNL     1       2.411   8.149  17.829  0.00  0.00    +0.000 A 
ATOM      8  N   UNL     1       1.732   8.933  18.672  0.00  0.00    +0.000 NA
ATOM      9  N   UNL     1       1.756   8.228  19.795  0.00  0.00    +0.000 N 
ATOM     10  C   UNL     1       2.364   7.032  19.732  0.00  0.00    +0.000 A 
BRANCH   9  11
ATOM     11  O   UNL     1       1.106   8.760  20.882  0.00  0.00    +0.000 OA
ATOM     12  H   UNL     1       1.921   9.036  21.331  0.00  0.00    +0.000 HD
ENDBRANCH   9  11
ENDBRANCH   4   6
BRANCH   1  14
ATOM     13  O   UNL     1       7.659   4.447  17.136  0.00  0.00    +0.000 OA
ATOM     14  C   UNL     1       6.681   4.594  16.408  0.00  0.00    +0.000 C 
BRANCH  14  15
ATOM     15  C   UNL     1       6.852   4.547  14.929  0.00  0.00    +0.000 A 
ATOM     16  C   UNL     1       7.772   5.411  14.322  0.00  0.00    +0.000 A 
ATOM     17  C   UNL     1       7.929   5.396  12.935  0.00  0.00    +0.000 A 
ATOM     18  C   UNL     1       7.158   4.531  12.165  0.00  0.00    +0.000 A 
ATOM     19  F   UNL     1       7.302   4.528  10.833  0.00  0.00    +0.000 F 
ATOM     20  C   UNL     1       6.233   3.678  12.752  0.00  0.00    +0.000 A 
ATOM     21  C   UNL     1       6.073   3.690  14.134  0.00  0.00    +0.000 A 
ENDBRANCH  14  15
ENDBRANCH   1  14
BRANCH   3  22
ATOM     22  C   UNL     1       1.873   4.019  18.037  0.00  0.00    +0.000 C 
ATOM     23  O   UNL     1       0.927   4.027  17.251  0.00  0.00    +0.000 OA
BRANCH  22  24
ATOM     24  C   UNL     1       1.672   3.375  19.408  0.00  0.00    +0.000 C 
ATOM     25  F   UNL     1       1.430   2.042  19.394  0.00  0.00    +0.000 F 
ATOM     26  F   UNL     1       2.762   3.540  20.206  0.00  0.00    +0.000 F 
ATOM     27  F   UNL     1       0.618   3.935  20.064  0.00  0.00    +0.000 F 
ENDBRANCH  22  24
ENDBRANCH   3  22
TORSDOF 6
ENDMDL
MODEL 4
REMARK VINA RESULT:      -8.3      2.755      7.339
REMARK  Name = 
REMARK  6 active torsions:
REMARK  status: ('A' for Active; 'I' for Inactive)
REMARK    1  A    between atoms: C_2  and  C_3
REMARK    2  A    between atoms: C_2  and  C_10
REMARK    3  A    between atoms: C_12  and  C_13
REMARK    4  A    between atoms: C_13  and  C_15
REMARK    5  A    between atoms: N_19  and  C_20
REMARK    6  A    between atoms: N_23  and  O_24
REMARK                            x       y       z     vdW  Elec       q    Type
REMARK                         _______ _______ _______ _____ _____    ______ ____
ROOT
ATOM      1  C   UNL     1       5.336   4.862  16.992  0.00  0.00    +0.000 A 
ATOM      2  C   UNL     1       4.297   3.931  17.224  0.00  0.00    +0.000 A 
ATOM      3  C   UNL     1       3.195   4.580  17.782  0.00  0.00    +0.000 A 
ATOM      4  N   UNL     1       3.542   5.919  17.874  0.00  0.00    +0.000 N 
ATOM      5  C   UNL     1       4.813   6.085  17.347  0.00  0.00    +0.000 A 
ENDROOT
BRANCH   4   6
ATOM      6  C   UNL     1       2.807   6.992  18.419  0.00  0.00    +0.000 A 
ATOM      7  C   UNL     1       2.317   7.122  19.733  0.00  0.00    +0.000 A 
ATOM      8  N   UNL     1       1.676   8.280  19.918  0.00  0.00    +0.000 NA
ATOM      9  N   UNL     1       1.770   8.849  18.724  0.00  0.00    +0.000 N 
ATOM     10  C   UNL     1       2.457   8.166  17.793  0.00  0.00    +0.000 A 
BRANCH   9  11
ATOM     11  O   UNL     1       1.217  10.098  18.580  0.00  0.00    +0.000 OA
ATOM     12  H   UNL     1       2.071  10.560  18.587  0.00  0.00    +0.000 HD
ENDBRANCH   9  11
ENDBRANCH   4   6
BRANCH   1  14
ATOM     13  O   UNL     1       7.641   4.449  17.190  0.00  0.00    +0.000 OA
ATOM     14  C   UNL     1       6.666   4.598  16.459  0.00  0.00    +0.000 C 
BRANCH  14  15
ATOM     15  C   UNL     1       6.842   4.547  14.980  0.00  0.00    +0.000 A 
ATOM     16  C   UNL     1       7.782   5.392  14.378  0.00  0.00    +0.000 A 
ATOM     17  C   UNL     1       7.945   5.373  12.991  0.00  0.00    +0.000 A 
ATOM     18  C   UNL     1       7.159   4.525  12.218  0.00  0.00    +0.000 A 
ATOM     19  F   UNL     1       7.308   4.518  10.886  0.00  0.00    +0.000 F 
ATOM     20  C   UNL     1       6.214   3.690  12.801  0.00  0.00    +0.000 A 
ATOM     21  C   UNL     1       6.048   3.705  14.182  0.00  0.00    +0.000 A 
ENDBRANCH  14  15
ENDBRANCH   1  14
BRANCH   3  22
ATOM     22  C   UNL     1       1.872   4.027  18.129  0.00  0.00    +0.000 C 
ATOM     23  O   UNL     1       0.932   3.967  17.338  0.00  0.00    +0.000 OA
BRANCH  22  24
ATOM     24  C   UNL     1       1.672   3.467  19.536  0.00  0.00    +0.000 C 
ATOM     25  F   UNL     1       2.662   3.744  20.418  0.00  0.00    +0.000 F 
ATOM     26  F   UNL     1       0.531   3.940  20.108  0.00  0.00    +0.000 F 
ATOM     27  F   UNL     1       1.566   2.109  19.515  0.00  0.00    +0.000 F 
ENDBRANCH  22  24
ENDBRANCH   3  22
TORSDOF 6
ENDMDL
MODEL 5
REMARK VINA RESULT:      -8.3      2.841      7.267
REMARK  Name = 
REMARK  6 active torsions:
REMARK  status: ('A' for Active; 'I' for Inactive)
REMARK    1  A    between atoms: C_2  and  C_3
REMARK    2  A    between atoms: C_2  and  C_10
REMARK    3  A    between atoms: C_12  and  C_13
REMARK    4  A    between atoms: C_13  and  C_15
REMARK    5  A    between atoms: N_19  and  C_20
REMARK    6  A    between atoms: N_23  and  O_24
REMARK                            x       y       z     vdW  Elec       q    Type
REMARK                         _______ _______ _______ _____ _____    ______ ____
ROOT
ATOM      1  C   UNL     1       5.348   4.870  16.979  0.00  0.00    +0.000 A 
ATOM      2  C   UNL     1       4.305   3.939  17.188  0.00  0.00    +0.000 A 
ATOM      3  C   UNL     1       3.206   4.579  17.765  0.00  0.00    +0.000 A 
ATOM      4  N   UNL     1       3.560   5.913  17.891  0.00  0.00    +0.000 N 
ATOM      5  C   UNL     1       4.832   6.087  17.367  0.00  0.00    +0.000 A 
ENDROOT
BRANCH   4   6
ATOM      6  C   UNL     1       2.832   6.975  18.465  0.00  0.00    +0.000 A 
ATOM      7  C   UNL     1       2.400   8.162  17.840  0.00  0.00    +0.000 A 
ATOM      8  N   UNL     1       1.716   8.949  18.675  0.00  0.00    +0.000 NA
ATOM      9  N   UNL     1       1.735   8.251  19.802  0.00  0.00    +0.000 N 
ATOM     10  C   UNL     1       2.345   7.055  19.749  0.00  0.00    +0.000 A 
BRANCH   9  11
ATOM     11  O   UNL     1       1.078   8.787  20.883  0.00  0.00    +0.000 OA
ATOM     12  H   UNL     1       1.548   9.636  20.843  0.00  0.00    +0.000 HD
ENDBRANCH   9  11
ENDBRANCH   4   6
BRANCH   1  14
ATOM     13  O   UNL     1       7.650   4.436  17.164  0.00  0.00    +0.000 OA
ATOM     14  C   UNL     1       6.676   4.613  16.437  0.00  0.00    +0.000 C 
BRANCH  14  15
ATOM     15  C   UNL     1       6.851   4.607  14.958  0.00  0.00    +0.000 A 
ATOM     16  C   UNL     1       6.081   3.727  14.186  0.00  0.00    +0.000 A 
ATOM     17  C   UNL     1       6.248   3.691  12.801  0.00  0.00    +0.000 A 
ATOM     18  C   UNL     1       7.188   4.521  12.199  0.00  0.00    +0.000 A 
ATOM     19  F   UNL     1       7.354   4.476  10.870  0.00  0.00    +0.000 F 
ATOM     20  C   UNL     1       7.967   5.390  12.953  0.00  0.00    +0.000 A 
ATOM     21  C   UNL     1       7.804   5.429  14.335  0.00  0.00    +0.000 A 
ENDBRANCH  14  15
ENDBRANCH   1  14
BRANCH   3  22
ATOM     22  C   UNL     1       1.881   4.024  18.099  0.00  0.00    +0.000 C 
ATOM     23  O   UNL     1       0.940   3.986  17.307  0.00  0.00    +0.000 OA
BRANCH  22  24
ATOM     24  C   UNL     1       1.679   3.433  19.493  0.00  0.00    +0.000 C 
ATOM     25  F   UNL     1       0.699   4.005  20.231  0.00  0.00    +0.000 F 
ATOM     26  F   UNL     1       1.369   2.108  19.438  0.00  0.00    +0.000 F 
ATOM     27  F   UNL     1       2.813   3.538  20.241  0.00  0.00    +0.000 F 
ENDBRANCH  22  24
ENDBRANCH   3  22
TORSDOF 6
ENDMDL
MODEL 6
REMARK VINA RESULT:      -8.2      1.102      1.240
REMARK  Name = 
REMARK  6 active torsions:
REMARK  status: ('A' for Active; 'I' for Inactive)
REMARK    1  A    between atoms: C_2  and  C_3
REMARK    2  A    between atoms: C_2  and  C_10
REMARK    3  A    between atoms: C_12  and  C_13
REMARK    4  A    between atoms: C_13  and  C_15
REMARK    5  A    between atoms: N_19  and  C_20
REMARK    6  A    between atoms: N_23  and  O_24
REMARK                            x       y       z     vdW  Elec       q    Type
REMARK                         _______ _______ _______ _____ _____    ______ ____
ROOT
ATOM      1  C   UNL     1       2.520   7.366  18.355  0.00  0.00    +0.000 A 
ATOM      2  C   UNL     1       2.034   6.119  18.812  0.00  0.00    +0.000 A 
ATOM      3  C   UNL     1       2.998   5.130  18.603  0.00  0.00    +0.000 A 
ATOM      4  N   UNL     1       4.090   5.769  18.038  0.00  0.00    +0.000 N 
ATOM      5  C   UNL     1       3.811   7.123  17.941  0.00  0.00    +0.000 A 
ENDROOT
BRANCH   4   6
ATOM      6  C   UNL     1       5.305   5.217  17.583  0.00  0.00    +0.000 A 
ATOM      7  C   UNL     1       5.666   4.902  16.258  0.00  0.00    +0.000 A 
ATOM      8  N   UNL     1       6.905   4.408  16.179  0.00  0.00    +0.000 NA
ATOM      9  N   UNL     1       7.294   4.417  17.447  0.00  0.00    +0.000 N 
ATOM     10  C   UNL     1       6.417   4.915  18.334  0.00  0.00    +0.000 A 
BRANCH   9  11
ATOM     11  O   UNL     1       8.569   3.980  17.714  0.00  0.00    +0.000 OA
ATOM     12  H   UNL     1       8.964   4.425  16.947  0.00  0.00    +0.000 HD
ENDBRANCH   9  11
ENDBRANCH   4   6
BRANCH   1  14
ATOM     13  O   UNL     1       1.797   9.367  17.356  0.00  0.00    +0.000 OA
ATOM     14  C   UNL     1       1.823   8.646  18.350  0.00  0.00    +0.000 C 
BRANCH  14  15
ATOM     15  C   UNL     1       1.159   9.098  19.604  0.00  0.00    +0.000 A 
ATOM     16  C   UNL     1       1.489   8.471  20.812  0.00  0.00    +0.000 A 
ATOM     17  C   UNL     1       0.861   8.867  21.995  0.00  0.00    +0.000 A 
ATOM     18  C   UNL     1      -0.099   9.873  21.959  0.00  0.00    +0.000 A 
ATOM     19  F   UNL     1      -0.710  10.243  23.094  0.00  0.00    +0.000 F 
ATOM     20  C   UNL     1      -0.446  10.495  20.767  0.00  0.00    +0.000 A 
ATOM     21  C   UNL     1       0.178  10.103  19.586  0.00  0.00    +0.000 A 
ENDBRANCH  14  15
ENDBRANCH   1  14
BRANCH   3  22
ATOM     22  C   UNL     1       2.957   3.704  18.979  0.00  0.00    +0.000 C 
ATOM     23  O   UNL     1       3.301   3.281  20.081  0.00  0.00    +0.000 OA
BRANCH  22  24
ATOM     24  C   UNL     1       2.424   2.705  17.953  0.00  0.00    +0.000 C 
ATOM     25  F   UNL     1       1.152   2.287  18.155  0.00  0.00    +0.000 F 
ATOM     26  F   UNL     1       2.444   3.219  16.693  0.00  0.00    +0.000 F 
ATOM     27  F   UNL     1       3.185   1.575  17.927  0.00  0.00    +0.000 F 
ENDBRANCH  22  24
ENDBRANCH   3  22
TORSDOF 6
ENDMDL
MODEL 7
REMARK VINA RESULT:      -8.2      1.097      1.626
REMARK  Name = 
REMARK  6 active torsions:
REMARK  status: ('A' for Active; 'I' for Inactive)
REMARK    1  A    between atoms: C_2  and  C_3
REMARK    2  A    between atoms: C_2  and  C_10
REMARK    3  A    between atoms: C_12  and  C_13
REMARK    4  A    between atoms: C_13  and  C_15
REMARK    5  A    between atoms: N_19  and  C_20
REMARK    6  A    between atoms: N_23  and  O_24
REMARK                            x       y       z     vdW  Elec       q    Type
REMARK                         _______ _______ _______ _____ _____    ______ ____
ROOT
ATOM      1  C   UNL     1       2.525   7.411  18.379  0.00  0.00    +0.000 A 
ATOM      2  C   UNL     1       2.007   6.170  18.816  0.00  0.00    +0.000 A 
ATOM      3  C   UNL     1       2.950   5.162  18.604  0.00  0.00    +0.000 A 
ATOM      4  N   UNL     1       4.062   5.783  18.057  0.00  0.00    +0.000 N 
ATOM      5  C   UNL     1       3.814   7.144  17.975  0.00  0.00    +0.000 A 
ENDROOT
BRANCH   4   6
ATOM      6  C   UNL     1       5.268   5.209  17.606  0.00  0.00    +0.000 A 
ATOM      7  C   UNL     1       5.597   4.815  16.295  0.00  0.00    +0.000 A 
ATOM      8  N   UNL     1       6.837   4.321  16.215  0.00  0.00    +0.000 NA
ATOM      9  N   UNL     1       7.257   4.409  17.469  0.00  0.00    +0.000 N 
ATOM     10  C   UNL     1       6.400   4.957  18.346  0.00  0.00    +0.000 A 
BRANCH   9  11
ATOM     11  O   UNL     1       8.541   3.994  17.730  0.00  0.00    +0.000 OA
ATOM     12  H   UNL     1       8.389   3.084  17.427  0.00  0.00    +0.000 HD
ENDBRANCH   9  11
ENDBRANCH   4   6
BRANCH   1  14
ATOM     13  O   UNL     1       1.891   9.458  17.413  0.00  0.00    +0.000 OA
ATOM     14  C   UNL     1       1.858   8.706  18.384  0.00  0.00    +0.000 C 
BRANCH  14  15
ATOM     15  C   UNL     1       1.150   9.136  19.622  0.00  0.00    +0.000 A 
ATOM     16  C   UNL     1       0.183  10.145  19.537  0.00  0.00    +0.000 A 
ATOM     17  C   UNL     1      -0.474  10.577  20.691  0.00  0.00    +0.000 A 
ATOM     18  C   UNL     1      -0.151  10.009  21.920  0.00  0.00    +0.000 A 
ATOM     19  F   UNL     1      -0.775  10.433  23.027  0.00  0.00    +0.000 F 
ATOM     20  C   UNL     1       0.815   9.016  22.021  0.00  0.00    +0.000 A 
ATOM     21  C   UNL     1       1.472   8.583  20.873  0.00  0.00    +0.000 A 
ENDBRANCH  14  15
ENDBRANCH   1  14
BRANCH   3  22
ATOM     22  C   UNL     1       2.873   3.733  18.961  0.00  0.00    +0.000 C 
ATOM     23  O   UNL     1       2.916   3.317  20.118  0.00  0.00    +0.000 OA
BRANCH  22  24
ATOM     24  C   UNL     1       2.694   2.718  17.833  0.00  0.00    +0.000 C 
ATOM     25  F   UNL     1       3.751   1.899  17.615  0.00  0.00    +0.000 F 
ATOM     26  F   UNL     1       1.635   1.894  18.061  0.00  0.00    +0.000 F 
ATOM     27  F   UNL     1       2.458   3.340  16.645  0.00  0.00    +0.000 F 
ENDBRANCH  22  24
ENDBRANCH   3  22
TORSDOF 6
ENDMDL
MODEL 8
REMARK VINA RESULT:      -8.1      1.292      1.893
REMARK  Name = 
REMARK  6 active torsions:
REMARK  status: ('A' for Active; 'I' for Inactive)
REMARK    1  A    between atoms: C_2  and  C_3
REMARK    2  A    between atoms: C_2  and  C_10
REMARK    3  A    between atoms: C_12  and  C_13
REMARK    4  A    between atoms: C_13  and  C_15
REMARK    5  A    between atoms: N_19  and  C_20
REMARK    6  A    between atoms: N_23  and  O_24
REMARK                            x       y       z     vdW  Elec       q    Type
REMARK                         _______ _______ _______ _____ _____    ______ ____
ROOT
ATOM      1  C   UNL     1       2.620   7.521  18.205  0.00  0.00    +0.000 A 
ATOM      2  C   UNL     1       2.267   6.229  18.657  0.00  0.00    +0.000 A 
ATOM      3  C   UNL     1       3.266   5.317  18.312  0.00  0.00    +0.000 A 
ATOM      4  N   UNL     1       4.250   6.049  17.667  0.00  0.00    +0.000 N 
ATOM      5  C   UNL     1       3.875   7.383  17.654  0.00  0.00    +0.000 A 
ENDROOT
BRANCH   4   6
ATOM      6  C   UNL     1       5.445   5.598  17.069  0.00  0.00    +0.000 A 
ATOM      7  C   UNL     1       6.563   5.024  17.704  0.00  0.00    +0.000 A 
ATOM      8  N   UNL     1       7.521   4.692  16.832  0.00  0.00    +0.000 NA
ATOM      9  N   UNL     1       6.992   5.067  15.675  0.00  0.00    +0.000 N 
ATOM     10  C   UNL     1       5.751   5.578  15.728  0.00  0.00    +0.000 A 
BRANCH   9  11
ATOM     11  O   UNL     1       7.734   4.835  14.543  0.00  0.00    +0.000 OA
ATOM     12  H   UNL     1       8.117   4.006  14.872  0.00  0.00    +0.000 HD
ENDBRANCH   9  11
ENDBRANCH   4   6
BRANCH   1  14
ATOM     13  O   UNL     1       1.746   9.547  17.394  0.00  0.00    +0.000 OA
ATOM     14  C   UNL     1       1.845   8.750  18.323  0.00  0.00    +0.000 C 
BRANCH  14  15
ATOM     15  C   UNL     1       1.190   9.054  19.626  0.00  0.00    +0.000 A 
ATOM     16  C   UNL     1       0.226  10.069  19.682  0.00  0.00    +0.000 A 
ATOM     17  C   UNL     1      -0.381  10.383  20.899  0.00  0.00    +0.000 A 
ATOM     18  C   UNL     1      -0.013   9.693  22.050  0.00  0.00    +0.000 A 
ATOM     19  F   UNL     1      -0.590  10.004  23.219  0.00  0.00    +0.000 F 
ATOM     20  C   UNL     1       0.950   8.692  22.011  0.00  0.00    +0.000 A 
ATOM     21  C   UNL     1       1.558   8.376  20.800  0.00  0.00    +0.000 A 
ENDBRANCH  14  15
ENDBRANCH   1  14
BRANCH   3  22
ATOM     22  C   UNL     1       3.357   3.879  18.630  0.00  0.00    +0.000 C 
ATOM     23  O   UNL     1       4.031   3.429  19.555  0.00  0.00    +0.000 OA
BRANCH  22  24
ATOM     24  C   UNL     1       2.540   2.902  17.785  0.00  0.00    +0.000 C 
ATOM     25  F   UNL     1       2.943   1.610  17.839  0.00  0.00    +0.000 F 
ATOM     26  F   UNL     1       1.230   2.892  18.155  0.00  0.00    +0.000 F 
ATOM     27  F   UNL     1       2.573   3.245  16.468  0.00  0.00    +0.000 F 
ENDBRANCH  22  24
ENDBRANCH   3  22
TORSDOF 6
ENDMDL
MODEL 9
REMARK VINA RESULT:      -8.1      0.739      1.603
REMARK  Name = 
REMARK  6 active torsions:
REMARK  status: ('A' for Active; 'I' for Inactive)
REMARK    1  A    between atoms: C_2  and  C_3
REMARK    2  A    between atoms: C_2  and  C_10
REMARK    3  A    between atoms: C_12  and  C_13
REMARK    4  A    between atoms: C_13  and  C_15
REMARK    5  A    between atoms: N_19  and  C_20
REMARK    6  A    between atoms: N_23  and  O_24
REMARK                            x       y       z     vdW  Elec       q    Type
REMARK                         _______ _______ _______ _____ _____    ______ ____
ROOT
ATOM      1  C   UNL     1       2.560   7.579  18.039  0.00  0.00    +0.000 A 
ATOM      2  C   UNL     1       2.026   6.281  18.206  0.00  0.00    +0.000 A 
ATOM      3  C   UNL     1       2.972   5.327  17.828  0.00  0.00    +0.000 A 
ATOM      4  N   UNL     1       4.102   6.033  17.450  0.00  0.00    +0.000 N 
ATOM      5  C   UNL     1       3.861   7.386  17.630  0.00  0.00    +0.000 A 
ENDROOT
BRANCH   4   6
ATOM      6  C   UNL     1       5.321   5.550  16.932  0.00  0.00    +0.000 A 
ATOM      7  C   UNL     1       6.378   4.944  17.638  0.00  0.00    +0.000 A 
ATOM      8  N   UNL     1       7.382   4.586  16.831  0.00  0.00    +0.000 NA
ATOM      9  N   UNL     1       6.942   4.976  15.642  0.00  0.00    +0.000 N 
ATOM     10  C   UNL     1       5.715   5.522  15.614  0.00  0.00    +0.000 A 
BRANCH   9  11
ATOM     11  O   UNL     1       7.751   4.725  14.561  0.00  0.00    +0.000 OA
ATOM     12  H   UNL     1       8.433   4.270  15.081  0.00  0.00    +0.000 HD
ENDBRANCH   9  11
ENDBRANCH   4   6
BRANCH   1  14
ATOM     13  O   UNL     1       1.921   9.764  17.456  0.00  0.00    +0.000 OA
ATOM     14  C   UNL     1       1.896   8.854  18.280  0.00  0.00    +0.000 C 
BRANCH  14  15
ATOM     15  C   UNL     1       1.202   9.059  19.581  0.00  0.00    +0.000 A 
ATOM     16  C   UNL     1       0.191  10.025  19.669  0.00  0.00    +0.000 A 
ATOM     17  C   UNL     1      -0.455  10.246  20.887  0.00  0.00    +0.000 A 
ATOM     18  C   UNL     1      -0.078   9.514  22.008  0.00  0.00    +0.000 A 
ATOM     19  F   UNL     1      -0.691   9.737  23.178  0.00  0.00    +0.000 F 
ATOM     20  C   UNL     1       0.931   8.561  21.939  0.00  0.00    +0.000 A 
ATOM     21  C   UNL     1       1.577   8.338  20.727  0.00  0.00    +0.000 A 
ENDBRANCH  14  15
ENDBRANCH   1  14
BRANCH   3  22
ATOM     22  C   UNL     1       2.881   3.856  17.893  0.00  0.00    +0.000 C 
ATOM     23  O   UNL     1       2.477   3.158  16.964  0.00  0.00    +0.000 OA
BRANCH  22  24
ATOM     24  C   UNL     1       3.346   3.161  19.172  0.00  0.00    +0.000 C 
ATOM     25  F   UNL     1       4.606   2.667  19.140  0.00  0.00    +0.000 F 
ATOM     26  F   UNL     1       3.311   4.002  20.242  0.00  0.00    +0.000 F 
ATOM     27  F   UNL     1       2.543   2.105  19.478  0.00  0.00    +0.000 F 
ENDBRANCH  22  24
ENDBRANCH   3  22
TORSDOF 6
ENDMDL
