MODEL 1
REMARK VINA RESULT:      -8.3      0.000      0.000
REMARK  Name = 
REMARK  5 active torsions:
REMARK  status: ('A' for Active; 'I' for Inactive)
REMARK    1  A    between atoms: C_2  and  C_3
REMARK    2  A    between atoms: C_3  and  C_4
REMARK    3  A    between atoms: N_10  and  C_11
REMARK    4  A    between atoms: C_11  and  C_12
REMARK    5  A    between atoms: N_21  and  C_22
REMARK                            x       y       z     vdW  Elec       q    Type
REMARK                         _______ _______ _______ _____ _____    ______ ____
ROOT
ATOM      1  C   UNL     1       7.766   7.672  17.597  0.00  0.00    +0.000 C 
ATOM      2  C   UNL     1       8.048   7.005  18.954  0.00  0.00    +0.000 C 
ATOM      3  C   UNL     1       7.567   5.566  18.958  0.00  0.00    +0.000 C 
ATOM      4  C   UNL     1       6.085   5.507  18.642  0.00  0.00    +0.000 C 
ATOM      5  N   UNL     1       5.788   6.149  17.357  0.00  0.00    +0.000 N 
ATOM      6  C   UNL     1       5.504   5.401  16.241  0.00  0.00    +0.000 A 
ATOM      7  N   UNL     1       5.887   5.621  14.997  0.00  0.00    +0.000 NA
ATOM      8  N   UNL     1       5.557   4.505  14.273  0.00  0.00    +0.000 NA
ATOM      9  N   UNL     1       4.948   3.604  15.029  0.00  0.00    +0.000 NA
ATOM     10  N   UNL     1       4.759   4.206  16.226  0.00  0.00    +0.000 N 
ATOM     11  C   UNL     1       6.286   7.521  17.191  0.00  0.00    +0.000 C 
ENDROOT
BRANCH  10  12
ATOM     12  C   UNL     1       3.918   3.643  17.216  0.00  0.00    +0.000 A 
ATOM     13  C   UNL     1       2.744   4.308  17.586  0.00  0.00    +0.000 A 
ATOM     14  C   UNL     1       1.830   3.670  18.430  0.00  0.00    +0.000 A 
ATOM     15  C   UNL     1       2.104   2.395  18.930  0.00  0.00    +0.000 A 
ATOM     16  C   UNL     1       3.303   1.759  18.611  0.00  0.00    +0.000 A 
ATOM     17  C   UNL     1       4.216   2.385  17.764  0.00  0.00    +0.000 A 
ENDBRANCH  10  12
BRANCH   1  18
ATOM     18  C   UNL     1       8.130   9.165  17.657  0.00  0.00    +0.000 C 
BRANCH  18  21
ATOM     19  O   UNL     1       9.220  11.711  18.252  0.00  0.00    +0.000 OA
ATOM     20  C   UNL     1       9.381  10.790  19.046  0.00  0.00    +0.000 C 
ATOM     21  N   UNL     1       8.878   9.522  18.848  0.00  0.00    +0.000 N 
ATOM     22  H   UNL     1       9.198   8.779  19.458  0.00  0.00    +0.000 HD
BRANCH  20  23
ATOM     23  C   UNL     1      10.146  10.957  20.350  0.00  0.00    +0.000 C 
BRANCH  23  24
ATOM     24  C   UNL     1       9.683  12.132  21.171  0.00  0.00    +0.000 A 
ATOM     25  C   UNL     1       8.664  11.975  22.124  0.00  0.00    +0.000 A 
ATOM     26  C   UNL     1       8.253  13.053  22.905  0.00  0.00    +0.000 A 
ATOM     27  C   UNL     1       8.856  14.300  22.753  0.00  0.00    +0.000 A 
ATOM     28  C   UNL     1       9.875  14.467  21.817  0.00  0.00    +0.000 A 
ATOM     29  C   UNL     1      10.289  13.390  21.031  0.00  0.00    +0.000 A 
ENDBRANCH  23  24
ENDBRANCH  20  23
ENDBRANCH  18  21
ENDBRANCH   1  18
TORSDOF 5
ENDMDL
MODEL 2
REMARK VINA RESULT:      -8.3      5.814      7.319
REMARK  Name = 
REMARK  5 active torsions:
REMARK  status: ('A' for Active; 'I' for Inactive)
REMARK    1  A    between atoms: C_2  and  C_3
REMARK    2  A    between atoms: C_3  and  C_4
REMARK    3  A    between atoms: N_10  and  C_11
REMARK    4  A    between atoms: C_11  and  C_12
REMARK    5  A    between atoms: N_21  and  C_22
REMARK                            x       y       z     vdW  Elec       q    Type
REMARK                         _______ _______ _______ _____ _____    ______ ____
ROOT
ATOM      1  C   UNL     1       1.393   7.672  20.007  0.00  0.00    +0.000 C 
ATOM      2  C   UNL     1       1.906   8.783  19.075  0.00  0.00    +0.000 C 
ATOM      3  C   UNL     1       2.374   8.204  17.754  0.00  0.00    +0.000 C 
ATOM      4  C   UNL     1       3.460   7.172  17.986  0.00  0.00    +0.000 C 
ATOM      5  N   UNL     1       2.999   6.107  18.883  0.00  0.00    +0.000 N 
ATOM      6  C   UNL     1       2.674   4.864  18.398  0.00  0.00    +0.000 A 
ATOM      7  N   UNL     1       1.678   4.082  18.769  0.00  0.00    +0.000 NA
ATOM      8  N   UNL     1       1.616   3.054  17.865  0.00  0.00    +0.000 NA
ATOM      9  N   UNL     1       2.572   3.158  16.954  0.00  0.00    +0.000 NA
ATOM     10  N   UNL     1       3.345   4.193  17.357  0.00  0.00    +0.000 N 
ATOM     11  C   UNL     1       2.433   6.544  20.167  0.00  0.00    +0.000 C 
ENDROOT
BRANCH  10  12
ATOM     12  C   UNL     1       4.607   4.450  16.770  0.00  0.00    +0.000 A 
ATOM     13  C   UNL     1       5.755   4.458  17.570  0.00  0.00    +0.000 A 
ATOM     14  C   UNL     1       7.013   4.537  16.966  0.00  0.00    +0.000 A 
ATOM     15  C   UNL     1       7.122   4.645  15.578  0.00  0.00    +0.000 A 
ATOM     16  C   UNL     1       5.977   4.701  14.787  0.00  0.00    +0.000 A 
ATOM     17  C   UNL     1       4.719   4.615  15.380  0.00  0.00    +0.000 A 
ENDBRANCH  10  12
BRANCH   1  18
ATOM     18  C   UNL     1       1.056   8.255  21.389  0.00  0.00    +0.000 C 
BRANCH  18  21
ATOM     19  O   UNL     1       0.230   9.855  23.576  0.00  0.00    +0.000 OA
ATOM     20  C   UNL     1      -0.133  10.155  22.444  0.00  0.00    +0.000 C 
ATOM     21  N   UNL     1       0.227   9.444  21.319  0.00  0.00    +0.000 N 
ATOM     22  H   UNL     1      -0.251   9.649  20.449  0.00  0.00    +0.000 HD
BRANCH  20  23
ATOM     23  C   UNL     1      -1.016  11.361  22.159  0.00  0.00    +0.000 C 
BRANCH  23  24
ATOM     24  C   UNL     1      -0.746  11.999  20.822  0.00  0.00    +0.000 A 
ATOM     25  C   UNL     1      -1.573  11.721  19.722  0.00  0.00    +0.000 A 
ATOM     26  C   UNL     1      -1.344  12.332  18.491  0.00  0.00    +0.000 A 
ATOM     27  C   UNL     1      -0.291  13.233  18.341  0.00  0.00    +0.000 A 
ATOM     28  C   UNL     1       0.533  13.524  19.427  0.00  0.00    +0.000 A 
ATOM     29  C   UNL     1       0.307  12.913  20.662  0.00  0.00    +0.000 A 
ENDBRANCH  23  24
ENDBRANCH  20  23
ENDBRANCH  18  21
ENDBRANCH   1  18
TORSDOF 5
ENDMDL
MODEL 3
REMARK VINA RESULT:      -8.2      6.003      8.493
REMARK  Name = 
REMARK  5 active torsions:
REMARK  status: ('A' for Active; 'I' for Inactive)
REMARK    1  A    between atoms: C_2  and  C_3
REMARK    2  A    between atoms: C_3  and  C_4
REMARK    3  A    between atoms: N_10  and  C_11
REMARK    4  A    between atoms: C_11  and  C_12
REMARK    5  A    between atoms: N_21  and  C_22
REMARK                            x       y       z     vdW  Elec       q    Type
REMARK                         _______ _______ _______ _____ _____    ______ ____
ROOT
ATOM      1  C   UNL     1       1.137   8.442  19.682  0.00  0.00    +0.000 C 
ATOM      2  C   UNL     1       1.706   9.140  18.436  0.00  0.00    +0.000 C 
ATOM      3  C   UNL     1       2.228   8.123  17.439  0.00  0.00    +0.000 C 
ATOM      4  C   UNL     1       3.290   7.252  18.084  0.00  0.00    +0.000 C 
ATOM      5  N   UNL     1       2.775   6.585  19.283  0.00  0.00    +0.000 N 
ATOM      6  C   UNL     1       2.458   5.248  19.269  0.00  0.00    +0.000 A 
ATOM      7  N   UNL     1       1.437   4.650  19.852  0.00  0.00    +0.000 NA
ATOM      8  N   UNL     1       1.405   3.362  19.382  0.00  0.00    +0.000 NA
ATOM      9  N   UNL     1       2.404   3.133  18.543  0.00  0.00    +0.000 NA
ATOM     10  N   UNL     1       3.169   4.249  18.578  0.00  0.00    +0.000 N 
ATOM     11  C   UNL     1       2.155   7.457  20.291  0.00  0.00    +0.000 C 
ENDROOT
BRANCH  10  12
ATOM     12  C   UNL     1       4.460   4.282  17.998  0.00  0.00    +0.000 A 
ATOM     13  C   UNL     1       4.603   4.108  16.617  0.00  0.00    +0.000 A 
ATOM     14  C   UNL     1       5.851   4.315  16.024  0.00  0.00    +0.000 A 
ATOM     15  C   UNL     1       6.956   4.656  16.808  0.00  0.00    +0.000 A 
ATOM     16  C   UNL     1       6.826   4.768  18.191  0.00  0.00    +0.000 A 
ATOM     17  C   UNL     1       5.583   4.570  18.789  0.00  0.00    +0.000 A 
ENDBRANCH  10  12
BRANCH   1  18
ATOM     18  C   UNL     1       0.743   9.487  20.740  0.00  0.00    +0.000 C 
BRANCH  18  21
ATOM     19  O   UNL     1       0.406  12.132  19.784  0.00  0.00    +0.000 OA
ATOM     20  C   UNL     1      -0.585  11.442  19.997  0.00  0.00    +0.000 C 
ATOM     21  N   UNL     1      -0.519  10.142  20.451  0.00  0.00    +0.000 N 
ATOM     22  H   UNL     1      -1.376   9.701  20.766  0.00  0.00    +0.000 HD
BRANCH  20  23
ATOM     23  C   UNL     1      -2.001  11.948  19.767  0.00  0.00    +0.000 C 
BRANCH  23  24
ATOM     24  C   UNL     1      -2.605  11.471  18.472  0.00  0.00    +0.000 A 
ATOM     25  C   UNL     1      -1.840  10.723  17.564  0.00  0.00    +0.000 A 
ATOM     26  C   UNL     1      -2.404  10.256  16.379  0.00  0.00    +0.000 A 
ATOM     27  C   UNL     1      -3.740  10.522  16.085  0.00  0.00    +0.000 A 
ATOM     28  C   UNL     1      -4.513  11.257  16.983  0.00  0.00    +0.000 A 
ATOM     29  C   UNL     1      -3.952  11.728  18.171  0.00  0.00    +0.000 A 
ENDBRANCH  23  24
ENDBRANCH  20  23
ENDBRANCH  18  21
ENDBRANCH   1  18
TORSDOF 5
ENDMDL
MODEL 4
REMARK VINA RESULT:      -8.2      5.704      7.978
REMARK  Name = 
REMARK  5 active torsions:
REMARK  status: ('A' for Active; 'I' for Inactive)
REMARK    1  A    between atoms: C_2  and  C_3
REMARK    2  A    between atoms: C_3  and  C_4
REMARK    3  A    between atoms: N_10  and  C_11
REMARK    4  A    between atoms: C_11  and  C_12
REMARK    5  A    between atoms: N_21  and  C_22
REMARK                            x       y       z     vdW  Elec       q    Type
REMARK                         _______ _______ _______ _____ _____    ______ ____
ROOT
ATOM      1  C   UNL     1       1.370   7.970  19.671  0.00  0.00    +0.000 C 
ATOM      2  C   UNL     1       2.043   8.951  18.697  0.00  0.00    +0.000 C 
ATOM      3  C   UNL     1       2.575   8.221  17.478  0.00  0.00    +0.000 C 
ATOM      4  C   UNL     1       3.556   7.142  17.897  0.00  0.00    +0.000 C 
ATOM      5  N   UNL     1       2.940   6.201  18.838  0.00  0.00    +0.000 N 
ATOM      6  C   UNL     1       2.563   4.943  18.435  0.00  0.00    +0.000 A 
ATOM      7  N   UNL     1       1.482   4.269  18.781  0.00  0.00    +0.000 NA
ATOM      8  N   UNL     1       1.418   3.168  17.968  0.00  0.00    +0.000 NA
ATOM      9  N   UNL     1       2.452   3.120  17.142  0.00  0.00    +0.000 NA
ATOM     10  N   UNL     1       3.266   4.133  17.522  0.00  0.00    +0.000 N 
ATOM     11  C   UNL     1       2.304   6.794  20.022  0.00  0.00    +0.000 C 
ENDROOT
BRANCH  10  12
ATOM     12  C   UNL     1       4.589   4.247  17.031  0.00  0.00    +0.000 A 
ATOM     13  C   UNL     1       4.806   4.397  15.657  0.00  0.00    +0.000 A 
ATOM     14  C   UNL     1       6.093   4.685  15.193  0.00  0.00    +0.000 A 
ATOM     15  C   UNL     1       7.159   4.785  16.089  0.00  0.00    +0.000 A 
ATOM     16  C   UNL     1       6.953   4.573  17.451  0.00  0.00    +0.000 A 
ATOM     17  C   UNL     1       5.672   4.293  17.922  0.00  0.00    +0.000 A 
ENDBRANCH  10  12
BRANCH   1  18
ATOM     18  C   UNL     1       0.964   8.702  20.961  0.00  0.00    +0.000 C 
BRANCH  18  21
ATOM     19  O   UNL     1       1.255  11.516  21.098  0.00  0.00    +0.000 OA
ATOM     20  C   UNL     1       0.152  11.040  20.851  0.00  0.00    +0.000 C 
ATOM     21  N   UNL     1      -0.083   9.685  20.753  0.00  0.00    +0.000 N 
ATOM     22  H   UNL     1      -1.045   9.366  20.721  0.00  0.00    +0.000 HD
BRANCH  20  23
ATOM     23  C   UNL     1      -1.078  11.901  20.612  0.00  0.00    +0.000 C 
BRANCH  23  24
ATOM     24  C   UNL     1      -1.832  11.536  19.360  0.00  0.00    +0.000 A 
ATOM     25  C   UNL     1      -1.208  10.791  18.347  0.00  0.00    +0.000 A 
ATOM     26  C   UNL     1      -1.911  10.426  17.201  0.00  0.00    +0.000 A 
ATOM     27  C   UNL     1      -3.246  10.795  17.050  0.00  0.00    +0.000 A 
ATOM     28  C   UNL     1      -3.880  11.528  18.052  0.00  0.00    +0.000 A 
ATOM     29  C   UNL     1      -3.179  11.896  19.202  0.00  0.00    +0.000 A 
ENDBRANCH  23  24
ENDBRANCH  20  23
ENDBRANCH  18  21
ENDBRANCH   1  18
TORSDOF 5
ENDMDL
MODEL 5
REMARK VINA RESULT:      -8.2      6.539      7.827
REMARK  Name = 
REMARK  5 active torsions:
REMARK  status: ('A' for Active; 'I' for Inactive)
REMARK    1  A    between atoms: C_2  and  C_3
REMARK    2  A    between atoms: C_3  and  C_4
REMARK    3  A    between atoms: N_10  and  C_11
REMARK    4  A    between atoms: C_11  and  C_12
REMARK    5  A    between atoms: N_21  and  C_22
REMARK                            x       y       z     vdW  Elec       q    Type
REMARK                         _______ _______ _______ _____ _____    ______ ____
ROOT
ATOM      1  C   UNL     1       1.163   7.966  19.866  0.00  0.00    +0.000 C 
ATOM      2  C   UNL     1       1.765   9.029  18.932  0.00  0.00    +0.000 C 
ATOM      3  C   UNL     1       2.321   8.388  17.674  0.00  0.00    +0.000 C 
ATOM      4  C   UNL     1       3.367   7.349  18.031  0.00  0.00    +0.000 C 
ATOM      5  N   UNL     1       2.819   6.331  18.932  0.00  0.00    +0.000 N 
ATOM      6  C   UNL     1       2.509   5.073  18.475  0.00  0.00    +0.000 A 
ATOM      7  N   UNL     1       1.473   4.323  18.801  0.00  0.00    +0.000 NA
ATOM      8  N   UNL     1       1.460   3.259  17.937  0.00  0.00    +0.000 NA
ATOM      9  N   UNL     1       2.484   3.310  17.098  0.00  0.00    +0.000 NA
ATOM     10  N   UNL     1       3.244   4.349  17.517  0.00  0.00    +0.000 N 
ATOM     11  C   UNL     1       2.166   6.830  20.150  0.00  0.00    +0.000 C 
ENDROOT
BRANCH  10  12
ATOM     12  C   UNL     1       4.551   4.562  17.017  0.00  0.00    +0.000 A 
ATOM     13  C   UNL     1       5.641   4.526  17.893  0.00  0.00    +0.000 A 
ATOM     14  C   UNL     1       6.939   4.561  17.376  0.00  0.00    +0.000 A 
ATOM     15  C   UNL     1       7.146   4.668  15.999  0.00  0.00    +0.000 A 
ATOM     16  C   UNL     1       6.060   4.767  15.132  0.00  0.00    +0.000 A 
ATOM     17  C   UNL     1       4.763   4.726  15.639  0.00  0.00    +0.000 A 
ENDBRANCH  10  12
BRANCH   1  18
ATOM     18  C   UNL     1       0.733   8.612  21.194  0.00  0.00    +0.000 C 
BRANCH  18  21
ATOM     19  O   UNL     1      -0.046  10.364  23.279  0.00  0.00    +0.000 OA
ATOM     20  C   UNL     1      -0.089  10.758  22.119  0.00  0.00    +0.000 C 
ATOM     21  N   UNL     1       0.281   9.982  21.041  0.00  0.00    +0.000 N 
ATOM     22  H   UNL     1       0.053  10.314  20.111  0.00  0.00    +0.000 HD
BRANCH  20  23
ATOM     23  C   UNL     1      -0.546  12.160  21.746  0.00  0.00    +0.000 C 
BRANCH  23  24
ATOM     24  C   UNL     1      -1.549  12.740  22.708  0.00  0.00    +0.000 A 
ATOM     25  C   UNL     1      -2.770  12.087  22.942  0.00  0.00    +0.000 A 
ATOM     26  C   UNL     1      -3.688  12.605  23.853  0.00  0.00    +0.000 A 
ATOM     27  C   UNL     1      -3.399  13.777  24.548  0.00  0.00    +0.000 A 
ATOM     28  C   UNL     1      -2.188  14.431  24.332  0.00  0.00    +0.000 A 
ATOM     29  C   UNL     1      -1.266  13.916  23.419  0.00  0.00    +0.000 A 
ENDBRANCH  23  24
ENDBRANCH  20  23
ENDBRANCH  18  21
ENDBRANCH   1  18
TORSDOF 5
ENDMDL
MODEL 6
REMARK VINA RESULT:      -8.2      6.564      8.034
REMARK  Name = 
REMARK  5 active torsions:
REMARK  status: ('A' for Active; 'I' for Inactive)
REMARK    1  A    between atoms: C_2  and  C_3
REMARK    2  A    between atoms: C_3  and  C_4
REMARK    3  A    between atoms: N_10  and  C_11
REMARK    4  A    between atoms: C_11  and  C_12
REMARK    5  A    between atoms: N_21  and  C_22
REMARK                            x       y       z     vdW  Elec       q    Type
REMARK                         _______ _______ _______ _____ _____    ______ ____
ROOT
ATOM      1  C   UNL     1       1.219   7.861  19.909  0.00  0.00    +0.000 C 
ATOM      2  C   UNL     1       1.789   8.947  18.981  0.00  0.00    +0.000 C 
ATOM      3  C   UNL     1       2.322   8.335  17.700  0.00  0.00    +0.000 C 
ATOM      4  C   UNL     1       3.386   7.300  18.013  0.00  0.00    +0.000 C 
ATOM      5  N   UNL     1       2.869   6.260  18.908  0.00  0.00    +0.000 N 
ATOM      6  C   UNL     1       2.560   5.008  18.435  0.00  0.00    +0.000 A 
ATOM      7  N   UNL     1       1.539   4.242  18.771  0.00  0.00    +0.000 NA
ATOM      8  N   UNL     1       1.517   3.193  17.888  0.00  0.00    +0.000 NA
ATOM      9  N   UNL     1       2.521   3.270  17.026  0.00  0.00    +0.000 NA
ATOM     10  N   UNL     1       3.280   4.308  17.447  0.00  0.00    +0.000 N 
ATOM     11  C   UNL     1       2.240   6.731  20.150  0.00  0.00    +0.000 C 
ENDROOT
BRANCH  10  12
ATOM     12  C   UNL     1       4.573   4.544  16.921  0.00  0.00    +0.000 A 
ATOM     13  C   UNL     1       5.687   4.467  17.764  0.00  0.00    +0.000 A 
ATOM     14  C   UNL     1       6.970   4.525  17.213  0.00  0.00    +0.000 A 
ATOM     15  C   UNL     1       7.140   4.696  15.837  0.00  0.00    +0.000 A 
ATOM     16  C   UNL     1       6.029   4.835  15.007  0.00  0.00    +0.000 A 
ATOM     17  C   UNL     1       4.747   4.771  15.547  0.00  0.00    +0.000 A 
ENDBRANCH  10  12
BRANCH   1  18
ATOM     18  C   UNL     1       0.814   8.479  21.258  0.00  0.00    +0.000 C 
BRANCH  18  21
ATOM     19  O   UNL     1      -0.039  10.147  23.383  0.00  0.00    +0.000 OA
ATOM     20  C   UNL     1       0.024  10.607  22.248  0.00  0.00    +0.000 C 
ATOM     21  N   UNL     1       0.438   9.876  21.155  0.00  0.00    +0.000 N 
ATOM     22  H   UNL     1       0.297  10.271  20.233  0.00  0.00    +0.000 HD
BRANCH  20  23
ATOM     23  C   UNL     1      -0.339  12.050  21.928  0.00  0.00    +0.000 C 
BRANCH  23  24
ATOM     24  C   UNL     1      -1.823  12.303  21.897  0.00  0.00    +0.000 A 
ATOM     25  C   UNL     1      -2.556  12.374  23.092  0.00  0.00    +0.000 A 
ATOM     26  C   UNL     1      -3.925  12.637  23.068  0.00  0.00    +0.000 A 
ATOM     27  C   UNL     1      -4.579  12.838  21.855  0.00  0.00    +0.000 A 
ATOM     28  C   UNL     1      -3.861  12.778  20.662  0.00  0.00    +0.000 A 
ATOM     29  C   UNL     1      -2.491  12.514  20.681  0.00  0.00    +0.000 A 
ENDBRANCH  23  24
ENDBRANCH  20  23
ENDBRANCH  18  21
ENDBRANCH   1  18
TORSDOF 5
ENDMDL
MODEL 7
REMARK VINA RESULT:      -8.2      6.281      8.546
REMARK  Name = 
REMARK  5 active torsions:
REMARK  status: ('A' for Active; 'I' for Inactive)
REMARK    1  A    between atoms: C_2  and  C_3
REMARK    2  A    between atoms: C_3  and  C_4
REMARK    3  A    between atoms: N_10  and  C_11
REMARK    4  A    between atoms: C_11  and  C_12
REMARK    5  A    between atoms: N_21  and  C_22
REMARK                            x       y       z     vdW  Elec       q    Type
REMARK                         _______ _______ _______ _____ _____    ______ ____
ROOT
ATOM      1  C   UNL     1       0.943   8.723  19.906  0.00  0.00    +0.000 C 
ATOM      2  C   UNL     1       1.421   9.284  18.557  0.00  0.00    +0.000 C 
ATOM      3  C   UNL     1       1.855   8.164  17.630  0.00  0.00    +0.000 C 
ATOM      4  C   UNL     1       2.955   7.343  18.277  0.00  0.00    +0.000 C 
ATOM      5  N   UNL     1       2.526   6.807  19.572  0.00  0.00    +0.000 N 
ATOM      6  C   UNL     1       2.196   5.481  19.716  0.00  0.00    +0.000 A 
ATOM      7  N   UNL     1       1.216   4.962  20.431  0.00  0.00    +0.000 NA
ATOM      8  N   UNL     1       1.135   3.635  20.096  0.00  0.00    +0.000 NA
ATOM      9  N   UNL     1       2.064   3.306  19.211  0.00  0.00    +0.000 NA
ATOM     10  N   UNL     1       2.841   4.405  19.076  0.00  0.00    +0.000 N 
ATOM     11  C   UNL     1       1.995   7.785  20.532  0.00  0.00    +0.000 C 
ENDROOT
BRANCH  10  12
ATOM     12  C   UNL     1       4.084   4.358  18.400  0.00  0.00    +0.000 A 
ATOM     13  C   UNL     1       4.117   4.055  17.034  0.00  0.00    +0.000 A 
ATOM     14  C   UNL     1       5.319   4.181  16.332  0.00  0.00    +0.000 A 
ATOM     15  C   UNL     1       6.486   4.569  16.996  0.00  0.00    +0.000 A 
ATOM     16  C   UNL     1       6.464   4.809  18.369  0.00  0.00    +0.000 A 
ATOM     17  C   UNL     1       5.269   4.693  19.074  0.00  0.00    +0.000 A 
ENDBRANCH  10  12
BRANCH   1  18
ATOM     18  C   UNL     1       0.642   9.874  20.880  0.00  0.00    +0.000 C 
BRANCH  18  21
ATOM     19  O   UNL     1       0.436  12.555  19.988  0.00  0.00    +0.000 OA
ATOM     20  C   UNL     1      -0.586  11.896  20.145  0.00  0.00    +0.000 C 
ATOM     21  N   UNL     1      -0.584  10.583  20.564  0.00  0.00    +0.000 N 
ATOM     22  H   UNL     1      -1.467  10.165  20.836  0.00  0.00    +0.000 HD
BRANCH  20  23
ATOM     23  C   UNL     1      -1.974  12.459  19.878  0.00  0.00    +0.000 C 
BRANCH  23  24
ATOM     24  C   UNL     1      -2.647  11.852  18.675  0.00  0.00    +0.000 A 
ATOM     25  C   UNL     1      -4.042  11.698  18.643  0.00  0.00    +0.000 A 
ATOM     26  C   UNL     1      -4.670  11.163  17.521  0.00  0.00    +0.000 A 
ATOM     27  C   UNL     1      -3.918  10.780  16.413  0.00  0.00    +0.000 A 
ATOM     28  C   UNL     1      -2.533  10.934  16.428  0.00  0.00    +0.000 A 
ATOM     29  C   UNL     1      -1.899  11.469  17.551  0.00  0.00    +0.000 A 
ENDBRANCH  23  24
ENDBRANCH  20  23
ENDBRANCH  18  21
ENDBRANCH   1  18
TORSDOF 5
ENDMDL
MODEL 8
REMARK VINA RESULT:      -8.2      5.414      7.507
REMARK  Name = 
REMARK  5 active torsions:
REMARK  status: ('A' for Active; 'I' for Inactive)
REMARK    1  A    between atoms: C_2  and  C_3
REMARK    2  A    between atoms: C_3  and  C_4
REMARK    3  A    between atoms: N_10  and  C_11
REMARK    4  A    between atoms: C_11  and  C_12
REMARK    5  A    between atoms: N_21  and  C_22
REMARK                            x       y       z     vdW  Elec       q    Type
REMARK                         _______ _______ _______ _____ _____    ______ ____
ROOT
ATOM      1  C   UNL     1       2.661   5.336  20.064  0.00  0.00    +0.000 C 
ATOM      2  C   UNL     1       1.873   4.349  19.187  0.00  0.00    +0.000 C 
ATOM      3  C   UNL     1       2.811   3.535  18.316  0.00  0.00    +0.000 C 
ATOM      4  C   UNL     1       3.653   4.452  17.449  0.00  0.00    +0.000 C 
ATOM      5  N   UNL     1       4.405   5.412  18.263  0.00  0.00    +0.000 N 
ATOM      6  C   UNL     1       5.754   5.261  18.470  0.00  0.00    +0.000 A 
ATOM      7  N   UNL     1       6.435   5.480  19.579  0.00  0.00    +0.000 NA
ATOM      8  N   UNL     1       7.698   4.986  19.378  0.00  0.00    +0.000 NA
ATOM      9  N   UNL     1       7.832   4.491  18.157  0.00  0.00    +0.000 NA
ATOM     10  N   UNL     1       6.679   4.796  17.515  0.00  0.00    +0.000 N 
ATOM     11  C   UNL     1       3.618   6.202  19.220  0.00  0.00    +0.000 C 
ENDROOT
BRANCH  10  12
ATOM     12  C   UNL     1       6.547   4.646  16.114  0.00  0.00    +0.000 A 
ATOM     13  C   UNL     1       7.302   5.456  15.258  0.00  0.00    +0.000 A 
ATOM     14  C   UNL     1       7.304   5.190  13.886  0.00  0.00    +0.000 A 
ATOM     15  C   UNL     1       6.529   4.149  13.368  0.00  0.00    +0.000 A 
ATOM     16  C   UNL     1       5.728   3.384  14.215  0.00  0.00    +0.000 A 
ATOM     17  C   UNL     1       5.727   3.638  15.585  0.00  0.00    +0.000 A 
ENDBRANCH  10  12
BRANCH   1  18
ATOM     18  C   UNL     1       1.692   6.249  20.834  0.00  0.00    +0.000 C 
BRANCH  18  21
ATOM     19  O   UNL     1      -0.097   8.310  21.594  0.00  0.00    +0.000 OA
ATOM     20  C   UNL     1       0.807   8.562  20.805  0.00  0.00    +0.000 C 
ATOM     21  N   UNL     1       1.731   7.628  20.387  0.00  0.00    +0.000 N 
ATOM     22  H   UNL     1       2.334   7.866  19.607  0.00  0.00    +0.000 HD
BRANCH  20  23
ATOM     23  C   UNL     1       1.013   9.947  20.211  0.00  0.00    +0.000 C 
BRANCH  23  24
ATOM     24  C   UNL     1      -0.196  10.473  19.483  0.00  0.00    +0.000 A 
ATOM     25  C   UNL     1      -0.545   9.962  18.223  0.00  0.00    +0.000 A 
ATOM     26  C   UNL     1      -1.679  10.426  17.559  0.00  0.00    +0.000 A 
ATOM     27  C   UNL     1      -2.484  11.401  18.145  0.00  0.00    +0.000 A 
ATOM     28  C   UNL     1      -2.154  11.911  19.399  0.00  0.00    +0.000 A 
ATOM     29  C   UNL     1      -1.018  11.450  20.067  0.00  0.00    +0.000 A 
ENDBRANCH  23  24
ENDBRANCH  20  23
ENDBRANCH  18  21
ENDBRANCH   1  18
TORSDOF 5
ENDMDL
MODEL 9
REMARK VINA RESULT:      -8.1      6.544      7.858
REMARK  Name = 
REMARK  5 active torsions:
REMARK  status: ('A' for Active; 'I' for Inactive)
REMARK    1  A    between atoms: C_2  and  C_3
REMARK    2  A    between atoms: C_3  and  C_4
REMARK    3  A    between atoms: N_10  and  C_11
REMARK    4  A    between atoms: C_11  and  C_12
REMARK    5  A    between atoms: N_21  and  C_22
REMARK                            x       y       z     vdW  Elec       q    Type
REMARK                         _______ _______ _______ _____ _____    ______ ____
ROOT
ATOM      1  C   UNL     1       1.233   7.952  19.835  0.00  0.00    +0.000 C 
ATOM      2  C   UNL     1       1.916   8.963  18.899  0.00  0.00    +0.000 C 
ATOM      3  C   UNL     1       2.468   8.270  17.668  0.00  0.00    +0.000 C 
ATOM      4  C   UNL     1       3.447   7.183  18.071  0.00  0.00    +0.000 C 
ATOM      5  N   UNL     1       2.822   6.213  18.974  0.00  0.00    +0.000 N 
ATOM      6  C   UNL     1       2.455   4.966  18.530  0.00  0.00    +0.000 A 
ATOM      7  N   UNL     1       1.372   4.279  18.841  0.00  0.00    +0.000 NA
ATOM      8  N   UNL     1       1.324   3.201  17.995  0.00  0.00    +0.000 NA
ATOM      9  N   UNL     1       2.370   3.181  17.183  0.00  0.00    +0.000 NA
ATOM     10  N   UNL     1       3.174   4.185  17.605  0.00  0.00    +0.000 N 
ATOM     11  C   UNL     1       2.165   6.769  20.165  0.00  0.00    +0.000 C 
ENDROOT
BRANCH  10  12
ATOM     12  C   UNL     1       4.504   4.318  17.137  0.00  0.00    +0.000 A 
ATOM     13  C   UNL     1       4.741   4.513  15.772  0.00  0.00    +0.000 A 
ATOM     14  C   UNL     1       6.033   4.819  15.336  0.00  0.00    +0.000 A 
ATOM     15  C   UNL     1       7.086   4.892  16.250  0.00  0.00    +0.000 A 
ATOM     16  C   UNL     1       6.861   4.635  17.601  0.00  0.00    +0.000 A 
ATOM     17  C   UNL     1       5.574   4.337  18.045  0.00  0.00    +0.000 A 
ENDBRANCH  10  12
BRANCH   1  18
ATOM     18  C   UNL     1       0.804   8.645  21.139  0.00  0.00    +0.000 C 
BRANCH  18  21
ATOM     19  O   UNL     1      -0.055  10.473  23.125  0.00  0.00    +0.000 OA
ATOM     20  C   UNL     1      -0.334  10.689  21.951  0.00  0.00    +0.000 C 
ATOM     21  N   UNL     1       0.050   9.864  20.916  0.00  0.00    +0.000 N 
ATOM     22  H   UNL     1      -0.364  10.015  20.003  0.00  0.00    +0.000 HD
BRANCH  20  23
ATOM     23  C   UNL     1      -1.129  11.909  21.509  0.00  0.00    +0.000 C 
BRANCH  23  24
ATOM     24  C   UNL     1      -1.793  12.637  22.648  0.00  0.00    +0.000 A 
ATOM     25  C   UNL     1      -1.199  13.784  23.200  0.00  0.00    +0.000 A 
ATOM     26  C   UNL     1      -1.825  14.477  24.234  0.00  0.00    +0.000 A 
ATOM     27  C   UNL     1      -3.052  14.041  24.729  0.00  0.00    +0.000 A 
ATOM     28  C   UNL     1      -3.656  12.909  24.184  0.00  0.00    +0.000 A 
ATOM     29  C   UNL     1      -3.033  12.211  23.148  0.00  0.00    +0.000 A 
ENDBRANCH  23  24
ENDBRANCH  20  23
ENDBRANCH  18  21
ENDBRANCH   1  18
TORSDOF 5
ENDMDL
