MODEL 1
REMARK VINA RESULT:      -6.9      0.000      0.000
REMARK  Name = 
REMARK  9 active torsions:
REMARK  status: ('A' for Active; 'I' for Inactive)
REMARK    1  A    between atoms: C_1  and  O_2
REMARK    2  A    between atoms: O_2  and  C_3
REMARK    3  A    between atoms: C_6  and  C_7
REMARK    4  A    between atoms: C_7  and  C_8
REMARK    5  A    between atoms: C_8  and  N_9
REMARK    6  A    between atoms: C_10  and  C_11
REMARK    7  A    between atoms: C_14  and  C_15
REMARK    8  A    between atoms: C_17  and  O_18
REMARK    9  A    between atoms: O_18  and  C_19
REMARK                            x       y       z     vdW  Elec       q    Type
REMARK                         _______ _______ _______ _____ _____    ______ ____
ROOT
ATOM      1  C   UNL     1       7.001   5.006  14.723  0.00  0.00    +0.000 A 
ATOM      2  C   UNL     1       6.219   3.908  14.344  0.00  0.00    +0.000 A 
ATOM      3  C   UNL     1       5.298   3.343  15.227  0.00  0.00    +0.000 A 
ATOM      4  C   UNL     1       5.171   3.824  16.530  0.00  0.00    +0.000 A 
ATOM      5  C   UNL     1       6.017   4.872  16.928  0.00  0.00    +0.000 A 
ATOM      6  C   UNL     1       6.941   5.462  16.045  0.00  0.00    +0.000 A 
ENDROOT
BRANCH   1   8
ATOM      7  C   UNL     1       7.726   5.138  12.476  0.00  0.00    +0.000 C 
ATOM      8  O   UNL     1       7.820   5.625  13.816  0.00  0.00    +0.000 OA
ENDBRANCH   1   8
BRANCH   6   9
ATOM      9  O   UNL     1       7.656   6.469  16.642  0.00  0.00    +0.000 OA
ATOM     10  C   UNL     1       7.382   6.788  17.997  0.00  0.00    +0.000 C 
ENDBRANCH   6   9
BRANCH   4  11
ATOM     11  C   UNL     1       4.112   3.326  17.489  0.00  0.00    +0.000 C 
BRANCH  11  12
ATOM     12  C   UNL     1       2.737   3.978  17.331  0.00  0.00    +0.000 C 
BRANCH  12  13
ATOM     13  N   UNL     1       2.150   4.380  18.603  0.00  0.00    +0.000 N 
ATOM     14  C   UNL     1       2.403   5.561  19.271  0.00  0.00    +0.000 A 
ATOM     15  C   UNL     1       3.252   6.664  18.742  0.00  0.00    +0.000 C 
ATOM     16  C   UNL     1       1.752   5.492  20.487  0.00  0.00    +0.000 A 
ATOM     17  C   UNL     1       1.066   4.262  20.544  0.00  0.00    +0.000 A 
ATOM     18  C   UNL     1       1.309   3.588  19.365  0.00  0.00    +0.000 A 
ATOM     19  C   UNL     1       0.807   2.254  18.934  0.00  0.00    +0.000 C 
ENDBRANCH  12  13
ENDBRANCH  11  12
ENDBRANCH   4  11
TORSDOF 5
ENDMDL
MODEL 2
REMARK VINA RESULT:      -6.8      1.157      1.715
REMARK  Name = 
REMARK  9 active torsions:
REMARK  status: ('A' for Active; 'I' for Inactive)
REMARK    1  A    between atoms: C_1  and  O_2
REMARK    2  A    between atoms: O_2  and  C_3
REMARK    3  A    between atoms: C_6  and  C_7
REMARK    4  A    between atoms: C_7  and  C_8
REMARK    5  A    between atoms: C_8  and  N_9
REMARK    6  A    between atoms: C_10  and  C_11
REMARK    7  A    between atoms: C_14  and  C_15
REMARK    8  A    between atoms: C_17  and  O_18
REMARK    9  A    between atoms: O_18  and  C_19
REMARK                            x       y       z     vdW  Elec       q    Type
REMARK                         _______ _______ _______ _____ _____    ______ ____
ROOT
ATOM      1  C   UNL     1       6.793   5.022  15.731  0.00  0.00    +0.000 A 
ATOM      2  C   UNL     1       5.703   4.149  15.846  0.00  0.00    +0.000 A 
ATOM      3  C   UNL     1       4.618   4.460  16.667  0.00  0.00    +0.000 A 
ATOM      4  C   UNL     1       4.616   5.623  17.437  0.00  0.00    +0.000 A 
ATOM      5  C   UNL     1       5.749   6.451  17.378  0.00  0.00    +0.000 A 
ATOM      6  C   UNL     1       6.845   6.159  16.544  0.00  0.00    +0.000 A 
ENDROOT
BRANCH   1   8
ATOM      7  C   UNL     1       7.493   5.044  13.472  0.00  0.00    +0.000 C 
ATOM      8  O   UNL     1       7.800   4.765  14.839  0.00  0.00    +0.000 OA
ENDBRANCH   1   8
BRANCH   6   9
ATOM      9  O   UNL     1       7.833   7.106  16.641  0.00  0.00    +0.000 OA
ATOM     10  C   UNL     1       7.741   8.086  17.662  0.00  0.00    +0.000 C 
ENDBRANCH   6   9
BRANCH   4  11
ATOM     11  C   UNL     1       3.420   6.064  18.253  0.00  0.00    +0.000 C 
BRANCH  11  12
ATOM     12  C   UNL     1       2.157   5.223  18.057  0.00  0.00    +0.000 C 
BRANCH  12  13
ATOM     13  N   UNL     1       1.901   4.316  19.169  0.00  0.00    +0.000 N 
ATOM     14  C   UNL     1       1.594   4.692  20.461  0.00  0.00    +0.000 A 
ATOM     15  C   UNL     1       1.380   6.097  20.903  0.00  0.00    +0.000 C 
ATOM     16  C   UNL     1       1.556   3.541  21.224  0.00  0.00    +0.000 A 
ATOM     17  C   UNL     1       1.813   2.446  20.374  0.00  0.00    +0.000 A 
ATOM     18  C   UNL     1       2.011   2.939  19.100  0.00  0.00    +0.000 A 
ATOM     19  C   UNL     1       2.305   2.190  17.847  0.00  0.00    +0.000 C 
ENDBRANCH  12  13
ENDBRANCH  11  12
ENDBRANCH   4  11
TORSDOF 5
ENDMDL
MODEL 3
REMARK VINA RESULT:      -6.8      1.293      2.189
REMARK  Name = 
REMARK  9 active torsions:
REMARK  status: ('A' for Active; 'I' for Inactive)
REMARK    1  A    between atoms: C_1  and  O_2
REMARK    2  A    between atoms: O_2  and  C_3
REMARK    3  A    between atoms: C_6  and  C_7
REMARK    4  A    between atoms: C_7  and  C_8
REMARK    5  A    between atoms: C_8  and  N_9
REMARK    6  A    between atoms: C_10  and  C_11
REMARK    7  A    between atoms: C_14  and  C_15
REMARK    8  A    between atoms: C_17  and  O_18
REMARK    9  A    between atoms: O_18  and  C_19
REMARK                            x       y       z     vdW  Elec       q    Type
REMARK                         _______ _______ _______ _____ _____    ______ ____
ROOT
ATOM      1  C   UNL     1       6.759   4.959  15.577  0.00  0.00    +0.000 A 
ATOM      2  C   UNL     1       5.640   4.119  15.518  0.00  0.00    +0.000 A 
ATOM      3  C   UNL     1       4.503   4.382  16.285  0.00  0.00    +0.000 A 
ATOM      4  C   UNL     1       4.474   5.458  17.172  0.00  0.00    +0.000 A 
ATOM      5  C   UNL     1       5.631   6.247  17.285  0.00  0.00    +0.000 A 
ATOM      6  C   UNL     1       6.779   6.004  16.508  0.00  0.00    +0.000 A 
ENDROOT
BRANCH   1   8
ATOM      7  C   UNL     1       7.583   5.051  13.362  0.00  0.00    +0.000 C 
ATOM      8  O   UNL     1       7.825   4.759  14.740  0.00  0.00    +0.000 OA
ENDBRANCH   1   8
BRANCH   6   9
ATOM      9  O   UNL     1       7.784   6.898  16.777  0.00  0.00    +0.000 OA
ATOM     10  C   UNL     1       7.485   8.042  17.562  0.00  0.00    +0.000 C 
ENDBRANCH   6   9
BRANCH   4  11
ATOM     11  C   UNL     1       3.231   5.855  17.939  0.00  0.00    +0.000 C 
BRANCH  11  12
ATOM     12  C   UNL     1       2.207   4.736  18.135  0.00  0.00    +0.000 C 
BRANCH  12  13
ATOM     13  N   UNL     1       2.330   4.075  19.428  0.00  0.00    +0.000 N 
ATOM     14  C   UNL     1       2.731   2.770  19.631  0.00  0.00    +0.000 A 
ATOM     15  C   UNL     1       3.197   1.854  18.554  0.00  0.00    +0.000 C 
ATOM     16  C   UNL     1       2.588   2.502  20.979  0.00  0.00    +0.000 A 
ATOM     17  C   UNL     1       2.124   3.675  21.608  0.00  0.00    +0.000 A 
ATOM     18  C   UNL     1       1.981   4.646  20.639  0.00  0.00    +0.000 A 
ATOM     19  C   UNL     1       1.529   6.058  20.793  0.00  0.00    +0.000 C 
ENDBRANCH  12  13
ENDBRANCH  11  12
ENDBRANCH   4  11
TORSDOF 5
ENDMDL
MODEL 4
REMARK VINA RESULT:      -6.8      1.316      2.015
REMARK  Name = 
REMARK  9 active torsions:
REMARK  status: ('A' for Active; 'I' for Inactive)
REMARK    1  A    between atoms: C_1  and  O_2
REMARK    2  A    between atoms: O_2  and  C_3
REMARK    3  A    between atoms: C_6  and  C_7
REMARK    4  A    between atoms: C_7  and  C_8
REMARK    5  A    between atoms: C_8  and  N_9
REMARK    6  A    between atoms: C_10  and  C_11
REMARK    7  A    between atoms: C_14  and  C_15
REMARK    8  A    between atoms: C_17  and  O_18
REMARK    9  A    between atoms: O_18  and  C_19
REMARK                            x       y       z     vdW  Elec       q    Type
REMARK                         _______ _______ _______ _____ _____    ______ ____
ROOT
ATOM      1  C   UNL     1       7.001   5.242  15.706  0.00  0.00    +0.000 A 
ATOM      2  C   UNL     1       6.160   4.151  15.960  0.00  0.00    +0.000 A 
ATOM      3  C   UNL     1       5.338   4.126  17.088  0.00  0.00    +0.000 A 
ATOM      4  C   UNL     1       5.375   5.162  18.021  0.00  0.00    +0.000 A 
ATOM      5  C   UNL     1       6.281   6.212  17.801  0.00  0.00    +0.000 A 
ATOM      6  C   UNL     1       7.105   6.260  16.660  0.00  0.00    +0.000 A 
ENDROOT
BRANCH   1   8
ATOM      7  C   UNL     1       7.069   4.776  13.388  0.00  0.00    +0.000 C 
ATOM      8  O   UNL     1       7.720   5.312  14.542  0.00  0.00    +0.000 OA
ENDBRANCH   1   8
BRANCH   6   9
ATOM      9  O   UNL     1       7.904   7.375  16.647  0.00  0.00    +0.000 OA
ATOM     10  C   UNL     1       7.882   8.242  17.770  0.00  0.00    +0.000 C 
ENDBRANCH   6   9
BRANCH   4  11
ATOM     11  C   UNL     1       4.425   5.240  19.197  0.00  0.00    +0.000 C 
BRANCH  11  12
ATOM     12  C   UNL     1       4.120   3.902  19.872  0.00  0.00    +0.000 C 
BRANCH  12  13
ATOM     13  N   UNL     1       2.771   3.423  19.598  0.00  0.00    +0.000 N 
ATOM     14  C   UNL     1       1.602   4.014  20.034  0.00  0.00    +0.000 A 
ATOM     15  C   UNL     1       1.534   5.300  20.780  0.00  0.00    +0.000 C 
ATOM     16  C   UNL     1       0.561   3.181  19.669  0.00  0.00    +0.000 A 
ATOM     17  C   UNL     1       1.106   2.084  18.973  0.00  0.00    +0.000 A 
ATOM     18  C   UNL     1       2.475   2.252  18.923  0.00  0.00    +0.000 A 
ATOM     19  C   UNL     1       3.500   1.374  18.292  0.00  0.00    +0.000 C 
ENDBRANCH  12  13
ENDBRANCH  11  12
ENDBRANCH   4  11
TORSDOF 5
ENDMDL
MODEL 5
REMARK VINA RESULT:      -6.6      1.332      1.681
REMARK  Name = 
REMARK  9 active torsions:
REMARK  status: ('A' for Active; 'I' for Inactive)
REMARK    1  A    between atoms: C_1  and  O_2
REMARK    2  A    between atoms: O_2  and  C_3
REMARK    3  A    between atoms: C_6  and  C_7
REMARK    4  A    between atoms: C_7  and  C_8
REMARK    5  A    between atoms: C_8  and  N_9
REMARK    6  A    between atoms: C_10  and  C_11
REMARK    7  A    between atoms: C_14  and  C_15
REMARK    8  A    between atoms: C_17  and  O_18
REMARK    9  A    between atoms: O_18  and  C_19
REMARK                            x       y       z     vdW  Elec       q    Type
REMARK                         _______ _______ _______ _____ _____    ______ ____
ROOT
ATOM      1  C   UNL     1       6.990   5.242  14.791  0.00  0.00    +0.000 A 
ATOM      2  C   UNL     1       6.051   4.235  14.534  0.00  0.00    +0.000 A 
ATOM      3  C   UNL     1       5.018   3.970  15.434  0.00  0.00    +0.000 A 
ATOM      4  C   UNL     1       4.927   4.665  16.640  0.00  0.00    +0.000 A 
ATOM      5  C   UNL     1       5.919   5.615  16.927  0.00  0.00    +0.000 A 
ATOM      6  C   UNL     1       6.960   5.905  16.023  0.00  0.00    +0.000 A 
ENDROOT
BRANCH   1   8
ATOM      7  C   UNL     1       7.708   5.040  12.547  0.00  0.00    +0.000 C 
ATOM      8  O   UNL     1       7.933   5.572  13.854  0.00  0.00    +0.000 OA
ENDBRANCH   1   8
BRANCH   6   9
ATOM      9  O   UNL     1       7.809   6.868  16.506  0.00  0.00    +0.000 OA
ATOM     10  C   UNL     1       7.527   7.456  17.765  0.00  0.00    +0.000 C 
ENDBRANCH   6   9
BRANCH   4  11
ATOM     11  C   UNL     1       3.765   4.498  17.596  0.00  0.00    +0.000 C 
BRANCH  11  12
ATOM     12  C   UNL     1       4.068   4.855  19.053  0.00  0.00    +0.000 C 
BRANCH  12  13
ATOM     13  N   UNL     1       3.236   4.125  20.000  0.00  0.00    +0.000 N 
ATOM     14  C   UNL     1       2.167   4.644  20.701  0.00  0.00    +0.000 A 
ATOM     15  C   UNL     1       1.632   6.023  20.525  0.00  0.00    +0.000 C 
ATOM     16  C   UNL     1       1.738   3.667  21.579  0.00  0.00    +0.000 A 
ATOM     17  C   UNL     1       2.539   2.524  21.383  0.00  0.00    +0.000 A 
ATOM     18  C   UNL     1       3.455   2.816  20.392  0.00  0.00    +0.000 A 
ATOM     19  C   UNL     1       4.514   1.941  19.816  0.00  0.00    +0.000 C 
ENDBRANCH  12  13
ENDBRANCH  11  12
ENDBRANCH   4  11
TORSDOF 5
ENDMDL
MODEL 6
REMARK VINA RESULT:      -6.5      1.067      2.112
REMARK  Name = 
REMARK  9 active torsions:
REMARK  status: ('A' for Active; 'I' for Inactive)
REMARK    1  A    between atoms: C_1  and  O_2
REMARK    2  A    between atoms: O_2  and  C_3
REMARK    3  A    between atoms: C_6  and  C_7
REMARK    4  A    between atoms: C_7  and  C_8
REMARK    5  A    between atoms: C_8  and  N_9
REMARK    6  A    between atoms: C_10  and  C_11
REMARK    7  A    between atoms: C_14  and  C_15
REMARK    8  A    between atoms: C_17  and  O_18
REMARK    9  A    between atoms: O_18  and  C_19
REMARK                            x       y       z     vdW  Elec       q    Type
REMARK                         _______ _______ _______ _____ _____    ______ ____
ROOT
ATOM      1  C   UNL     1       6.743   4.968  15.488  0.00  0.00    +0.000 A 
ATOM      2  C   UNL     1       5.568   4.587  14.828  0.00  0.00    +0.000 A 
ATOM      3  C   UNL     1       4.497   4.033  15.530  0.00  0.00    +0.000 A 
ATOM      4  C   UNL     1       4.590   3.794  16.901  0.00  0.00    +0.000 A 
ATOM      5  C   UNL     1       5.801   4.103  17.541  0.00  0.00    +0.000 A 
ATOM      6  C   UNL     1       6.886   4.675  16.849  0.00  0.00    +0.000 A 
ENDROOT
BRANCH   1   8
ATOM      7  C   UNL     1       7.839   5.305  13.420  0.00  0.00    +0.000 C 
ATOM      8  O   UNL     1       7.745   5.613  14.812  0.00  0.00    +0.000 OA
ENDBRANCH   1   8
BRANCH   6   9
ATOM      9  O   UNL     1       7.962   4.899  17.670  0.00  0.00    +0.000 OA
ATOM     10  C   UNL     1       7.762   5.626  18.872  0.00  0.00    +0.000 C 
ENDBRANCH   6   9
BRANCH   4  11
ATOM     11  C   UNL     1       3.421   3.305  17.730  0.00  0.00    +0.000 C 
BRANCH  11  12
ATOM     12  C   UNL     1       2.193   4.218  17.720  0.00  0.00    +0.000 C 
BRANCH  12  13
ATOM     13  N   UNL     1       2.120   5.082  18.890  0.00  0.00    +0.000 N 
ATOM     14  C   UNL     1       1.540   4.755  20.099  0.00  0.00    +0.000 A 
ATOM     15  C   UNL     1       0.977   3.417  20.430  0.00  0.00    +0.000 C 
ATOM     16  C   UNL     1       1.569   5.889  20.888  0.00  0.00    +0.000 A 
ATOM     17  C   UNL     1       2.207   6.911  20.157  0.00  0.00    +0.000 A 
ATOM     18  C   UNL     1       2.556   6.395  18.926  0.00  0.00    +0.000 A 
ATOM     19  C   UNL     1       3.257   7.069  17.798  0.00  0.00    +0.000 C 
ENDBRANCH  12  13
ENDBRANCH  11  12
ENDBRANCH   4  11
TORSDOF 5
ENDMDL
MODEL 7
REMARK VINA RESULT:      -6.5      1.676      3.344
REMARK  Name = 
REMARK  9 active torsions:
REMARK  status: ('A' for Active; 'I' for Inactive)
REMARK    1  A    between atoms: C_1  and  O_2
REMARK    2  A    between atoms: O_2  and  C_3
REMARK    3  A    between atoms: C_6  and  C_7
REMARK    4  A    between atoms: C_7  and  C_8
REMARK    5  A    between atoms: C_8  and  N_9
REMARK    6  A    between atoms: C_10  and  C_11
REMARK    7  A    between atoms: C_14  and  C_15
REMARK    8  A    between atoms: C_17  and  O_18
REMARK    9  A    between atoms: O_18  and  C_19
REMARK                            x       y       z     vdW  Elec       q    Type
REMARK                         _______ _______ _______ _____ _____    ______ ____
ROOT
ATOM      1  C   UNL     1       5.714   6.253  16.995  0.00  0.00    +0.000 A 
ATOM      2  C   UNL     1       4.555   6.367  17.774  0.00  0.00    +0.000 A 
ATOM      3  C   UNL     1       3.600   5.349  17.792  0.00  0.00    +0.000 A 
ATOM      4  C   UNL     1       3.750   4.215  16.993  0.00  0.00    +0.000 A 
ATOM      5  C   UNL     1       4.873   4.147  16.154  0.00  0.00    +0.000 A 
ATOM      6  C   UNL     1       5.853   5.159  16.134  0.00  0.00    +0.000 A 
ENDROOT
BRANCH   1   8
ATOM      7  C   UNL     1       7.698   6.972  18.062  0.00  0.00    +0.000 C 
ATOM      8  O   UNL     1       6.699   7.203  17.068  0.00  0.00    +0.000 OA
ENDBRANCH   1   8
BRANCH   6   9
ATOM      9  O   UNL     1       6.863   4.882  15.248  0.00  0.00    +0.000 OA
ATOM     10  C   UNL     1       6.543   4.210  14.040  0.00  0.00    +0.000 C 
ENDBRANCH   6   9
BRANCH   4  11
ATOM     11  C   UNL     1       2.806   3.034  17.061  0.00  0.00    +0.000 C 
BRANCH  11  12
ATOM     12  C   UNL     1       3.168   1.975  18.104  0.00  0.00    +0.000 C 
BRANCH  12  13
ATOM     13  N   UNL     1       2.673   2.297  19.436  0.00  0.00    +0.000 N 
ATOM     14  C   UNL     1       1.374   2.640  19.752  0.00  0.00    +0.000 A 
ATOM     15  C   UNL     1       0.243   2.640  18.785  0.00  0.00    +0.000 C 
ATOM     16  C   UNL     1       1.357   2.990  21.088  0.00  0.00    +0.000 A 
ATOM     17  C   UNL     1       2.660   2.826  21.598  0.00  0.00    +0.000 A 
ATOM     18  C   UNL     1       3.464   2.383  20.568  0.00  0.00    +0.000 A 
ATOM     19  C   UNL     1       4.917   2.053  20.595  0.00  0.00    +0.000 C 
ENDBRANCH  12  13
ENDBRANCH  11  12
ENDBRANCH   4  11
TORSDOF 5
ENDMDL
MODEL 8
REMARK VINA RESULT:      -6.5      1.657      3.096
REMARK  Name = 
REMARK  9 active torsions:
REMARK  status: ('A' for Active; 'I' for Inactive)
REMARK    1  A    between atoms: C_1  and  O_2
REMARK    2  A    between atoms: O_2  and  C_3
REMARK    3  A    between atoms: C_6  and  C_7
REMARK    4  A    between atoms: C_7  and  C_8
REMARK    5  A    between atoms: C_8  and  N_9
REMARK    6  A    between atoms: C_10  and  C_11
REMARK    7  A    between atoms: C_14  and  C_15
REMARK    8  A    between atoms: C_17  and  O_18
REMARK    9  A    between atoms: O_18  and  C_19
REMARK                            x       y       z     vdW  Elec       q    Type
REMARK                         _______ _______ _______ _____ _____    ______ ____
ROOT
ATOM      1  C   UNL     1       6.503   5.881  16.966  0.00  0.00    +0.000 A 
ATOM      2  C   UNL     1       5.777   5.756  18.157  0.00  0.00    +0.000 A 
ATOM      3  C   UNL     1       4.636   4.954  18.222  0.00  0.00    +0.000 A 
ATOM      4  C   UNL     1       4.159   4.299  17.087  0.00  0.00    +0.000 A 
ATOM      5  C   UNL     1       4.845   4.496  15.878  0.00  0.00    +0.000 A 
ATOM      6  C   UNL     1       6.005   5.290  15.799  0.00  0.00    +0.000 A 
ENDROOT
BRANCH   1   8
ATOM      7  C   UNL     1       7.628   7.892  17.495  0.00  0.00    +0.000 C 
ATOM      8  O   UNL     1       7.682   6.578  16.938  0.00  0.00    +0.000 OA
ENDBRANCH   1   8
BRANCH   6   9
ATOM      9  O   UNL     1       6.514   5.336  14.525  0.00  0.00    +0.000 OA
ATOM     10  C   UNL     1       6.506   4.151  13.745  0.00  0.00    +0.000 C 
ENDBRANCH   6   9
BRANCH   4  11
ATOM     11  C   UNL     1       2.997   3.329  17.127  0.00  0.00    +0.000 C 
BRANCH  11  12
ATOM     12  C   UNL     1       3.171   2.151  18.088  0.00  0.00    +0.000 C 
BRANCH  12  13
ATOM     13  N   UNL     1       2.691   2.441  19.433  0.00  0.00    +0.000 N 
ATOM     14  C   UNL     1       3.446   2.388  20.587  0.00  0.00    +0.000 A 
ATOM     15  C   UNL     1       4.909   2.117  20.626  0.00  0.00    +0.000 C 
ATOM     16  C   UNL     1       2.588   2.605  21.648  0.00  0.00    +0.000 A 
ATOM     17  C   UNL     1       1.298   2.826  21.127  0.00  0.00    +0.000 A 
ATOM     18  C   UNL     1       1.377   2.735  19.752  0.00  0.00    +0.000 A 
ATOM     19  C   UNL     1       0.293   2.898  18.743  0.00  0.00    +0.000 C 
ENDBRANCH  12  13
ENDBRANCH  11  12
ENDBRANCH   4  11
TORSDOF 5
ENDMDL
MODEL 9
REMARK VINA RESULT:      -6.4      1.915      2.584
REMARK  Name = 
REMARK  9 active torsions:
REMARK  status: ('A' for Active; 'I' for Inactive)
REMARK    1  A    between atoms: C_1  and  O_2
REMARK    2  A    between atoms: O_2  and  C_3
REMARK    3  A    between atoms: C_6  and  C_7
REMARK    4  A    between atoms: C_7  and  C_8
REMARK    5  A    between atoms: C_8  and  N_9
REMARK    6  A    between atoms: C_10  and  C_11
REMARK    7  A    between atoms: C_14  and  C_15
REMARK    8  A    between atoms: C_17  and  O_18
REMARK    9  A    between atoms: O_18  and  C_19
REMARK                            x       y       z     vdW  Elec       q    Type
REMARK                         _______ _______ _______ _____ _____    ______ ____
ROOT
ATOM      1  C   UNL     1       7.044   6.337  17.957  0.00  0.00    +0.000 A 
ATOM      2  C   UNL     1       6.440   6.275  16.695  0.00  0.00    +0.000 A 
ATOM      3  C   UNL     1       5.406   5.373  16.437  0.00  0.00    +0.000 A 
ATOM      4  C   UNL     1       4.985   4.472  17.415  0.00  0.00    +0.000 A 
ATOM      5  C   UNL     1       5.651   4.485  18.651  0.00  0.00    +0.000 A 
ATOM      6  C   UNL     1       6.686   5.399  18.932  0.00  0.00    +0.000 A 
ENDROOT
BRANCH   1   8
ATOM      7  C   UNL     1       7.787   8.548  17.571  0.00  0.00    +0.000 C 
ATOM      8  O   UNL     1       7.978   7.299  18.236  0.00  0.00    +0.000 OA
ENDBRANCH   1   8
BRANCH   6   9
ATOM      9  O   UNL     1       7.187   5.238  20.199  0.00  0.00    +0.000 OA
ATOM     10  C   UNL     1       8.594   5.244  20.380  0.00  0.00    +0.000 C 
ENDBRANCH   6   9
BRANCH   4  11
ATOM     11  C   UNL     1       3.796   3.554  17.227  0.00  0.00    +0.000 C 
BRANCH  11  12
ATOM     12  C   UNL     1       2.431   4.242  17.292  0.00  0.00    +0.000 C 
BRANCH  12  13
ATOM     13  N   UNL     1       1.959   4.437  18.657  0.00  0.00    +0.000 N 
ATOM     14  C   UNL     1       2.142   5.573  19.418  0.00  0.00    +0.000 A 
ATOM     15  C   UNL     1       2.776   6.826  18.925  0.00  0.00    +0.000 C 
ATOM     16  C   UNL     1       1.658   5.301  20.684  0.00  0.00    +0.000 A 
ATOM     17  C   UNL     1       1.143   3.989  20.679  0.00  0.00    +0.000 A 
ATOM     18  C   UNL     1       1.322   3.469  19.413  0.00  0.00    +0.000 A 
ATOM     19  C   UNL     1       0.941   2.126  18.895  0.00  0.00    +0.000 C 
ENDBRANCH  12  13
ENDBRANCH  11  12
ENDBRANCH   4  11
TORSDOF 5
ENDMDL
