MODEL 1
REMARK VINA RESULT:      -9.0      0.000      0.000
REMARK  Name = 
REMARK  5 active torsions:
REMARK  status: ('A' for Active; 'I' for Inactive)
REMARK    1  A    between atoms: C_2  and  C_10
REMARK    2  A    between atoms: N_3  and  C_4
REMARK    3  A    between atoms: C_10  and  C_11
REMARK    4  A    between atoms: C_10  and  N_18
REMARK    5  A    between atoms: C_11  and  C_12
REMARK                            x       y       z     vdW  Elec       q    Type
REMARK                         _______ _______ _______ _____ _____    ______ ____
ROOT
ATOM      1  C   UNL     1       5.069   4.274  17.682  0.00  0.00    +0.000 C 
ENDROOT
BRANCH   1   2
ATOM      2  N   UNL     1       5.427   4.604  16.281  0.00  0.00    +0.000 N 
ATOM      3  C   UNL     1       4.544   4.322  15.162  0.00  0.00    +0.000 C 
ATOM      4  C   UNL     1       5.524   4.213  14.055  0.00  0.00    +0.000 A 
ATOM      5  C   UNL     1       5.514   3.405  12.938  0.00  0.00    +0.000 A 
ATOM      6  C   UNL     1       6.609   3.482  12.077  0.00  0.00    +0.000 A 
ATOM      7  C   UNL     1       7.633   4.425  12.292  0.00  0.00    +0.000 A 
ATOM      8  C   UNL     1       7.667   5.186  13.464  0.00  0.00    +0.000 A 
ATOM      9  C   UNL     1       6.645   4.979  14.367  0.00  0.00    +0.000 A 
ATOM     10  C   UNL     1       6.631   5.146  15.843  0.00  0.00    +0.000 C 
ATOM     11  O   UNL     1       7.576   5.516  16.515  0.00  0.00    +0.000 OA
ENDBRANCH   1   2
BRANCH   1  13
ATOM     12  O   UNL     1       5.065   5.938  19.435  0.00  0.00    +0.000 OA
ATOM     13  C   UNL     1       4.502   5.510  18.425  0.00  0.00    +0.000 C 
ATOM     14  N   UNL     1       3.292   6.015  18.008  0.00  0.00    +0.000 N 
ATOM     15  H   UNL     1       2.750   5.468  17.353  0.00  0.00    +0.000 HD
BRANCH  14  16
ATOM     16  C   UNL     1       2.636   7.146  18.568  0.00  0.00    +0.000 A 
ATOM     17  C   UNL     1       2.142   7.176  19.877  0.00  0.00    +0.000 A 
ATOM     18  C   UNL     1       1.454   8.293  20.359  0.00  0.00    +0.000 A 
ATOM     19  C   UNL     1       1.260   9.397  19.537  0.00  0.00    +0.000 A 
ATOM     20  C   UNL     1       1.776   9.395  18.243  0.00  0.00    +0.000 A 
ATOM     21  C   UNL     1       2.471   8.275  17.764  0.00  0.00    +0.000 A 
ENDBRANCH  14  16
ENDBRANCH   1  13
BRANCH   1  22
ATOM     22  C   UNL     1       4.223   2.977  17.797  0.00  0.00    +0.000 C 
BRANCH  22  23
ATOM     23  C   UNL     1       3.182   2.845  18.888  0.00  0.00    +0.000 A 
ATOM     24  C   UNL     1       3.545   2.749  20.241  0.00  0.00    +0.000 A 
ATOM     25  C   UNL     1       2.580   2.661  21.246  0.00  0.00    +0.000 A 
ATOM     26  C   UNL     1       1.224   2.720  20.928  0.00  0.00    +0.000 A 
ATOM     27  C   UNL     1       0.840   2.863  19.600  0.00  0.00    +0.000 A 
ATOM     28  C   UNL     1       1.809   2.923  18.589  0.00  0.00    +0.000 A 
ENDBRANCH  22  23
ENDBRANCH   1  22
TORSDOF 5
ENDMDL
MODEL 2
REMARK VINA RESULT:      -8.6      1.165      6.731
REMARK  Name = 
REMARK  5 active torsions:
REMARK  status: ('A' for Active; 'I' for Inactive)
REMARK    1  A    between atoms: C_2  and  C_10
REMARK    2  A    between atoms: N_3  and  C_4
REMARK    3  A    between atoms: C_10  and  C_11
REMARK    4  A    between atoms: C_10  and  N_18
REMARK    5  A    between atoms: C_11  and  C_12
REMARK                            x       y       z     vdW  Elec       q    Type
REMARK                         _______ _______ _______ _____ _____    ______ ____
ROOT
ATOM      1  C   UNL     1       4.009   6.691  17.472  0.00  0.00    +0.000 C 
ENDROOT
BRANCH   1   2
ATOM      2  N   UNL     1       3.644   5.411  18.126  0.00  0.00    +0.000 N 
ATOM      3  C   UNL     1       2.431   4.683  17.795  0.00  0.00    +0.000 C 
ATOM      4  C   UNL     1       2.204   3.934  19.054  0.00  0.00    +0.000 A 
ATOM      5  C   UNL     1       1.026   3.575  19.673  0.00  0.00    +0.000 A 
ATOM      6  C   UNL     1       1.117   2.904  20.892  0.00  0.00    +0.000 A 
ATOM      7  C   UNL     1       2.367   2.520  21.416  0.00  0.00    +0.000 A 
ATOM      8  C   UNL     1       3.554   2.952  20.816  0.00  0.00    +0.000 A 
ATOM      9  C   UNL     1       3.428   3.740  19.691  0.00  0.00    +0.000 A 
ATOM     10  C   UNL     1       4.341   4.780  19.151  0.00  0.00    +0.000 C 
ATOM     11  O   UNL     1       5.402   5.108  19.650  0.00  0.00    +0.000 OA
ENDBRANCH   1   2
BRANCH   1  13
ATOM     12  O   UNL     1       4.970   7.374  15.361  0.00  0.00    +0.000 OA
ATOM     13  C   UNL     1       4.791   6.448  16.155  0.00  0.00    +0.000 C 
ATOM     14  N   UNL     1       5.147   5.156  15.845  0.00  0.00    +0.000 N 
ATOM     15  H   UNL     1       4.746   4.409  16.394  0.00  0.00    +0.000 HD
BRANCH  14  16
ATOM     16  C   UNL     1       5.873   4.759  14.688  0.00  0.00    +0.000 A 
ATOM     17  C   UNL     1       7.157   5.229  14.389  0.00  0.00    +0.000 A 
ATOM     18  C   UNL     1       7.803   4.851  13.209  0.00  0.00    +0.000 A 
ATOM     19  C   UNL     1       7.173   3.989  12.318  0.00  0.00    +0.000 A 
ATOM     20  C   UNL     1       5.909   3.486  12.618  0.00  0.00    +0.000 A 
ATOM     21  C   UNL     1       5.266   3.863  13.806  0.00  0.00    +0.000 A 
ENDBRANCH  14  16
ENDBRANCH   1  13
BRANCH   1  22
ATOM     22  C   UNL     1       2.814   7.676  17.368  0.00  0.00    +0.000 C 
BRANCH  22  23
ATOM     23  C   UNL     1       2.167   8.219  18.624  0.00  0.00    +0.000 A 
ATOM     24  C   UNL     1       1.455   9.429  18.619  0.00  0.00    +0.000 A 
ATOM     25  C   UNL     1       0.832   9.908  19.773  0.00  0.00    +0.000 A 
ATOM     26  C   UNL     1       0.859   9.163  20.950  0.00  0.00    +0.000 A 
ATOM     27  C   UNL     1       1.517   7.939  20.967  0.00  0.00    +0.000 A 
ATOM     28  C   UNL     1       2.166   7.472  19.816  0.00  0.00    +0.000 A 
ENDBRANCH  22  23
ENDBRANCH   1  22
TORSDOF 5
ENDMDL
MODEL 3
REMARK VINA RESULT:      -8.6      3.486      6.460
REMARK  Name = 
REMARK  5 active torsions:
REMARK  status: ('A' for Active; 'I' for Inactive)
REMARK    1  A    between atoms: C_2  and  C_10
REMARK    2  A    between atoms: N_3  and  C_4
REMARK    3  A    between atoms: C_10  and  C_11
REMARK    4  A    between atoms: C_10  and  N_18
REMARK    5  A    between atoms: C_11  and  C_12
REMARK                            x       y       z     vdW  Elec       q    Type
REMARK                         _______ _______ _______ _____ _____    ______ ____
ROOT
ATOM      1  C   UNL     1       6.689   6.259  16.708  0.00  0.00    +0.000 C 
ENDROOT
BRANCH   1   2
ATOM      2  N   UNL     1       5.549   5.671  17.452  0.00  0.00    +0.000 N 
ATOM      3  C   UNL     1       5.609   4.352  18.058  0.00  0.00    +0.000 C 
ATOM      4  C   UNL     1       4.172   3.989  18.076  0.00  0.00    +0.000 A 
ATOM      5  C   UNL     1       3.565   2.761  17.916  0.00  0.00    +0.000 A 
ATOM      6  C   UNL     1       2.171   2.724  17.932  0.00  0.00    +0.000 A 
ATOM      7  C   UNL     1       1.419   3.885  18.205  0.00  0.00    +0.000 A 
ATOM      8  C   UNL     1       2.043   5.133  18.292  0.00  0.00    +0.000 A 
ATOM      9  C   UNL     1       3.412   5.156  18.125  0.00  0.00    +0.000 A 
ATOM     10  C   UNL     1       4.290   6.240  17.617  0.00  0.00    +0.000 C 
ATOM     11  O   UNL     1       3.909   7.337  17.254  0.00  0.00    +0.000 OA
ENDBRANCH   1   2
BRANCH   1  13
ATOM     12  O   UNL     1       8.019   6.799  18.653  0.00  0.00    +0.000 OA
ATOM     13  C   UNL     1       7.517   7.213  17.606  0.00  0.00    +0.000 C 
ATOM     14  N   UNL     1       7.550   8.547  17.272  0.00  0.00    +0.000 N 
ATOM     15  H   UNL     1       6.908   8.875  16.563  0.00  0.00    +0.000 HD
BRANCH  14  16
ATOM     16  C   UNL     1       8.266   9.554  17.977  0.00  0.00    +0.000 A 
ATOM     17  C   UNL     1       8.971   9.307  19.160  0.00  0.00    +0.000 A 
ATOM     18  C   UNL     1       9.610  10.345  19.844  0.00  0.00    +0.000 A 
ATOM     19  C   UNL     1       9.557  11.642  19.346  0.00  0.00    +0.000 A 
ATOM     20  C   UNL     1       8.887  11.897  18.151  0.00  0.00    +0.000 A 
ATOM     21  C   UNL     1       8.252  10.852  17.464  0.00  0.00    +0.000 A 
ENDBRANCH  14  16
ENDBRANCH   1  13
BRANCH   1  22
ATOM     22  C   UNL     1       7.509   5.197  15.926  0.00  0.00    +0.000 C 
BRANCH  22  23
ATOM     23  C   UNL     1       7.066   4.762  14.545  0.00  0.00    +0.000 A 
ATOM     24  C   UNL     1       7.788   5.119  13.396  0.00  0.00    +0.000 A 
ATOM     25  C   UNL     1       7.394   4.687  12.128  0.00  0.00    +0.000 A 
ATOM     26  C   UNL     1       6.296   3.842  11.982  0.00  0.00    +0.000 A 
ATOM     27  C   UNL     1       5.593   3.434  13.110  0.00  0.00    +0.000 A 
ATOM     28  C   UNL     1       5.973   3.892  14.379  0.00  0.00    +0.000 A 
ENDBRANCH  22  23
ENDBRANCH   1  22
TORSDOF 5
ENDMDL
MODEL 4
REMARK VINA RESULT:      -8.2      1.209      5.850
REMARK  Name = 
REMARK  5 active torsions:
REMARK  status: ('A' for Active; 'I' for Inactive)
REMARK    1  A    between atoms: C_2  and  C_10
REMARK    2  A    between atoms: N_3  and  C_4
REMARK    3  A    between atoms: C_10  and  C_11
REMARK    4  A    between atoms: C_10  and  N_18
REMARK    5  A    between atoms: C_11  and  C_12
REMARK                            x       y       z     vdW  Elec       q    Type
REMARK                         _______ _______ _______ _____ _____    ______ ____
ROOT
ATOM      1  C   UNL     1       4.332   5.094  16.845  0.00  0.00    +0.000 C 
ENDROOT
BRANCH   1   2
ATOM      2  N   UNL     1       3.867   4.055  17.796  0.00  0.00    +0.000 N 
ATOM      3  C   UNL     1       2.608   3.351  17.629  0.00  0.00    +0.000 C 
ATOM      4  C   UNL     1       2.313   2.971  19.032  0.00  0.00    +0.000 A 
ATOM      5  C   UNL     1       1.105   2.867  19.687  0.00  0.00    +0.000 A 
ATOM      6  C   UNL     1       1.134   2.531  21.041  0.00  0.00    +0.000 A 
ATOM      7  C   UNL     1       2.347   2.211  21.682  0.00  0.00    +0.000 A 
ATOM      8  C   UNL     1       3.568   2.392  21.026  0.00  0.00    +0.000 A 
ATOM      9  C   UNL     1       3.513   2.867  19.732  0.00  0.00    +0.000 A 
ATOM     10  C   UNL     1       4.505   3.666  18.969  0.00  0.00    +0.000 C 
ATOM     11  O   UNL     1       5.581   4.040  19.397  0.00  0.00    +0.000 OA
ENDBRANCH   1   2
BRANCH   1  13
ATOM     12  O   UNL     1       4.748   7.446  17.217  0.00  0.00    +0.000 OA
ATOM     13  C   UNL     1       3.947   6.515  17.329  0.00  0.00    +0.000 C 
ATOM     14  N   UNL     1       2.758   6.667  18.005  0.00  0.00    +0.000 N 
ATOM     15  H   UNL     1       2.271   5.832  18.300  0.00  0.00    +0.000 HD
BRANCH  14  16
ATOM     16  C   UNL     1       2.249   7.896  18.506  0.00  0.00    +0.000 A 
ATOM     17  C   UNL     1       1.819   8.067  19.826  0.00  0.00    +0.000 A 
ATOM     18  C   UNL     1       1.273   9.281  20.252  0.00  0.00    +0.000 A 
ATOM     19  C   UNL     1       1.158  10.342  19.361  0.00  0.00    +0.000 A 
ATOM     20  C   UNL     1       1.613  10.197  18.051  0.00  0.00    +0.000 A 
ATOM     21  C   UNL     1       2.166   8.980  17.630  0.00  0.00    +0.000 A 
ENDBRANCH  14  16
ENDBRANCH   1  13
BRANCH   1  22
ATOM     22  C   UNL     1       5.816   4.908  16.429  0.00  0.00    +0.000 C 
BRANCH  22  23
ATOM     23  C   UNL     1       6.175   4.680  14.976  0.00  0.00    +0.000 A 
ATOM     24  C   UNL     1       7.339   5.226  14.413  0.00  0.00    +0.000 A 
ATOM     25  C   UNL     1       7.682   4.986  13.081  0.00  0.00    +0.000 A 
ATOM     26  C   UNL     1       6.897   4.148  12.292  0.00  0.00    +0.000 A 
ATOM     27  C   UNL     1       5.765   3.557  12.841  0.00  0.00    +0.000 A 
ATOM     28  C   UNL     1       5.406   3.822  14.169  0.00  0.00    +0.000 A 
ENDBRANCH  22  23
ENDBRANCH   1  22
TORSDOF 5
ENDMDL
MODEL 5
REMARK VINA RESULT:      -8.2      1.795      5.865
REMARK  Name = 
REMARK  5 active torsions:
REMARK  status: ('A' for Active; 'I' for Inactive)
REMARK    1  A    between atoms: C_2  and  C_10
REMARK    2  A    between atoms: N_3  and  C_4
REMARK    3  A    between atoms: C_10  and  C_11
REMARK    4  A    between atoms: C_10  and  N_18
REMARK    5  A    between atoms: C_11  and  C_12
REMARK                            x       y       z     vdW  Elec       q    Type
REMARK                         _______ _______ _______ _____ _____    ______ ____
ROOT
ATOM      1  C   UNL     1       3.210   6.829  17.635  0.00  0.00    +0.000 C 
ENDROOT
BRANCH   1   2
ATOM      2  N   UNL     1       3.043   5.514  18.301  0.00  0.00    +0.000 N 
ATOM      3  C   UNL     1       1.927   4.630  18.014  0.00  0.00    +0.000 C 
ATOM      4  C   UNL     1       1.848   3.862  19.280  0.00  0.00    +0.000 A 
ATOM      5  C   UNL     1       0.751   3.352  19.941  0.00  0.00    +0.000 A 
ATOM      6  C   UNL     1       0.974   2.705  21.156  0.00  0.00    +0.000 A 
ATOM      7  C   UNL     1       2.283   2.493  21.634  0.00  0.00    +0.000 A 
ATOM      8  C   UNL     1       3.379   3.078  20.992  0.00  0.00    +0.000 A 
ATOM      9  C   UNL     1       3.109   3.837  19.872  0.00  0.00    +0.000 A 
ATOM     10  C   UNL     1       3.855   4.986  19.300  0.00  0.00    +0.000 C 
ATOM     11  O   UNL     1       4.879   5.456  19.760  0.00  0.00    +0.000 OA
ENDBRANCH   1   2
BRANCH   1  13
ATOM     12  O   UNL     1       2.195   7.836  19.584  0.00  0.00    +0.000 OA
ATOM     13  C   UNL     1       2.427   7.941  18.378  0.00  0.00    +0.000 C 
ATOM     14  N   UNL     1       1.887   8.960  17.628  0.00  0.00    +0.000 N 
ATOM     15  H   UNL     1       1.879   8.858  16.623  0.00  0.00    +0.000 HD
BRANCH  14  16
ATOM     16  C   UNL     1       1.152  10.062  18.147  0.00  0.00    +0.000 A 
ATOM     17  C   UNL     1      -0.235  10.039  18.335  0.00  0.00    +0.000 A 
ATOM     18  C   UNL     1      -0.916  11.170  18.794  0.00  0.00    +0.000 A 
ATOM     19  C   UNL     1      -0.213  12.335  19.080  0.00  0.00    +0.000 A 
ATOM     20  C   UNL     1       1.172  12.362  18.930  0.00  0.00    +0.000 A 
ATOM     21  C   UNL     1       1.852  11.224  18.475  0.00  0.00    +0.000 A 
ENDBRANCH  14  16
ENDBRANCH   1  13
BRANCH   1  22
ATOM     22  C   UNL     1       4.693   7.156  17.313  0.00  0.00    +0.000 C 
BRANCH  22  23
ATOM     23  C   UNL     1       5.519   6.196  16.483  0.00  0.00    +0.000 A 
ATOM     24  C   UNL     1       6.729   5.667  16.960  0.00  0.00    +0.000 A 
ATOM     25  C   UNL     1       7.470   4.756  16.205  0.00  0.00    +0.000 A 
ATOM     26  C   UNL     1       6.994   4.310  14.974  0.00  0.00    +0.000 A 
ATOM     27  C   UNL     1       5.775   4.782  14.502  0.00  0.00    +0.000 A 
ATOM     28  C   UNL     1       5.046   5.718  15.248  0.00  0.00    +0.000 A 
ENDBRANCH  22  23
ENDBRANCH   1  22
TORSDOF 5
ENDMDL
MODEL 6
REMARK VINA RESULT:      -8.1      1.038      6.863
REMARK  Name = 
REMARK  5 active torsions:
REMARK  status: ('A' for Active; 'I' for Inactive)
REMARK    1  A    between atoms: C_2  and  C_10
REMARK    2  A    between atoms: N_3  and  C_4
REMARK    3  A    between atoms: C_10  and  C_11
REMARK    4  A    between atoms: C_10  and  N_18
REMARK    5  A    between atoms: C_11  and  C_12
REMARK                            x       y       z     vdW  Elec       q    Type
REMARK                         _______ _______ _______ _____ _____    ______ ____
ROOT
ATOM      1  C   UNL     1       4.742   5.629  17.522  0.00  0.00    +0.000 C 
ENDROOT
BRANCH   1   2
ATOM      2  N   UNL     1       4.061   4.546  18.271  0.00  0.00    +0.000 N 
ATOM      3  C   UNL     1       2.779   3.999  17.860  0.00  0.00    +0.000 C 
ATOM      4  C   UNL     1       2.262   3.498  19.156  0.00  0.00    +0.000 A 
ATOM      5  C   UNL     1       0.970   3.448  19.636  0.00  0.00    +0.000 A 
ATOM      6  C   UNL     1       0.782   2.962  20.930  0.00  0.00    +0.000 A 
ATOM      7  C   UNL     1       1.863   2.449  21.674  0.00  0.00    +0.000 A 
ATOM      8  C   UNL     1       3.174   2.573  21.206  0.00  0.00    +0.000 A 
ATOM      9  C   UNL     1       3.340   3.193  19.984  0.00  0.00    +0.000 A 
ATOM     10  C   UNL     1       4.494   3.964  19.457  0.00  0.00    +0.000 C 
ATOM     11  O   UNL     1       5.530   4.174  20.061  0.00  0.00    +0.000 OA
ENDBRANCH   1   2
BRANCH   1  13
ATOM     12  O   UNL     1       6.758   4.558  16.726  0.00  0.00    +0.000 OA
ATOM     13  C   UNL     1       5.672   5.056  16.422  0.00  0.00    +0.000 C 
ATOM     14  N   UNL     1       5.312   5.248  15.108  0.00  0.00    +0.000 N 
ATOM     15  H   UNL     1       4.555   5.889  14.912  0.00  0.00    +0.000 HD
BRANCH  14  16
ATOM     16  C   UNL     1       6.040   4.781  13.980  0.00  0.00    +0.000 A 
ATOM     17  C   UNL     1       7.236   5.361  13.544  0.00  0.00    +0.000 A 
ATOM     18  C   UNL     1       7.881   4.899  12.394  0.00  0.00    +0.000 A 
ATOM     19  C   UNL     1       7.340   3.842  11.671  0.00  0.00    +0.000 A 
ATOM     20  C   UNL     1       6.167   3.232  12.111  0.00  0.00    +0.000 A 
ATOM     21  C   UNL     1       5.525   3.695  13.269  0.00  0.00    +0.000 A 
ENDBRANCH  14  16
ENDBRANCH   1  13
BRANCH   1  22
ATOM     22  C   UNL     1       3.767   6.746  17.059  0.00  0.00    +0.000 C 
BRANCH  22  23
ATOM     23  C   UNL     1       2.931   7.492  18.077  0.00  0.00    +0.000 A 
ATOM     24  C   UNL     1       2.232   8.661  17.737  0.00  0.00    +0.000 A 
ATOM     25  C   UNL     1       1.434   9.327  18.670  0.00  0.00    +0.000 A 
ATOM     26  C   UNL     1       1.274   8.811  19.954  0.00  0.00    +0.000 A 
ATOM     27  C   UNL     1       1.918   7.629  20.300  0.00  0.00    +0.000 A 
ATOM     28  C   UNL     1       2.740   6.977  19.372  0.00  0.00    +0.000 A 
ENDBRANCH  22  23
ENDBRANCH   1  22
TORSDOF 5
ENDMDL
MODEL 7
REMARK VINA RESULT:      -8.0      1.762      5.860
REMARK  Name = 
REMARK  5 active torsions:
REMARK  status: ('A' for Active; 'I' for Inactive)
REMARK    1  A    between atoms: C_2  and  C_10
REMARK    2  A    between atoms: N_3  and  C_4
REMARK    3  A    between atoms: C_10  and  C_11
REMARK    4  A    between atoms: C_10  and  N_18
REMARK    5  A    between atoms: C_11  and  C_12
REMARK                            x       y       z     vdW  Elec       q    Type
REMARK                         _______ _______ _______ _____ _____    ______ ____
ROOT
ATOM      1  C   UNL     1       3.223   6.903  17.517  0.00  0.00    +0.000 C 
ENDROOT
BRANCH   1   2
ATOM      2  N   UNL     1       3.048   5.600  18.203  0.00  0.00    +0.000 N 
ATOM      3  C   UNL     1       1.975   4.680  17.870  0.00  0.00    +0.000 C 
ATOM      4  C   UNL     1       1.837   3.939  19.146  0.00  0.00    +0.000 A 
ATOM      5  C   UNL     1       0.714   3.415  19.751  0.00  0.00    +0.000 A 
ATOM      6  C   UNL     1       0.879   2.800  20.993  0.00  0.00    +0.000 A 
ATOM      7  C   UNL     1       2.161   2.634  21.554  0.00  0.00    +0.000 A 
ATOM      8  C   UNL     1       3.279   3.233  20.966  0.00  0.00    +0.000 A 
ATOM      9  C   UNL     1       3.059   3.960  19.814  0.00  0.00    +0.000 A 
ATOM     10  C   UNL     1       3.810   5.116  19.261  0.00  0.00    +0.000 C 
ATOM     11  O   UNL     1       4.792   5.622  19.772  0.00  0.00    +0.000 OA
ENDBRANCH   1   2
BRANCH   1  13
ATOM     12  O   UNL     1       2.298   9.129  17.693  0.00  0.00    +0.000 OA
ATOM     13  C   UNL     1       2.425   8.026  18.228  0.00  0.00    +0.000 C 
ATOM     14  N   UNL     1       1.993   7.796  19.513  0.00  0.00    +0.000 N 
ATOM     15  H   UNL     1       2.350   6.983  19.996  0.00  0.00    +0.000 HD
BRANCH  14  16
ATOM     16  C   UNL     1       1.241   8.708  20.304  0.00  0.00    +0.000 A 
ATOM     17  C   UNL     1       0.479   9.748  19.759  0.00  0.00    +0.000 A 
ATOM     18  C   UNL     1      -0.195  10.653  20.584  0.00  0.00    +0.000 A 
ATOM     19  C   UNL     1      -0.120  10.521  21.966  0.00  0.00    +0.000 A 
ATOM     20  C   UNL     1       0.608   9.471  22.522  0.00  0.00    +0.000 A 
ATOM     21  C   UNL     1       1.278   8.562  21.691  0.00  0.00    +0.000 A 
ENDBRANCH  14  16
ENDBRANCH   1  13
BRANCH   1  22
ATOM     22  C   UNL     1       4.711   7.229  17.214  0.00  0.00    +0.000 C 
BRANCH  22  23
ATOM     23  C   UNL     1       5.564   6.238  16.452  0.00  0.00    +0.000 A 
ATOM     24  C   UNL     1       6.716   5.671  17.020  0.00  0.00    +0.000 A 
ATOM     25  C   UNL     1       7.481   4.732  16.325  0.00  0.00    +0.000 A 
ATOM     26  C   UNL     1       7.084   4.297  15.063  0.00  0.00    +0.000 A 
ATOM     27  C   UNL     1       5.921   4.808  14.498  0.00  0.00    +0.000 A 
ATOM     28  C   UNL     1       5.170   5.771  15.185  0.00  0.00    +0.000 A 
ENDBRANCH  22  23
ENDBRANCH   1  22
TORSDOF 5
ENDMDL
MODEL 8
REMARK VINA RESULT:      -8.0      1.776      5.942
REMARK  Name = 
REMARK  5 active torsions:
REMARK  status: ('A' for Active; 'I' for Inactive)
REMARK    1  A    between atoms: C_2  and  C_10
REMARK    2  A    between atoms: N_3  and  C_4
REMARK    3  A    between atoms: C_10  and  C_11
REMARK    4  A    between atoms: C_10  and  N_18
REMARK    5  A    between atoms: C_11  and  C_12
REMARK                            x       y       z     vdW  Elec       q    Type
REMARK                         _______ _______ _______ _____ _____    ______ ____
ROOT
ATOM      1  C   UNL     1       3.166   6.864  17.582  0.00  0.00    +0.000 C 
ENDROOT
BRANCH   1   2
ATOM      2  N   UNL     1       3.025   5.545  18.246  0.00  0.00    +0.000 N 
ATOM      3  C   UNL     1       1.925   4.641  17.960  0.00  0.00    +0.000 C 
ATOM      4  C   UNL     1       1.863   3.869  19.224  0.00  0.00    +0.000 A 
ATOM      5  C   UNL     1       0.778   3.337  19.887  0.00  0.00    +0.000 A 
ATOM      6  C   UNL     1       1.017   2.691  21.100  0.00  0.00    +0.000 A 
ATOM      7  C   UNL     1       2.331   2.502  21.573  0.00  0.00    +0.000 A 
ATOM      8  C   UNL     1       3.413   3.109  20.930  0.00  0.00    +0.000 A 
ATOM      9  C   UNL     1       3.126   3.866  19.812  0.00  0.00    +0.000 A 
ATOM     10  C   UNL     1       3.849   5.030  19.241  0.00  0.00    +0.000 C 
ATOM     11  O   UNL     1       4.866   5.517  19.700  0.00  0.00    +0.000 OA
ENDBRANCH   1   2
BRANCH   1  13
ATOM     12  O   UNL     1       2.210   7.835  19.579  0.00  0.00    +0.000 OA
ATOM     13  C   UNL     1       2.429   7.975  18.374  0.00  0.00    +0.000 C 
ATOM     14  N   UNL     1       1.914   9.037  17.668  0.00  0.00    +0.000 N 
ATOM     15  H   UNL     1       1.891   8.970  16.660  0.00  0.00    +0.000 HD
BRANCH  14  16
ATOM     16  C   UNL     1       1.224  10.143  18.235  0.00  0.00    +0.000 A 
ATOM     17  C   UNL     1       1.852  11.345  18.583  0.00  0.00    +0.000 A 
ATOM     18  C   UNL     1       1.136  12.380  19.191  0.00  0.00    +0.000 A 
ATOM     19  C   UNL     1      -0.221  12.227  19.451  0.00  0.00    +0.000 A 
ATOM     20  C   UNL     1      -0.867  11.049  19.080  0.00  0.00    +0.000 A 
ATOM     21  C   UNL     1      -0.148  10.015  18.464  0.00  0.00    +0.000 A 
ENDBRANCH  14  16
ENDBRANCH   1  13
BRANCH   1  22
ATOM     22  C   UNL     1       4.632   7.185  17.186  0.00  0.00    +0.000 C 
BRANCH  22  23
ATOM     23  C   UNL     1       5.456   6.161  16.435  0.00  0.00    +0.000 A 
ATOM     24  C   UNL     1       5.106   5.742  15.142  0.00  0.00    +0.000 A 
ATOM     25  C   UNL     1       5.888   4.823  14.440  0.00  0.00    +0.000 A 
ATOM     26  C   UNL     1       7.072   4.339  14.993  0.00  0.00    +0.000 A 
ATOM     27  C   UNL     1       7.466   4.776  16.253  0.00  0.00    +0.000 A 
ATOM     28  C   UNL     1       6.665   5.676  16.968  0.00  0.00    +0.000 A 
ENDBRANCH  22  23
ENDBRANCH   1  22
TORSDOF 5
ENDMDL
MODEL 9
REMARK VINA RESULT:      -8.0      2.514      5.470
REMARK  Name = 
REMARK  5 active torsions:
REMARK  status: ('A' for Active; 'I' for Inactive)
REMARK    1  A    between atoms: C_2  and  C_10
REMARK    2  A    between atoms: N_3  and  C_4
REMARK    3  A    between atoms: C_10  and  C_11
REMARK    4  A    between atoms: C_10  and  N_18
REMARK    5  A    between atoms: C_11  and  C_12
REMARK                            x       y       z     vdW  Elec       q    Type
REMARK                         _______ _______ _______ _____ _____    ______ ____
ROOT
ATOM      1  C   UNL     1       2.767   7.131  17.774  0.00  0.00    +0.000 C 
ENDROOT
BRANCH   1   2
ATOM      2  N   UNL     1       2.714   5.799  18.423  0.00  0.00    +0.000 N 
ATOM      3  C   UNL     1       3.558   5.446  19.552  0.00  0.00    +0.000 C 
ATOM      4  C   UNL     1       3.617   3.972  19.406  0.00  0.00    +0.000 A 
ATOM      5  C   UNL     1       4.644   3.094  19.681  0.00  0.00    +0.000 A 
ATOM      6  C   UNL     1       4.432   1.745  19.395  0.00  0.00    +0.000 A 
ATOM      7  C   UNL     1       3.179   1.290  18.940  0.00  0.00    +0.000 A 
ATOM      8  C   UNL     1       2.173   2.198  18.597  0.00  0.00    +0.000 A 
ATOM      9  C   UNL     1       2.466   3.537  18.752  0.00  0.00    +0.000 A 
ATOM     10  C   UNL     1       1.934   4.718  18.026  0.00  0.00    +0.000 C 
ATOM     11  O   UNL     1       1.108   4.677  17.134  0.00  0.00    +0.000 OA
ENDBRANCH   1   2
BRANCH   1  13
ATOM     12  O   UNL     1       1.810   8.024  19.806  0.00  0.00    +0.000 OA
ATOM     13  C   UNL     1       1.992   8.191  18.598  0.00  0.00    +0.000 C 
ATOM     14  N   UNL     1       1.404   9.233  17.920  0.00  0.00    +0.000 N 
ATOM     15  H   UNL     1       1.359   9.177  16.911  0.00  0.00    +0.000 HD
BRANCH  14  16
ATOM     16  C   UNL     1       0.669  10.293  18.518  0.00  0.00    +0.000 A 
ATOM     17  C   UNL     1       1.273  11.407  19.110  0.00  0.00    +0.000 A 
ATOM     18  C   UNL     1       0.505  12.393  19.736  0.00  0.00    +0.000 A 
ATOM     19  C   UNL     1      -0.880  12.278  19.768  0.00  0.00    +0.000 A 
ATOM     20  C   UNL     1      -1.498  11.191  19.153  0.00  0.00    +0.000 A 
ATOM     21  C   UNL     1      -0.725  10.207  18.521  0.00  0.00    +0.000 A 
ENDBRANCH  14  16
ENDBRANCH   1  13
BRANCH   1  22
ATOM     22  C   UNL     1       4.204   7.536  17.347  0.00  0.00    +0.000 C 
BRANCH  22  23
ATOM     23  C   UNL     1       5.229   6.469  17.026  0.00  0.00    +0.000 A 
ATOM     24  C   UNL     1       6.411   6.337  17.773  0.00  0.00    +0.000 A 
ATOM     25  C   UNL     1       7.336   5.331  17.494  0.00  0.00    +0.000 A 
ATOM     26  C   UNL     1       7.080   4.395  16.494  0.00  0.00    +0.000 A 
ATOM     27  C   UNL     1       5.895   4.476  15.772  0.00  0.00    +0.000 A 
ATOM     28  C   UNL     1       4.979   5.504  16.034  0.00  0.00    +0.000 A 
ENDBRANCH  22  23
ENDBRANCH   1  22
TORSDOF 5
ENDMDL
