MODEL 1
REMARK VINA RESULT:      -6.8      0.000      0.000
REMARK  Name = 
REMARK  6 active torsions:
REMARK  status: ('A' for Active; 'I' for Inactive)
REMARK    1  A    between atoms: C_1  and  C_2
REMARK    2  A    between atoms: C_2  and  C_4
REMARK    3  A    between atoms: C_4  and  C_5
REMARK    4  A    between atoms: C_5  and  N_6
REMARK    5  A    between atoms: N_13  and  C_14
REMARK    6  A    between atoms: N_17  and  C_18
REMARK                            x       y       z     vdW  Elec       q    Type
REMARK                         _______ _______ _______ _____ _____    ______ ____
ROOT
ATOM      1  N   UNL     1       4.830   4.867  16.849  0.00  0.00    +0.000 N 
ATOM      2  C   UNL     1       4.905   6.239  16.790  0.00  0.00    +0.000 A 
ATOM      3  N   UNL     1       4.110   6.816  17.664  0.00  0.00    +0.000 NA
ATOM      4  C   UNL     1       3.474   5.780  18.270  0.00  0.00    +0.000 A 
ATOM      5  C   UNL     1       3.875   4.570  17.787  0.00  0.00    +0.000 A 
ATOM      6  C   UNL     1       3.327   3.341  18.253  0.00  0.00    +0.000 A 
ATOM      7  O   UNL     1       3.684   2.247  17.828  0.00  0.00    +0.000 OA
ATOM      8  N   UNL     1       2.343   3.518  19.234  0.00  0.00    +0.000 N 
ATOM      9  C   UNL     1       1.693   2.341  19.775  0.00  0.00    +0.000 C 
ATOM     10  C   UNL     1       1.929   4.754  19.772  0.00  0.00    +0.000 A 
ATOM     11  O   UNL     1       1.073   4.806  20.660  0.00  0.00    +0.000 OA
ATOM     12  N   UNL     1       2.527   5.901  19.257  0.00  0.00    +0.000 N 
ATOM     13  C   UNL     1       2.164   7.215  19.757  0.00  0.00    +0.000 C 
ENDROOT
BRANCH   1  14
ATOM     14  C   UNL     1       5.611   3.935  16.049  0.00  0.00    +0.000 C 
BRANCH  14  15
ATOM     15  C   UNL     1       6.981   4.481  15.655  0.00  0.00    +0.000 C 
BRANCH  15  17
ATOM     16  C   UNL     1       6.251   3.866  13.283  0.00  0.00    +0.000 C 
ATOM     17  C   UNL     1       7.096   4.741  14.172  0.00  0.00    +0.000 C 
ATOM     18  O   UNL     1       7.849   5.593  13.708  0.00  0.00    +0.000 OA
ENDBRANCH  15  17
ENDBRANCH  14  15
ENDBRANCH   1  14
TORSDOF 3
ENDMDL
MODEL 2
REMARK VINA RESULT:      -6.7      2.253      6.144
REMARK  Name = 
REMARK  6 active torsions:
REMARK  status: ('A' for Active; 'I' for Inactive)
REMARK    1  A    between atoms: C_1  and  C_2
REMARK    2  A    between atoms: C_2  and  C_4
REMARK    3  A    between atoms: C_4  and  C_5
REMARK    4  A    between atoms: C_5  and  N_6
REMARK    5  A    between atoms: N_13  and  C_14
REMARK    6  A    between atoms: N_17  and  C_18
REMARK                            x       y       z     vdW  Elec       q    Type
REMARK                         _______ _______ _______ _____ _____    ______ ____
ROOT
ATOM      1  N   UNL     1       4.200   3.404  18.678  0.00  0.00    +0.000 N 
ATOM      2  C   UNL     1       3.511   2.999  17.558  0.00  0.00    +0.000 A 
ATOM      3  N   UNL     1       4.036   3.481  16.453  0.00  0.00    +0.000 NA
ATOM      4  C   UNL     1       5.066   4.254  16.883  0.00  0.00    +0.000 A 
ATOM      5  C   UNL     1       5.189   4.247  18.241  0.00  0.00    +0.000 A 
ATOM      6  C   UNL     1       6.183   5.006  18.923  0.00  0.00    +0.000 A 
ATOM      7  O   UNL     1       6.304   5.003  20.144  0.00  0.00    +0.000 OA
ATOM      8  N   UNL     1       6.993   5.751  18.056  0.00  0.00    +0.000 N 
ATOM      9  C   UNL     1       8.031   6.583  18.630  0.00  0.00    +0.000 C 
ATOM     10  C   UNL     1       6.907   5.756  16.648  0.00  0.00    +0.000 A 
ATOM     11  O   UNL     1       7.688   6.424  15.966  0.00  0.00    +0.000 OA
ATOM     12  N   UNL     1       5.907   4.977  16.072  0.00  0.00    +0.000 N 
ATOM     13  C   UNL     1       5.749   4.919  14.631  0.00  0.00    +0.000 C 
ENDROOT
BRANCH   1  14
ATOM     14  C   UNL     1       3.905   3.014  20.048  0.00  0.00    +0.000 C 
BRANCH  14  15
ATOM     15  C   UNL     1       2.578   2.273  20.189  0.00  0.00    +0.000 C 
BRANCH  15  17
ATOM     16  C   UNL     1       0.984   4.245  20.520  0.00  0.00    +0.000 C 
ATOM     17  C   UNL     1       1.604   2.995  21.090  0.00  0.00    +0.000 C 
ATOM     18  O   UNL     1       1.345   2.610  22.226  0.00  0.00    +0.000 OA
ENDBRANCH  15  17
ENDBRANCH  14  15
ENDBRANCH   1  14
TORSDOF 3
ENDMDL
MODEL 3
REMARK VINA RESULT:      -6.7      1.044      1.066
REMARK  Name = 
REMARK  6 active torsions:
REMARK  status: ('A' for Active; 'I' for Inactive)
REMARK    1  A    between atoms: C_1  and  C_2
REMARK    2  A    between atoms: C_2  and  C_4
REMARK    3  A    between atoms: C_4  and  C_5
REMARK    4  A    between atoms: C_5  and  N_6
REMARK    5  A    between atoms: N_13  and  C_14
REMARK    6  A    between atoms: N_17  and  C_18
REMARK                            x       y       z     vdW  Elec       q    Type
REMARK                         _______ _______ _______ _____ _____    ______ ____
ROOT
ATOM      1  N   UNL     1       5.484   5.419  17.322  0.00  0.00    +0.000 N 
ATOM      2  C   UNL     1       5.223   6.672  16.818  0.00  0.00    +0.000 A 
ATOM      3  N   UNL     1       4.226   7.259  17.443  0.00  0.00    +0.000 NA
ATOM      4  C   UNL     1       3.807   6.333  18.344  0.00  0.00    +0.000 A 
ATOM      5  C   UNL     1       4.541   5.186  18.290  0.00  0.00    +0.000 A 
ATOM      6  C   UNL     1       4.270   4.064  19.124  0.00  0.00    +0.000 A 
ATOM      7  O   UNL     1       4.927   3.028  19.085  0.00  0.00    +0.000 OA
ATOM      8  N   UNL     1       3.178   4.268  19.978  0.00  0.00    +0.000 N 
ATOM      9  C   UNL     1       2.788   3.190  20.863  0.00  0.00    +0.000 C 
ATOM     10  C   UNL     1       2.420   5.453  20.075  0.00  0.00    +0.000 A 
ATOM     11  O   UNL     1       1.492   5.549  20.884  0.00  0.00    +0.000 OA
ATOM     12  N   UNL     1       2.764   6.499  19.223  0.00  0.00    +0.000 N 
ATOM     13  C   UNL     1       2.041   7.756  19.260  0.00  0.00    +0.000 C 
ENDROOT
BRANCH   1  14
ATOM     14  C   UNL     1       6.546   4.528  16.882  0.00  0.00    +0.000 C 
BRANCH  14  15
ATOM     15  C   UNL     1       6.192   3.746  15.619  0.00  0.00    +0.000 C 
BRANCH  15  17
ATOM     16  C   UNL     1       6.265   3.805  13.064  0.00  0.00    +0.000 C 
ATOM     17  C   UNL     1       6.751   4.382  14.368  0.00  0.00    +0.000 C 
ATOM     18  O   UNL     1       7.570   5.295  14.402  0.00  0.00    +0.000 OA
ENDBRANCH  15  17
ENDBRANCH  14  15
ENDBRANCH   1  14
TORSDOF 3
ENDMDL
MODEL 4
REMARK VINA RESULT:      -6.6      1.986      2.494
REMARK  Name = 
REMARK  6 active torsions:
REMARK  status: ('A' for Active; 'I' for Inactive)
REMARK    1  A    between atoms: C_1  and  C_2
REMARK    2  A    between atoms: C_2  and  C_4
REMARK    3  A    between atoms: C_4  and  C_5
REMARK    4  A    between atoms: C_5  and  N_6
REMARK    5  A    between atoms: N_13  and  C_14
REMARK    6  A    between atoms: N_17  and  C_18
REMARK                            x       y       z     vdW  Elec       q    Type
REMARK                         _______ _______ _______ _____ _____    ______ ____
ROOT
ATOM      1  N   UNL     1       4.324   6.161  17.295  0.00  0.00    +0.000 N 
ATOM      2  C   UNL     1       3.648   7.212  17.869  0.00  0.00    +0.000 A 
ATOM      3  N   UNL     1       2.819   6.813  18.808  0.00  0.00    +0.000 NA
ATOM      4  C   UNL     1       2.937   5.460  18.804  0.00  0.00    +0.000 A 
ATOM      5  C   UNL     1       3.837   5.021  17.879  0.00  0.00    +0.000 A 
ATOM      6  C   UNL     1       4.109   3.637  17.674  0.00  0.00    +0.000 A 
ATOM      7  O   UNL     1       4.919   3.232  16.847  0.00  0.00    +0.000 OA
ATOM      8  N   UNL     1       3.353   2.802  18.506  0.00  0.00    +0.000 N 
ATOM      9  C   UNL     1       3.523   1.369  18.378  0.00  0.00    +0.000 C 
ATOM     10  C   UNL     1       2.437   3.229  19.489  0.00  0.00    +0.000 A 
ATOM     11  O   UNL     1       1.839   2.415  20.198  0.00  0.00    +0.000 OA
ATOM     12  N   UNL     1       2.242   4.602  19.621  0.00  0.00    +0.000 N 
ATOM     13  C   UNL     1       1.323   5.130  20.611  0.00  0.00    +0.000 C 
ENDROOT
BRANCH   1  14
ATOM     14  C   UNL     1       5.341   6.265  16.259  0.00  0.00    +0.000 C 
BRANCH  14  15
ATOM     15  C   UNL     1       6.709   6.674  16.798  0.00  0.00    +0.000 C 
BRANCH  15  17
ATOM     16  C   UNL     1       7.540   5.684  19.005  0.00  0.00    +0.000 C 
ATOM     17  C   UNL     1       7.413   5.543  17.510  0.00  0.00    +0.000 C 
ATOM     18  O   UNL     1       7.880   4.576  16.913  0.00  0.00    +0.000 OA
ENDBRANCH  15  17
ENDBRANCH  14  15
ENDBRANCH   1  14
TORSDOF 3
ENDMDL
MODEL 5
REMARK VINA RESULT:      -6.5      1.963      3.291
REMARK  Name = 
REMARK  6 active torsions:
REMARK  status: ('A' for Active; 'I' for Inactive)
REMARK    1  A    between atoms: C_1  and  C_2
REMARK    2  A    between atoms: C_2  and  C_4
REMARK    3  A    between atoms: C_4  and  C_5
REMARK    4  A    between atoms: C_5  and  N_6
REMARK    5  A    between atoms: N_13  and  C_14
REMARK    6  A    between atoms: N_17  and  C_18
REMARK                            x       y       z     vdW  Elec       q    Type
REMARK                         _______ _______ _______ _____ _____    ______ ____
ROOT
ATOM      1  N   UNL     1       4.706   4.869  16.732  0.00  0.00    +0.000 N 
ATOM      2  C   UNL     1       4.765   3.495  16.717  0.00  0.00    +0.000 A 
ATOM      3  N   UNL     1       3.954   2.956  17.601  0.00  0.00    +0.000 NA
ATOM      4  C   UNL     1       3.392   4.021  18.230  0.00  0.00    +0.000 A 
ATOM      5  C   UNL     1       3.840   5.210  17.738  0.00  0.00    +0.000 A 
ATOM      6  C   UNL     1       3.410   6.464  18.260  0.00  0.00    +0.000 A 
ATOM      7  O   UNL     1       3.804   7.540  17.821  0.00  0.00    +0.000 OA
ATOM      8  N   UNL     1       2.505   6.334  19.320  0.00  0.00    +0.000 N 
ATOM      9  C   UNL     1       2.008   7.540  19.952  0.00  0.00    +0.000 C 
ATOM     10  C   UNL     1       2.003   5.119  19.831  0.00  0.00    +0.000 A 
ATOM     11  O   UNL     1       1.181   5.107  20.751  0.00  0.00    +0.000 OA
ATOM     12  N   UNL     1       2.477   3.945  19.252  0.00  0.00    +0.000 N 
ATOM     13  C   UNL     1       2.011   2.650  19.712  0.00  0.00    +0.000 C 
ENDROOT
BRANCH   1  14
ATOM     14  C   UNL     1       5.443   5.763  15.852  0.00  0.00    +0.000 C 
BRANCH  14  15
ATOM     15  C   UNL     1       6.943   5.783  16.134  0.00  0.00    +0.000 C 
BRANCH  15  17
ATOM     16  C   UNL     1       7.611   6.051  18.588  0.00  0.00    +0.000 C 
ATOM     17  C   UNL     1       7.307   6.712  17.268  0.00  0.00    +0.000 C 
ATOM     18  O   UNL     1       7.332   7.933  17.138  0.00  0.00    +0.000 OA
ENDBRANCH  15  17
ENDBRANCH  14  15
ENDBRANCH   1  14
TORSDOF 3
ENDMDL
MODEL 6
REMARK VINA RESULT:      -6.5      1.549      1.923
REMARK  Name = 
REMARK  6 active torsions:
REMARK  status: ('A' for Active; 'I' for Inactive)
REMARK    1  A    between atoms: C_1  and  C_2
REMARK    2  A    between atoms: C_2  and  C_4
REMARK    3  A    between atoms: C_4  and  C_5
REMARK    4  A    between atoms: C_5  and  N_6
REMARK    5  A    between atoms: N_13  and  C_14
REMARK    6  A    between atoms: N_17  and  C_18
REMARK                            x       y       z     vdW  Elec       q    Type
REMARK                         _______ _______ _______ _____ _____    ______ ____
ROOT
ATOM      1  N   UNL     1       4.109   6.261  17.243  0.00  0.00    +0.000 N 
ATOM      2  C   UNL     1       3.467   7.311  17.856  0.00  0.00    +0.000 A 
ATOM      3  N   UNL     1       2.715   6.913  18.859  0.00  0.00    +0.000 NA
ATOM      4  C   UNL     1       2.847   5.562  18.859  0.00  0.00    +0.000 A 
ATOM      5  C   UNL     1       3.679   5.122  17.873  0.00  0.00    +0.000 A 
ATOM      6  C   UNL     1       3.950   3.739  17.660  0.00  0.00    +0.000 A 
ATOM      7  O   UNL     1       4.700   3.334  16.778  0.00  0.00    +0.000 OA
ATOM      8  N   UNL     1       3.268   2.905  18.555  0.00  0.00    +0.000 N 
ATOM      9  C   UNL     1       3.444   1.472  18.428  0.00  0.00    +0.000 C 
ATOM     10  C   UNL     1       2.424   3.333  19.601  0.00  0.00    +0.000 A 
ATOM     11  O   UNL     1       1.890   2.519  20.360  0.00  0.00    +0.000 OA
ATOM     12  N   UNL     1       2.225   4.704  19.734  0.00  0.00    +0.000 N 
ATOM     13  C   UNL     1       1.377   5.233  20.786  0.00  0.00    +0.000 C 
ENDROOT
BRANCH   1  14
ATOM     14  C   UNL     1       5.043   6.365  16.133  0.00  0.00    +0.000 C 
BRANCH  14  15
ATOM     15  C   UNL     1       6.505   6.317  16.570  0.00  0.00    +0.000 C 
BRANCH  15  17
ATOM     16  C   UNL     1       6.989   4.786  14.580  0.00  0.00    +0.000 C 
ATOM     17  C   UNL     1       7.232   5.108  16.032  0.00  0.00    +0.000 C 
ATOM     18  O   UNL     1       7.958   4.408  16.733  0.00  0.00    +0.000 OA
ENDBRANCH  15  17
ENDBRANCH  14  15
ENDBRANCH   1  14
TORSDOF 3
ENDMDL
MODEL 7
REMARK VINA RESULT:      -6.4      1.575      1.883
REMARK  Name = 
REMARK  6 active torsions:
REMARK  status: ('A' for Active; 'I' for Inactive)
REMARK    1  A    between atoms: C_1  and  C_2
REMARK    2  A    between atoms: C_2  and  C_4
REMARK    3  A    between atoms: C_4  and  C_5
REMARK    4  A    between atoms: C_5  and  N_6
REMARK    5  A    between atoms: N_13  and  C_14
REMARK    6  A    between atoms: N_17  and  C_18
REMARK                            x       y       z     vdW  Elec       q    Type
REMARK                         _______ _______ _______ _____ _____    ______ ____
ROOT
ATOM      1  N   UNL     1       4.547   6.426  17.655  0.00  0.00    +0.000 N 
ATOM      2  C   UNL     1       3.567   7.386  17.753  0.00  0.00    +0.000 A 
ATOM      3  N   UNL     1       2.668   7.084  18.665  0.00  0.00    +0.000 NA
ATOM      4  C   UNL     1       3.063   5.871  19.132  0.00  0.00    +0.000 A 
ATOM      5  C   UNL     1       4.200   5.426  18.526  0.00  0.00    +0.000 A 
ATOM      6  C   UNL     1       4.787   4.166  18.835  0.00  0.00    +0.000 A 
ATOM      7  O   UNL     1       5.812   3.758  18.298  0.00  0.00    +0.000 OA
ATOM      8  N   UNL     1       4.070   3.450  19.802  0.00  0.00    +0.000 N 
ATOM      9  C   UNL     1       4.556   2.141  20.188  0.00  0.00    +0.000 C 
ATOM     10  C   UNL     1       2.909   3.897  20.465  0.00  0.00    +0.000 A 
ATOM     11  O   UNL     1       2.364   3.205  21.329  0.00  0.00    +0.000 OA
ATOM     12  N   UNL     1       2.412   5.146  20.100  0.00  0.00    +0.000 N 
ATOM     13  C   UNL     1       1.225   5.687  20.736  0.00  0.00    +0.000 C 
ENDROOT
BRANCH   1  14
ATOM     14  C   UNL     1       5.705   6.477  16.776  0.00  0.00    +0.000 C 
BRANCH  14  15
ATOM     15  C   UNL     1       5.456   5.832  15.415  0.00  0.00    +0.000 C 
BRANCH  15  17
ATOM     16  C   UNL     1       6.245   3.968  13.852  0.00  0.00    +0.000 C 
ATOM     17  C   UNL     1       6.551   4.870  15.020  0.00  0.00    +0.000 C 
ATOM     18  O   UNL     1       7.618   4.801  15.624  0.00  0.00    +0.000 OA
ENDBRANCH  15  17
ENDBRANCH  14  15
ENDBRANCH   1  14
TORSDOF 3
ENDMDL
MODEL 8
REMARK VINA RESULT:      -6.4      1.924      3.230
REMARK  Name = 
REMARK  6 active torsions:
REMARK  status: ('A' for Active; 'I' for Inactive)
REMARK    1  A    between atoms: C_1  and  C_2
REMARK    2  A    between atoms: C_2  and  C_4
REMARK    3  A    between atoms: C_4  and  C_5
REMARK    4  A    between atoms: C_5  and  N_6
REMARK    5  A    between atoms: N_13  and  C_14
REMARK    6  A    between atoms: N_17  and  C_18
REMARK                            x       y       z     vdW  Elec       q    Type
REMARK                         _______ _______ _______ _____ _____    ______ ____
ROOT
ATOM      1  N   UNL     1       4.576   4.363  16.818  0.00  0.00    +0.000 N 
ATOM      2  C   UNL     1       4.522   2.993  16.925  0.00  0.00    +0.000 A 
ATOM      3  N   UNL     1       3.682   2.602  17.858  0.00  0.00    +0.000 NA
ATOM      4  C   UNL     1       3.217   3.760  18.393  0.00  0.00    +0.000 A 
ATOM      5  C   UNL     1       3.753   4.861  17.795  0.00  0.00    +0.000 A 
ATOM      6  C   UNL     1       3.435   6.187  18.207  0.00  0.00    +0.000 A 
ATOM      7  O   UNL     1       3.909   7.184  17.672  0.00  0.00    +0.000 OA
ATOM      8  N   UNL     1       2.535   6.225  19.280  0.00  0.00    +0.000 N 
ATOM      9  C   UNL     1       2.147   7.519  19.805  0.00  0.00    +0.000 C 
ATOM     10  C   UNL     1       1.943   5.105  19.899  0.00  0.00    +0.000 A 
ATOM     11  O   UNL     1       1.135   5.242  20.821  0.00  0.00    +0.000 OA
ATOM     12  N   UNL     1       2.312   3.850  19.423  0.00  0.00    +0.000 N 
ATOM     13  C   UNL     1       1.748   2.643  19.998  0.00  0.00    +0.000 C 
ENDROOT
BRANCH   1  14
ATOM     14  C   UNL     1       5.372   5.112  15.858  0.00  0.00    +0.000 C 
BRANCH  14  15
ATOM     15  C   UNL     1       6.871   4.859  15.992  0.00  0.00    +0.000 C 
BRANCH  15  17
ATOM     16  C   UNL     1       7.413   6.751  17.625  0.00  0.00    +0.000 C 
ATOM     17  C   UNL     1       7.410   5.271  17.342  0.00  0.00    +0.000 C 
ATOM     18  O   UNL     1       7.846   4.459  18.154  0.00  0.00    +0.000 OA
ENDBRANCH  15  17
ENDBRANCH  14  15
ENDBRANCH   1  14
TORSDOF 3
ENDMDL
MODEL 9
REMARK VINA RESULT:      -6.4      1.411      1.891
REMARK  Name = 
REMARK  6 active torsions:
REMARK  status: ('A' for Active; 'I' for Inactive)
REMARK    1  A    between atoms: C_1  and  C_2
REMARK    2  A    between atoms: C_2  and  C_4
REMARK    3  A    between atoms: C_4  and  C_5
REMARK    4  A    between atoms: C_5  and  N_6
REMARK    5  A    between atoms: N_13  and  C_14
REMARK    6  A    between atoms: N_17  and  C_18
REMARK                            x       y       z     vdW  Elec       q    Type
REMARK                         _______ _______ _______ _____ _____    ______ ____
ROOT
ATOM      1  N   UNL     1       4.365   5.705  17.011  0.00  0.00    +0.000 N 
ATOM      2  C   UNL     1       4.169   7.040  17.278  0.00  0.00    +0.000 A 
ATOM      3  N   UNL     1       3.365   7.227  18.301  0.00  0.00    +0.000 NA
ATOM      4  C   UNL     1       3.001   5.973  18.672  0.00  0.00    +0.000 A 
ATOM      5  C   UNL     1       3.579   5.014  17.895  0.00  0.00    +0.000 A 
ATOM      6  C   UNL     1       3.324   3.624  18.080  0.00  0.00    +0.000 A 
ATOM      7  O   UNL     1       3.842   2.753  17.388  0.00  0.00    +0.000 OA
ATOM      8  N   UNL     1       2.422   3.367  19.120  0.00  0.00    +0.000 N 
ATOM      9  C   UNL     1       2.065   1.990  19.395  0.00  0.00    +0.000 C 
ATOM     10  C   UNL     1       1.832   4.336  19.957  0.00  0.00    +0.000 A 
ATOM     11  O   UNL     1       1.071   4.008  20.872  0.00  0.00    +0.000 OA
ATOM     12  N   UNL     1       2.146   5.669  19.704  0.00  0.00    +0.000 N 
ATOM     13  C   UNL     1       1.588   6.731  20.520  0.00  0.00    +0.000 C 
ENDROOT
BRANCH   1  14
ATOM     14  C   UNL     1       5.229   5.161  15.975  0.00  0.00    +0.000 C 
BRANCH  14  15
ATOM     15  C   UNL     1       6.595   4.726  16.499  0.00  0.00    +0.000 C 
BRANCH  15  17
ATOM     16  C   UNL     1       7.617   5.662  18.648  0.00  0.00    +0.000 C 
ATOM     17  C   UNL     1       7.341   5.850  17.178  0.00  0.00    +0.000 C 
ATOM     18  O   UNL     1       7.683   6.868  16.584  0.00  0.00    +0.000 OA
ENDBRANCH  15  17
ENDBRANCH  14  15
ENDBRANCH   1  14
TORSDOF 3
ENDMDL
