MODEL 1
REMARK VINA RESULT:      -8.1      0.000      0.000
REMARK  Name = 
REMARK  6 active torsions:
REMARK  status: ('A' for Active; 'I' for Inactive)
REMARK    1  A    between atoms: C_1  and  C_2
REMARK    2  A    between atoms: C_2  and  O_3
REMARK    3  A    between atoms: O_3  and  C_4
REMARK    4  A    between atoms: C_4  and  C_6
REMARK    5  A    between atoms: C_8  and  C_9
REMARK    6  A    between atoms: C_13  and  C_14
REMARK                            x       y       z     vdW  Elec       q    Type
REMARK                         _______ _______ _______ _____ _____    ______ ____
ROOT
ATOM      1  C   UNL     1       6.788   4.886  17.370  0.00  0.00    +0.000 A 
ATOM      2  C   UNL     1       7.889   5.139  18.166  0.00  0.00    +0.000 A 
ATOM      3  N   UNL     1       7.463   5.250  19.460  0.00  0.00    +0.000 N 
ATOM      4  C   UNL     1       6.112   5.029  19.515  0.00  0.00    +0.000 A 
ATOM      5  C   UNL     1       5.642   4.784  18.232  0.00  0.00    +0.000 A 
ATOM      6  H   UNL     1       8.052   5.459  20.256  0.00  0.00    +0.000 HD
ENDROOT
BRANCH   1   9
ATOM      7  C   UNL     1       6.406   4.002  13.862  0.00  0.00    +0.000 A 
ATOM      8  C   UNL     1       6.244   3.675  15.195  0.00  0.00    +0.000 A 
ATOM      9  C   UNL     1       6.808   4.755  15.911  0.00  0.00    +0.000 A 
ATOM     10  N   UNL     1       7.355   5.656  15.090  0.00  0.00    +0.000 NA
ATOM     11  N   UNL     1       7.075   5.193  13.866  0.00  0.00    +0.000 N 
ATOM     12  H   UNL     1       7.341   5.750  13.060  0.00  0.00    +0.000 HD
BRANCH   7  13
ATOM     13  C   UNL     1       5.966   3.390  12.648  0.00  0.00    +0.000 C 
ATOM     14  O   UNL     1       6.689   2.743  11.902  0.00  0.00    +0.000 OA
BRANCH  13  15
ATOM     15  O   UNL     1       4.672   3.722  12.403  0.00  0.00    +0.000 OA
BRANCH  15  17
ATOM     16  C   UNL     1       3.428   3.944  10.377  0.00  0.00    +0.000 C 
ATOM     17  C   UNL     1       4.034   2.964  11.370  0.00  0.00    +0.000 C 
ENDBRANCH  15  17
ENDBRANCH  13  15
ENDBRANCH   7  13
ENDBRANCH   1   9
BRANCH   5  18
ATOM     18  C   UNL     1       4.237   4.461  17.964  0.00  0.00    +0.000 A 
ATOM     19  C   UNL     1       3.247   5.456  17.991  0.00  0.00    +0.000 A 
ATOM     20  C   UNL     1       1.909   5.145  17.722  0.00  0.00    +0.000 A 
ATOM     21  C   UNL     1       1.543   3.838  17.408  0.00  0.00    +0.000 A 
ATOM     22  C   UNL     1       2.510   2.838  17.388  0.00  0.00    +0.000 A 
ATOM     23  C   UNL     1       3.840   3.146  17.685  0.00  0.00    +0.000 A 
ENDBRANCH   5  18
TORSDOF 5
ENDMDL
MODEL 2
REMARK VINA RESULT:      -8.1      3.040      5.018
REMARK  Name = 
REMARK  6 active torsions:
REMARK  status: ('A' for Active; 'I' for Inactive)
REMARK    1  A    between atoms: C_1  and  C_2
REMARK    2  A    between atoms: C_2  and  O_3
REMARK    3  A    between atoms: O_3  and  C_4
REMARK    4  A    between atoms: C_4  and  C_6
REMARK    5  A    between atoms: C_8  and  C_9
REMARK    6  A    between atoms: C_13  and  C_14
REMARK                            x       y       z     vdW  Elec       q    Type
REMARK                         _______ _______ _______ _____ _____    ______ ____
ROOT
ATOM      1  C   UNL     1       3.280   3.249  18.292  0.00  0.00    +0.000 A 
ATOM      2  C   UNL     1       2.822   1.960  18.090  0.00  0.00    +0.000 A 
ATOM      3  N   UNL     1       1.544   1.883  18.569  0.00  0.00    +0.000 N 
ATOM      4  C   UNL     1       1.158   3.112  19.037  0.00  0.00    +0.000 A 
ATOM      5  C   UNL     1       2.206   4.006  18.874  0.00  0.00    +0.000 A 
ATOM      6  H   UNL     1       0.969   1.050  18.576  0.00  0.00    +0.000 HD
ENDROOT
BRANCH   1   9
ATOM      7  C   UNL     1       6.305   4.719  16.905  0.00  0.00    +0.000 A 
ATOM      8  C   UNL     1       4.984   4.343  16.746  0.00  0.00    +0.000 A 
ATOM      9  C   UNL     1       4.625   3.731  17.968  0.00  0.00    +0.000 A 
ATOM     10  N   UNL     1       5.665   3.657  18.804  0.00  0.00    +0.000 NA
ATOM     11  N   UNL     1       6.652   4.281  18.152  0.00  0.00    +0.000 N 
ATOM     12  H   UNL     1       7.544   4.410  18.620  0.00  0.00    +0.000 HD
BRANCH   7  13
ATOM     13  C   UNL     1       7.210   5.465  16.090  0.00  0.00    +0.000 C 
ATOM     14  O   UNL     1       7.445   5.216  14.915  0.00  0.00    +0.000 OA
BRANCH  13  15
ATOM     15  O   UNL     1       7.837   6.411  16.838  0.00  0.00    +0.000 OA
BRANCH  15  17
ATOM     16  C   UNL     1       7.922   8.607  17.773  0.00  0.00    +0.000 C 
ATOM     17  C   UNL     1       7.012   7.504  17.254  0.00  0.00    +0.000 C 
ENDBRANCH  15  17
ENDBRANCH  13  15
ENDBRANCH   7  13
ENDBRANCH   1   9
BRANCH   5  18
ATOM     18  C   UNL     1       2.086   5.422  19.235  0.00  0.00    +0.000 A 
ATOM     19  C   UNL     1       2.374   6.435  18.307  0.00  0.00    +0.000 A 
ATOM     20  C   UNL     1       2.245   7.785  18.652  0.00  0.00    +0.000 A 
ATOM     21  C   UNL     1       1.812   8.144  19.926  0.00  0.00    +0.000 A 
ATOM     22  C   UNL     1       1.534   7.153  20.863  0.00  0.00    +0.000 A 
ATOM     23  C   UNL     1       1.691   5.806  20.524  0.00  0.00    +0.000 A 
ENDBRANCH   5  18
TORSDOF 5
ENDMDL
MODEL 3
REMARK VINA RESULT:      -7.9      2.716      4.235
REMARK  Name = 
REMARK  6 active torsions:
REMARK  status: ('A' for Active; 'I' for Inactive)
REMARK    1  A    between atoms: C_1  and  C_2
REMARK    2  A    between atoms: C_2  and  O_3
REMARK    3  A    between atoms: O_3  and  C_4
REMARK    4  A    between atoms: C_4  and  C_6
REMARK    5  A    between atoms: C_8  and  C_9
REMARK    6  A    between atoms: C_13  and  C_14
REMARK                            x       y       z     vdW  Elec       q    Type
REMARK                         _______ _______ _______ _____ _____    ______ ____
ROOT
ATOM      1  C   UNL     1       3.232   3.423  19.089  0.00  0.00    +0.000 A 
ATOM      2  C   UNL     1       2.785   2.154  19.403  0.00  0.00    +0.000 A 
ATOM      3  N   UNL     1       1.594   2.274  20.062  0.00  0.00    +0.000 N 
ATOM      4  C   UNL     1       1.247   3.596  20.139  0.00  0.00    +0.000 A 
ATOM      5  C   UNL     1       2.235   4.358  19.532  0.00  0.00    +0.000 A 
ATOM      6  H   UNL     1       1.050   1.506  20.435  0.00  0.00    +0.000 HD
ENDROOT
BRANCH   1   9
ATOM      7  C   UNL     1       5.987   4.215  16.848  0.00  0.00    +0.000 A 
ATOM      8  C   UNL     1       4.679   3.807  17.026  0.00  0.00    +0.000 A 
ATOM      9  C   UNL     1       4.501   3.736  18.426  0.00  0.00    +0.000 A 
ATOM     10  N   UNL     1       5.636   4.003  19.079  0.00  0.00    +0.000 NA
ATOM     11  N   UNL     1       6.504   4.314  18.109  0.00  0.00    +0.000 N 
ATOM     12  H   UNL     1       7.437   4.620  18.367  0.00  0.00    +0.000 HD
BRANCH   7  13
ATOM     13  C   UNL     1       6.748   4.572  15.693  0.00  0.00    +0.000 C 
ATOM     14  O   UNL     1       7.558   5.489  15.659  0.00  0.00    +0.000 OA
BRANCH  13  15
ATOM     15  O   UNL     1       6.363   3.818  14.631  0.00  0.00    +0.000 OA
BRANCH  15  17
ATOM     16  C   UNL     1       6.224   3.373  12.289  0.00  0.00    +0.000 C 
ATOM     17  C   UNL     1       6.743   4.331  13.350  0.00  0.00    +0.000 C 
ENDBRANCH  15  17
ENDBRANCH  13  15
ENDBRANCH   7  13
ENDBRANCH   1   9
BRANCH   5  18
ATOM     18  C   UNL     1       2.130   5.816  19.407  0.00  0.00    +0.000 A 
ATOM     19  C   UNL     1       2.395   6.460  18.189  0.00  0.00    +0.000 A 
ATOM     20  C   UNL     1       2.281   7.851  18.072  0.00  0.00    +0.000 A 
ATOM     21  C   UNL     1       1.885   8.615  19.166  0.00  0.00    +0.000 A 
ATOM     22  C   UNL     1       1.629   7.994  20.384  0.00  0.00    +0.000 A 
ATOM     23  C   UNL     1       1.771   6.609  20.506  0.00  0.00    +0.000 A 
ENDBRANCH   5  18
TORSDOF 5
ENDMDL
MODEL 4
REMARK VINA RESULT:      -7.9      2.607      3.963
REMARK  Name = 
REMARK  6 active torsions:
REMARK  status: ('A' for Active; 'I' for Inactive)
REMARK    1  A    between atoms: C_1  and  C_2
REMARK    2  A    between atoms: C_2  and  O_3
REMARK    3  A    between atoms: O_3  and  C_4
REMARK    4  A    between atoms: C_4  and  C_6
REMARK    5  A    between atoms: C_8  and  C_9
REMARK    6  A    between atoms: C_13  and  C_14
REMARK                            x       y       z     vdW  Elec       q    Type
REMARK                         _______ _______ _______ _____ _____    ______ ____
ROOT
ATOM      1  C   UNL     1       3.293   3.091  18.435  0.00  0.00    +0.000 A 
ATOM      2  C   UNL     1       2.887   1.772  18.496  0.00  0.00    +0.000 A 
ATOM      3  N   UNL     1       1.726   1.717  19.216  0.00  0.00    +0.000 N 
ATOM      4  C   UNL     1       1.356   2.984  19.581  0.00  0.00    +0.000 A 
ATOM      5  C   UNL     1       2.299   3.884  19.105  0.00  0.00    +0.000 A 
ATOM      6  H   UNL     1       1.216   0.873  19.442  0.00  0.00    +0.000 HD
ENDROOT
BRANCH   1   9
ATOM      7  C   UNL     1       5.948   4.304  16.263  0.00  0.00    +0.000 A 
ATOM      8  C   UNL     1       4.686   3.759  16.408  0.00  0.00    +0.000 A 
ATOM      9  C   UNL     1       4.523   3.571  17.800  0.00  0.00    +0.000 A 
ATOM     10  N   UNL     1       5.629   3.901  18.472  0.00  0.00    +0.000 NA
ATOM     11  N   UNL     1       6.458   4.363  17.529  0.00  0.00    +0.000 N 
ATOM     12  H   UNL     1       7.359   4.739  17.810  0.00  0.00    +0.000 HD
BRANCH   7  13
ATOM     13  C   UNL     1       6.666   4.814  15.138  0.00  0.00    +0.000 C 
ATOM     14  O   UNL     1       7.720   5.431  15.217  0.00  0.00    +0.000 OA
BRANCH  13  15
ATOM     15  O   UNL     1       5.955   4.604  13.999  0.00  0.00    +0.000 OA
BRANCH  15  17
ATOM     16  C   UNL     1       5.593   3.179  12.118  0.00  0.00    +0.000 C 
ATOM     17  C   UNL     1       6.640   3.863  12.983  0.00  0.00    +0.000 C 
ENDBRANCH  15  17
ENDBRANCH  13  15
ENDBRANCH   7  13
ENDBRANCH   1   9
BRANCH   5  18
ATOM     18  C   UNL     1       2.159   5.332  19.291  0.00  0.00    +0.000 A 
ATOM     19  C   UNL     1       1.742   5.868  20.519  0.00  0.00    +0.000 A 
ATOM     20  C   UNL     1       1.621   7.252  20.696  0.00  0.00    +0.000 A 
ATOM     21  C   UNL     1       1.931   8.120  19.653  0.00  0.00    +0.000 A 
ATOM     22  C   UNL     1       2.335   7.605  18.425  0.00  0.00    +0.000 A 
ATOM     23  C   UNL     1       2.426   6.223  18.242  0.00  0.00    +0.000 A 
ENDBRANCH   5  18
TORSDOF 5
ENDMDL
MODEL 5
REMARK VINA RESULT:      -7.8      2.742      4.172
REMARK  Name = 
REMARK  6 active torsions:
REMARK  status: ('A' for Active; 'I' for Inactive)
REMARK    1  A    between atoms: C_1  and  C_2
REMARK    2  A    between atoms: C_2  and  O_3
REMARK    3  A    between atoms: O_3  and  C_4
REMARK    4  A    between atoms: C_4  and  C_6
REMARK    5  A    between atoms: C_8  and  C_9
REMARK    6  A    between atoms: C_13  and  C_14
REMARK                            x       y       z     vdW  Elec       q    Type
REMARK                         _______ _______ _______ _____ _____    ______ ____
ROOT
ATOM      1  C   UNL     1       3.636   3.865  19.740  0.00  0.00    +0.000 A 
ATOM      2  C   UNL     1       3.346   2.663  20.359  0.00  0.00    +0.000 A 
ATOM      3  N   UNL     1       2.190   2.820  21.071  0.00  0.00    +0.000 N 
ATOM      4  C   UNL     1       1.708   4.089  20.884  0.00  0.00    +0.000 A 
ATOM      5  C   UNL     1       2.572   4.780  20.047  0.00  0.00    +0.000 A 
ATOM      6  H   UNL     1       1.754   2.110  21.645  0.00  0.00    +0.000 HD
ENDROOT
BRANCH   1   9
ATOM      7  C   UNL     1       6.140   4.439  17.163  0.00  0.00    +0.000 A 
ATOM      8  C   UNL     1       4.879   4.000  17.519  0.00  0.00    +0.000 A 
ATOM      9  C   UNL     1       4.824   4.133  18.925  0.00  0.00    +0.000 A 
ATOM     10  N   UNL     1       5.991   4.551  19.424  0.00  0.00    +0.000 NA
ATOM     11  N   UNL     1       6.753   4.753  18.343  0.00  0.00    +0.000 N 
ATOM     12  H   UNL     1       7.684   5.139  18.467  0.00  0.00    +0.000 HD
BRANCH   7  13
ATOM     13  C   UNL     1       6.778   4.653  15.904  0.00  0.00    +0.000 C 
ATOM     14  O   UNL     1       7.493   5.613  15.649  0.00  0.00    +0.000 OA
BRANCH  13  15
ATOM     15  O   UNL     1       6.390   3.699  15.018  0.00  0.00    +0.000 OA
BRANCH  15  17
ATOM     16  C   UNL     1       6.188   3.495  12.647  0.00  0.00    +0.000 C 
ATOM     17  C   UNL     1       5.646   4.179  13.893  0.00  0.00    +0.000 C 
ENDBRANCH  15  17
ENDBRANCH  13  15
ENDBRANCH   7  13
ENDBRANCH   1   9
BRANCH   5  18
ATOM     18  C   UNL     1       2.304   6.156  19.615  0.00  0.00    +0.000 A 
ATOM     19  C   UNL     1       1.822   7.118  20.516  0.00  0.00    +0.000 A 
ATOM     20  C   UNL     1       1.580   8.433  20.101  0.00  0.00    +0.000 A 
ATOM     21  C   UNL     1       1.832   8.810  18.785  0.00  0.00    +0.000 A 
ATOM     22  C   UNL     1       2.299   7.866  17.876  0.00  0.00    +0.000 A 
ATOM     23  C   UNL     1       2.512   6.547  18.285  0.00  0.00    +0.000 A 
ENDBRANCH   5  18
TORSDOF 5
ENDMDL
MODEL 6
REMARK VINA RESULT:      -7.7      3.639      5.325
REMARK  Name = 
REMARK  6 active torsions:
REMARK  status: ('A' for Active; 'I' for Inactive)
REMARK    1  A    between atoms: C_1  and  C_2
REMARK    2  A    between atoms: C_2  and  O_3
REMARK    3  A    between atoms: O_3  and  C_4
REMARK    4  A    between atoms: C_4  and  C_6
REMARK    5  A    between atoms: C_8  and  C_9
REMARK    6  A    between atoms: C_13  and  C_14
REMARK                            x       y       z     vdW  Elec       q    Type
REMARK                         _______ _______ _______ _____ _____    ______ ____
ROOT
ATOM      1  C   UNL     1       2.996   3.221  18.149  0.00  0.00    +0.000 A 
ATOM      2  C   UNL     1       2.476   1.951  17.985  0.00  0.00    +0.000 A 
ATOM      3  N   UNL     1       1.248   1.914  18.584  0.00  0.00    +0.000 N 
ATOM      4  C   UNL     1       0.951   3.151  19.092  0.00  0.00    +0.000 A 
ATOM      5  C   UNL     1       2.009   4.010  18.835  0.00  0.00    +0.000 A 
ATOM      6  H   UNL     1       0.648   1.101  18.642  0.00  0.00    +0.000 HD
ENDROOT
BRANCH   1   9
ATOM      7  C   UNL     1       6.415   4.394  17.734  0.00  0.00    +0.000 A 
ATOM      8  C   UNL     1       5.309   4.216  18.543  0.00  0.00    +0.000 A 
ATOM      9  C   UNL     1       4.320   3.660  17.701  0.00  0.00    +0.000 A 
ATOM     10  N   UNL     1       4.746   3.569  16.437  0.00  0.00    +0.000 NA
ATOM     11  N   UNL     1       6.015   3.991  16.491  0.00  0.00    +0.000 N 
ATOM     12  H   UNL     1       6.579   3.954  15.647  0.00  0.00    +0.000 HD
BRANCH   7  13
ATOM     13  C   UNL     1       7.756   4.813  17.993  0.00  0.00    +0.000 C 
ATOM     14  O   UNL     1       8.730   4.074  17.941  0.00  0.00    +0.000 OA
BRANCH  13  15
ATOM     15  O   UNL     1       7.767   6.109  18.401  0.00  0.00    +0.000 OA
BRANCH  15  17
ATOM     16  C   UNL     1       8.005   8.411  17.814  0.00  0.00    +0.000 C 
ATOM     17  C   UNL     1       7.430   7.068  17.393  0.00  0.00    +0.000 C 
ENDBRANCH  15  17
ENDBRANCH  13  15
ENDBRANCH   7  13
ENDBRANCH   1   9
BRANCH   5  18
ATOM     18  C   UNL     1       1.973   5.427  19.212  0.00  0.00    +0.000 A 
ATOM     19  C   UNL     1       2.306   6.432  18.291  0.00  0.00    +0.000 A 
ATOM     20  C   UNL     1       2.258   7.783  18.653  0.00  0.00    +0.000 A 
ATOM     21  C   UNL     1       1.861   8.151  19.936  0.00  0.00    +0.000 A 
ATOM     22  C   UNL     1       1.540   7.167  20.866  0.00  0.00    +0.000 A 
ATOM     23  C   UNL     1       1.616   5.817  20.511  0.00  0.00    +0.000 A 
ENDBRANCH   5  18
TORSDOF 5
ENDMDL
MODEL 7
REMARK VINA RESULT:      -7.7      3.652      5.340
REMARK  Name = 
REMARK  6 active torsions:
REMARK  status: ('A' for Active; 'I' for Inactive)
REMARK    1  A    between atoms: C_1  and  C_2
REMARK    2  A    between atoms: C_2  and  O_3
REMARK    3  A    between atoms: O_3  and  C_4
REMARK    4  A    between atoms: C_4  and  C_6
REMARK    5  A    between atoms: C_8  and  C_9
REMARK    6  A    between atoms: C_13  and  C_14
REMARK                            x       y       z     vdW  Elec       q    Type
REMARK                         _______ _______ _______ _____ _____    ______ ____
ROOT
ATOM      1  C   UNL     1       3.028   3.169  18.209  0.00  0.00    +0.000 A 
ATOM      2  C   UNL     1       2.535   1.887  18.055  0.00  0.00    +0.000 A 
ATOM      3  N   UNL     1       1.313   1.826  18.663  0.00  0.00    +0.000 N 
ATOM      4  C   UNL     1       0.992   3.058  19.167  0.00  0.00    +0.000 A 
ATOM      5  C   UNL     1       2.030   3.939  18.897  0.00  0.00    +0.000 A 
ATOM      6  H   UNL     1       0.732   1.000  18.729  0.00  0.00    +0.000 HD
ENDROOT
BRANCH   1   9
ATOM      7  C   UNL     1       6.423   4.398  17.762  0.00  0.00    +0.000 A 
ATOM      8  C   UNL     1       5.333   4.190  18.585  0.00  0.00    +0.000 A 
ATOM      9  C   UNL     1       4.339   3.634  17.748  0.00  0.00    +0.000 A 
ATOM     10  N   UNL     1       4.747   3.571  16.477  0.00  0.00    +0.000 NA
ATOM     11  N   UNL     1       6.010   4.010  16.519  0.00  0.00    +0.000 N 
ATOM     12  H   UNL     1       6.562   3.996  15.666  0.00  0.00    +0.000 HD
BRANCH   7  13
ATOM     13  C   UNL     1       7.762   4.832  18.009  0.00  0.00    +0.000 C 
ATOM     14  O   UNL     1       8.746   4.110  17.922  0.00  0.00    +0.000 OA
BRANCH  13  15
ATOM     15  O   UNL     1       7.760   6.118  18.449  0.00  0.00    +0.000 OA
BRANCH  15  17
ATOM     16  C   UNL     1       8.085   8.403  17.840  0.00  0.00    +0.000 C 
ATOM     17  C   UNL     1       7.402   7.096  17.468  0.00  0.00    +0.000 C 
ENDBRANCH  15  17
ENDBRANCH  13  15
ENDBRANCH   7  13
ENDBRANCH   1   9
BRANCH   5  18
ATOM     18  C   UNL     1       1.965   5.357  19.268  0.00  0.00    +0.000 A 
ATOM     19  C   UNL     1       1.561   5.753  20.553  0.00  0.00    +0.000 A 
ATOM     20  C   UNL     1       1.513   7.106  20.906  0.00  0.00    +0.000 A 
ATOM     21  C   UNL     1       1.884   8.084  19.986  0.00  0.00    +0.000 A 
ATOM     22  C   UNL     1       2.276   7.709  18.704  0.00  0.00    +0.000 A 
ATOM     23  C   UNL     1       2.295   6.359  18.345  0.00  0.00    +0.000 A 
ENDBRANCH   5  18
TORSDOF 5
ENDMDL
MODEL 8
REMARK VINA RESULT:      -7.7      3.625      5.268
REMARK  Name = 
REMARK  6 active torsions:
REMARK  status: ('A' for Active; 'I' for Inactive)
REMARK    1  A    between atoms: C_1  and  C_2
REMARK    2  A    between atoms: C_2  and  O_3
REMARK    3  A    between atoms: O_3  and  C_4
REMARK    4  A    between atoms: C_4  and  C_6
REMARK    5  A    between atoms: C_8  and  C_9
REMARK    6  A    between atoms: C_13  and  C_14
REMARK                            x       y       z     vdW  Elec       q    Type
REMARK                         _______ _______ _______ _____ _____    ______ ____
ROOT
ATOM      1  C   UNL     1       3.011   3.625  19.381  0.00  0.00    +0.000 A 
ATOM      2  C   UNL     1       2.616   2.416  19.922  0.00  0.00    +0.000 A 
ATOM      3  N   UNL     1       1.583   2.653  20.785  0.00  0.00    +0.000 N 
ATOM      4  C   UNL     1       1.279   3.989  20.775  0.00  0.00    +0.000 A 
ATOM      5  C   UNL     1       2.137   4.640  19.901  0.00  0.00    +0.000 A 
ATOM      6  H   UNL     1       1.112   1.953  21.343  0.00  0.00    +0.000 HD
ENDROOT
BRANCH   1   9
ATOM      7  C   UNL     1       6.130   4.336  17.648  0.00  0.00    +0.000 A 
ATOM      8  C   UNL     1       5.337   4.468  18.772  0.00  0.00    +0.000 A 
ATOM      9  C   UNL     1       4.127   3.813  18.451  0.00  0.00    +0.000 A 
ATOM     10  N   UNL     1       4.129   3.371  17.190  0.00  0.00    +0.000 NA
ATOM     11  N   UNL     1       5.352   3.674  16.741  0.00  0.00    +0.000 N 
ATOM     12  H   UNL     1       5.618   3.375  15.807  0.00  0.00    +0.000 HD
BRANCH   7  13
ATOM     13  C   UNL     1       7.487   4.681  17.365  0.00  0.00    +0.000 C 
ATOM     14  O   UNL     1       8.456   4.114  17.851  0.00  0.00    +0.000 OA
BRANCH  13  15
ATOM     15  O   UNL     1       7.531   5.782  16.571  0.00  0.00    +0.000 OA
BRANCH  15  17
ATOM     16  C   UNL     1       7.966   7.636  18.012  0.00  0.00    +0.000 C 
ATOM     17  C   UNL     1       6.932   6.958  17.126  0.00  0.00    +0.000 C 
ENDBRANCH  15  17
ENDBRANCH  13  15
ENDBRANCH   7  13
ENDBRANCH   1   9
BRANCH   5  18
ATOM     18  C   UNL     1       2.032   6.078  19.632  0.00  0.00    +0.000 A 
ATOM     19  C   UNL     1       2.339   6.604  18.367  0.00  0.00    +0.000 A 
ATOM     20  C   UNL     1       2.225   7.975  18.111  0.00  0.00    +0.000 A 
ATOM     21  C   UNL     1       1.788   8.840  19.111  0.00  0.00    +0.000 A 
ATOM     22  C   UNL     1       1.490   8.337  20.374  0.00  0.00    +0.000 A 
ATOM     23  C   UNL     1       1.632   6.972  20.635  0.00  0.00    +0.000 A 
ENDBRANCH   5  18
TORSDOF 5
ENDMDL
MODEL 9
REMARK VINA RESULT:      -7.7      3.873      5.467
REMARK  Name = 
REMARK  6 active torsions:
REMARK  status: ('A' for Active; 'I' for Inactive)
REMARK    1  A    between atoms: C_1  and  C_2
REMARK    2  A    between atoms: C_2  and  O_3
REMARK    3  A    between atoms: O_3  and  C_4
REMARK    4  A    between atoms: C_4  and  C_6
REMARK    5  A    between atoms: C_8  and  C_9
REMARK    6  A    between atoms: C_13  and  C_14
REMARK                            x       y       z     vdW  Elec       q    Type
REMARK                         _______ _______ _______ _____ _____    ______ ____
ROOT
ATOM      1  C   UNL     1       2.993   3.768  19.535  0.00  0.00    +0.000 A 
ATOM      2  C   UNL     1       2.576   2.568  20.078  0.00  0.00    +0.000 A 
ATOM      3  N   UNL     1       1.470   2.809  20.844  0.00  0.00    +0.000 N 
ATOM      4  C   UNL     1       1.144   4.137  20.767  0.00  0.00    +0.000 A 
ATOM      5  C   UNL     1       2.060   4.780  19.948  0.00  0.00    +0.000 A 
ATOM      6  H   UNL     1       0.967   2.116  21.383  0.00  0.00    +0.000 HD
ENDROOT
BRANCH   1   9
ATOM      7  C   UNL     1       6.225   4.513  18.039  0.00  0.00    +0.000 A 
ATOM      8  C   UNL     1       5.332   4.672  19.081  0.00  0.00    +0.000 A 
ATOM      9  C   UNL     1       4.180   3.952  18.695  0.00  0.00    +0.000 A 
ATOM     10  N   UNL     1       4.309   3.443  17.466  0.00  0.00    +0.000 NA
ATOM     11  N   UNL     1       5.555   3.771  17.107  0.00  0.00    +0.000 N 
ATOM     12  H   UNL     1       5.913   3.434  16.219  0.00  0.00    +0.000 HD
BRANCH   7  13
ATOM     13  C   UNL     1       7.589   4.897  17.855  0.00  0.00    +0.000 C 
ATOM     14  O   UNL     1       8.459   4.157  17.416  0.00  0.00    +0.000 OA
BRANCH  13  15
ATOM     15  O   UNL     1       7.786   6.153  18.334  0.00  0.00    +0.000 OA
BRANCH  15  17
ATOM     16  C   UNL     1       8.119   8.481  17.916  0.00  0.00    +0.000 C 
ATOM     17  C   UNL     1       7.438   7.209  17.432  0.00  0.00    +0.000 C 
ENDBRANCH  15  17
ENDBRANCH  13  15
ENDBRANCH   7  13
ENDBRANCH   1   9
BRANCH   5  18
ATOM     18  C   UNL     1       1.952   6.207  19.626  0.00  0.00    +0.000 A 
ATOM     19  C   UNL     1       1.549   7.140  20.593  0.00  0.00    +0.000 A 
ATOM     20  C   UNL     1       1.459   8.503  20.285  0.00  0.00    +0.000 A 
ATOM     21  C   UNL     1       1.786   8.954  19.009  0.00  0.00    +0.000 A 
ATOM     22  C   UNL     1       2.177   8.041  18.034  0.00  0.00    +0.000 A 
ATOM     23  C   UNL     1       2.237   6.678  18.337  0.00  0.00    +0.000 A 
ENDBRANCH   5  18
TORSDOF 5
ENDMDL
