MODEL 1
REMARK VINA RESULT:      -7.6      0.000      0.000
REMARK  Name = 
REMARK  10 active torsions:
REMARK  status: ('A' for Active; 'I' for Inactive)
REMARK    1  A    between atoms: C_1  and  C_2
REMARK    2  A    between atoms: C_2  and  C_3
REMARK    3  A    between atoms: C_6  and  C_7
REMARK    4  A    between atoms: N_15  and  C_16
REMARK    5  A    between atoms: C_16  and  C_17
REMARK    6  A    between atoms: N_19  and  C_20
REMARK    7  A    between atoms: C_20  and  C_21
REMARK    8  A    between atoms: C_20  and  C_25
REMARK    9  A    between atoms: C_21  and  C_22
REMARK   10  A    between atoms: C_22  and  O_24
REMARK                            x       y       z     vdW  Elec       q    Type
REMARK                         _______ _______ _______ _____ _____    ______ ____
ROOT
ATOM      1  C   UNL     1      -2.066  11.086  18.287  0.00  0.00    +0.000 C 
ATOM      2  C   UNL     1      -1.183  11.442  19.485  0.00  0.00    +0.000 C 
ATOM      3  N   UNL     1      -0.168  12.393  19.071  0.00  0.00    +0.000 N 
ATOM      4  C   UNL     1       1.079  11.831  18.965  0.00  0.00    +0.000 C 
ATOM      5  O   UNL     1       2.040  12.399  18.475  0.00  0.00    +0.000 OA
ATOM      6  N   UNL     1       1.033  10.573  19.470  0.00  0.00    +0.000 N 
ATOM      7  C   UNL     1      -0.251  10.241  19.804  0.00  0.00    +0.000 C 
ATOM      8  O   UNL     1      -0.600   9.141  20.217  0.00  0.00    +0.000 OA
ATOM      9  H   UNL     1      -0.348  13.299  18.663  0.00  0.00    +0.000 HD
ENDROOT
BRANCH   2  10
ATOM     10  C   UNL     1      -2.024  11.936  20.659  0.00  0.00    +0.000 A 
ATOM     11  C   UNL     1      -3.309  12.475  20.465  0.00  0.00    +0.000 A 
ATOM     12  C   UNL     1      -4.107  12.864  21.550  0.00  0.00    +0.000 A 
ATOM     13  C   UNL     1      -3.639  12.716  22.857  0.00  0.00    +0.000 A 
ATOM     14  C   UNL     1      -2.367  12.182  23.072  0.00  0.00    +0.000 A 
ATOM     15  C   UNL     1      -1.577  11.788  21.985  0.00  0.00    +0.000 A 
BRANCH  13  16
ATOM     16  C   UNL     1      -4.501  13.124  24.002  0.00  0.00    +0.000 C 
ATOM     17  N   UNL     1      -4.961  12.285  24.877  0.00  0.00    +0.000 NA
ATOM     18  N   UNL     1      -4.847  14.433  24.174  0.00  0.00    +0.000 N 
ATOM     19  H   UNL     1      -4.694  11.325  24.648  0.00  0.00    +0.000 HD
ATOM     20  H   UNL     1      -4.130  15.110  23.940  0.00  0.00    +0.000 HD
ATOM     21  H   UNL     1      -5.235  14.579  25.101  0.00  0.00    +0.000 HD
ENDBRANCH  13  16
ENDBRANCH   2  10
BRANCH   6  22
ATOM     22  C   UNL     1       2.171   9.677  19.518  0.00  0.00    +0.000 C 
BRANCH  22  23
ATOM     23  C   UNL     1       2.125   8.557  18.475  0.00  0.00    +0.000 C 
ATOM     24  O   UNL     1       1.692   8.766  17.342  0.00  0.00    +0.000 OA
ATOM     25  N   UNL     1       2.597   7.329  18.875  0.00  0.00    +0.000 N 
ATOM     26  H   UNL     1       2.713   7.154  19.869  0.00  0.00    +0.000 HD
BRANCH  25  27
ATOM     27  C   UNL     1       2.554   6.154  18.016  0.00  0.00    +0.000 C 
BRANCH  27  28
ATOM     28  C   UNL     1       1.944   4.936  18.697  0.00  0.00    +0.000 A 
ATOM     29  C   UNL     1       1.760   4.945  20.092  0.00  0.00    +0.000 A 
ATOM     30  C   UNL     1       1.244   3.832  20.755  0.00  0.00    +0.000 A 
ATOM     31  C   UNL     1       0.898   2.690  20.037  0.00  0.00    +0.000 A 
ATOM     32  C   UNL     1       1.053   2.669  18.654  0.00  0.00    +0.000 A 
ATOM     33  C   UNL     1       1.565   3.784  17.987  0.00  0.00    +0.000 A 
ENDBRANCH  27  28
BRANCH  27  34
ATOM     34  C   UNL     1       3.923   5.866  17.384  0.00  0.00    +0.000 C 
BRANCH  34  35
ATOM     35  C   UNL     1       4.874   5.143  18.306  0.00  0.00    +0.000 C 
ATOM     36  O   UNL     1       5.250   5.561  19.391  0.00  0.00    +0.000 OA
BRANCH  35  37
ATOM     37  O   UNL     1       5.366   4.003  17.765  0.00  0.00    +0.000 OA
ATOM     38  H   UNL     1       6.016   4.144  17.050  0.00  0.00    +0.000 HD
ENDBRANCH  35  37
ENDBRANCH  34  35
ENDBRANCH  27  34
ENDBRANCH  25  27
ENDBRANCH  22  23
ENDBRANCH   6  22
TORSDOF 9
ENDMDL
MODEL 2
REMARK VINA RESULT:      -7.5      2.547      3.555
REMARK  Name = 
REMARK  10 active torsions:
REMARK  status: ('A' for Active; 'I' for Inactive)
REMARK    1  A    between atoms: C_1  and  C_2
REMARK    2  A    between atoms: C_2  and  C_3
REMARK    3  A    between atoms: C_6  and  C_7
REMARK    4  A    between atoms: N_15  and  C_16
REMARK    5  A    between atoms: C_16  and  C_17
REMARK    6  A    between atoms: N_19  and  C_20
REMARK    7  A    between atoms: C_20  and  C_21
REMARK    8  A    between atoms: C_20  and  C_25
REMARK    9  A    between atoms: C_21  and  C_22
REMARK   10  A    between atoms: C_22  and  O_24
REMARK                            x       y       z     vdW  Elec       q    Type
REMARK                         _______ _______ _______ _____ _____    ______ ____
ROOT
ATOM      1  C   UNL     1       1.165  11.669  20.357  0.00  0.00    +0.000 C 
ATOM      2  C   UNL     1       0.524  10.482  19.634  0.00  0.00    +0.000 C 
ATOM      3  N   UNL     1       0.597   9.305  20.480  0.00  0.00    +0.000 N 
ATOM      4  C   UNL     1       1.537   8.402  20.057  0.00  0.00    +0.000 C 
ATOM      5  O   UNL     1       1.884   7.429  20.705  0.00  0.00    +0.000 OA
ATOM      6  N   UNL     1       2.001   8.792  18.843  0.00  0.00    +0.000 N 
ATOM      7  C   UNL     1       1.471  10.006  18.500  0.00  0.00    +0.000 C 
ATOM      8  O   UNL     1       1.768  10.633  17.490  0.00  0.00    +0.000 OA
ATOM      9  H   UNL     1       0.204   9.227  21.407  0.00  0.00    +0.000 HD
ENDROOT
BRANCH   2  10
ATOM     10  C   UNL     1      -0.899  10.815  19.191  0.00  0.00    +0.000 A 
ATOM     11  C   UNL     1      -1.624  11.866  19.779  0.00  0.00    +0.000 A 
ATOM     12  C   UNL     1      -2.903  12.214  19.323  0.00  0.00    +0.000 A 
ATOM     13  C   UNL     1      -3.484  11.519  18.261  0.00  0.00    +0.000 A 
ATOM     14  C   UNL     1      -2.782  10.473  17.661  0.00  0.00    +0.000 A 
ATOM     15  C   UNL     1      -1.501  10.134  18.116  0.00  0.00    +0.000 A 
BRANCH  13  16
ATOM     16  C   UNL     1      -4.841  11.905  17.779  0.00  0.00    +0.000 C 
ATOM     17  N   UNL     1      -5.408  11.359  16.748  0.00  0.00    +0.000 NA
ATOM     18  N   UNL     1      -5.553  12.874  18.423  0.00  0.00    +0.000 N 
ATOM     19  H   UNL     1      -4.790  10.680  16.299  0.00  0.00    +0.000 HD
ATOM     20  H   UNL     1      -5.458  12.890  19.432  0.00  0.00    +0.000 HD
ATOM     21  H   UNL     1      -6.523  12.862  18.123  0.00  0.00    +0.000 HD
ENDBRANCH  13  16
ENDBRANCH   2  10
BRANCH   6  22
ATOM     22  C   UNL     1       3.013   8.076  18.093  0.00  0.00    +0.000 C 
BRANCH  22  23
ATOM     23  C   UNL     1       2.636   6.630  17.763  0.00  0.00    +0.000 C 
ATOM     24  O   UNL     1       1.469   6.318  17.527  0.00  0.00    +0.000 OA
ATOM     25  N   UNL     1       3.666   5.719  17.742  0.00  0.00    +0.000 N 
ATOM     26  H   UNL     1       4.550   5.976  18.172  0.00  0.00    +0.000 HD
BRANCH  25  27
ATOM     27  C   UNL     1       3.452   4.297  17.510  0.00  0.00    +0.000 C 
BRANCH  27  28
ATOM     28  C   UNL     1       2.767   3.596  18.676  0.00  0.00    +0.000 A 
ATOM     29  C   UNL     1       1.456   3.113  18.515  0.00  0.00    +0.000 A 
ATOM     30  C   UNL     1       0.780   2.504  19.573  0.00  0.00    +0.000 A 
ATOM     31  C   UNL     1       1.404   2.364  20.810  0.00  0.00    +0.000 A 
ATOM     32  C   UNL     1       2.708   2.818  20.984  0.00  0.00    +0.000 A 
ATOM     33  C   UNL     1       3.388   3.423  19.924  0.00  0.00    +0.000 A 
ENDBRANCH  27  28
BRANCH  27  34
ATOM     34  C   UNL     1       4.744   3.597  17.064  0.00  0.00    +0.000 C 
BRANCH  34  35
ATOM     35  C   UNL     1       5.979   4.447  17.226  0.00  0.00    +0.000 C 
ATOM     36  O   UNL     1       6.397   5.239  16.394  0.00  0.00    +0.000 OA
BRANCH  35  37
ATOM     37  O   UNL     1       6.659   4.175  18.365  0.00  0.00    +0.000 OA
ATOM     38  H   UNL     1       7.258   4.889  18.657  0.00  0.00    +0.000 HD
ENDBRANCH  35  37
ENDBRANCH  34  35
ENDBRANCH  27  34
ENDBRANCH  25  27
ENDBRANCH  22  23
ENDBRANCH   6  22
TORSDOF 9
ENDMDL
MODEL 3
REMARK VINA RESULT:      -7.5      2.500      3.444
REMARK  Name = 
REMARK  10 active torsions:
REMARK  status: ('A' for Active; 'I' for Inactive)
REMARK    1  A    between atoms: C_1  and  C_2
REMARK    2  A    between atoms: C_2  and  C_3
REMARK    3  A    between atoms: C_6  and  C_7
REMARK    4  A    between atoms: N_15  and  C_16
REMARK    5  A    between atoms: C_16  and  C_17
REMARK    6  A    between atoms: N_19  and  C_20
REMARK    7  A    between atoms: C_20  and  C_21
REMARK    8  A    between atoms: C_20  and  C_25
REMARK    9  A    between atoms: C_21  and  C_22
REMARK   10  A    between atoms: C_22  and  O_24
REMARK                            x       y       z     vdW  Elec       q    Type
REMARK                         _______ _______ _______ _____ _____    ______ ____
ROOT
ATOM      1  C   UNL     1       1.153  11.604  20.486  0.00  0.00    +0.000 C 
ATOM      2  C   UNL     1       0.538  10.503  19.618  0.00  0.00    +0.000 C 
ATOM      3  N   UNL     1       0.548   9.250  20.350  0.00  0.00    +0.000 N 
ATOM      4  C   UNL     1       1.499   8.373  19.895  0.00  0.00    +0.000 C 
ATOM      5  O   UNL     1       1.796   7.338  20.465  0.00  0.00    +0.000 OA
ATOM      6  N   UNL     1       2.036   8.869  18.752  0.00  0.00    +0.000 N 
ATOM      7  C   UNL     1       1.543  10.119  18.498  0.00  0.00    +0.000 C 
ATOM      8  O   UNL     1       1.905  10.834  17.571  0.00  0.00    +0.000 OA
ATOM      9  H   UNL     1       0.101   9.091  21.242  0.00  0.00    +0.000 HD
ENDROOT
BRANCH   2  10
ATOM     10  C   UNL     1      -0.853  10.902  19.131  0.00  0.00    +0.000 A 
ATOM     11  C   UNL     1      -1.490  10.211  18.084  0.00  0.00    +0.000 A 
ATOM     12  C   UNL     1      -2.794  10.535  17.685  0.00  0.00    +0.000 A 
ATOM     13  C   UNL     1      -3.494  11.556  18.330  0.00  0.00    +0.000 A 
ATOM     14  C   UNL     1      -2.882  12.253  19.373  0.00  0.00    +0.000 A 
ATOM     15  C   UNL     1      -1.581  11.921  19.772  0.00  0.00    +0.000 A 
BRANCH  13  16
ATOM     16  C   UNL     1      -4.884  11.884  17.903  0.00  0.00    +0.000 C 
ATOM     17  N   UNL     1      -5.488  11.275  16.931  0.00  0.00    +0.000 NA
ATOM     18  N   UNL     1      -5.588  12.866  18.537  0.00  0.00    +0.000 N 
ATOM     19  H   UNL     1      -4.876  10.590  16.483  0.00  0.00    +0.000 HD
ATOM     20  H   UNL     1      -5.441  12.933  19.538  0.00  0.00    +0.000 HD
ATOM     21  H   UNL     1      -6.571  12.815  18.290  0.00  0.00    +0.000 HD
ENDBRANCH  13  16
ENDBRANCH   2  10
BRANCH   6  22
ATOM     22  C   UNL     1       3.080   8.209  17.994  0.00  0.00    +0.000 C 
BRANCH  22  23
ATOM     23  C   UNL     1       2.909   6.692  17.889  0.00  0.00    +0.000 C 
ATOM     24  O   UNL     1       1.871   6.202  17.444  0.00  0.00    +0.000 OA
ATOM     25  N   UNL     1       3.970   5.925  18.310  0.00  0.00    +0.000 N 
ATOM     26  H   UNL     1       4.689   6.363  18.880  0.00  0.00    +0.000 HD
BRANCH  25  27
ATOM     27  C   UNL     1       3.928   4.470  18.333  0.00  0.00    +0.000 C 
BRANCH  27  28
ATOM     28  C   UNL     1       2.902   3.916  19.313  0.00  0.00    +0.000 A 
ATOM     29  C   UNL     1       3.087   4.118  20.693  0.00  0.00    +0.000 A 
ATOM     30  C   UNL     1       2.192   3.589  21.622  0.00  0.00    +0.000 A 
ATOM     31  C   UNL     1       1.093   2.851  21.190  0.00  0.00    +0.000 A 
ATOM     32  C   UNL     1       0.882   2.657  19.828  0.00  0.00    +0.000 A 
ATOM     33  C   UNL     1       1.775   3.191  18.895  0.00  0.00    +0.000 A 
ENDBRANCH  27  28
BRANCH  27  34
ATOM     34  C   UNL     1       5.327   3.868  18.523  0.00  0.00    +0.000 C 
BRANCH  34  35
ATOM     35  C   UNL     1       6.431   4.896  18.547  0.00  0.00    +0.000 C 
ATOM     36  O   UNL     1       7.037   5.295  17.563  0.00  0.00    +0.000 OA
BRANCH  35  37
ATOM     37  O   UNL     1       6.767   5.277  19.802  0.00  0.00    +0.000 OA
ATOM     38  H   UNL     1       6.625   6.226  19.988  0.00  0.00    +0.000 HD
ENDBRANCH  35  37
ENDBRANCH  34  35
ENDBRANCH  27  34
ENDBRANCH  25  27
ENDBRANCH  22  23
ENDBRANCH   6  22
TORSDOF 9
ENDMDL
MODEL 4
REMARK VINA RESULT:      -7.5      2.149      3.004
REMARK  Name = 
REMARK  10 active torsions:
REMARK  status: ('A' for Active; 'I' for Inactive)
REMARK    1  A    between atoms: C_1  and  C_2
REMARK    2  A    between atoms: C_2  and  C_3
REMARK    3  A    between atoms: C_6  and  C_7
REMARK    4  A    between atoms: N_15  and  C_16
REMARK    5  A    between atoms: C_16  and  C_17
REMARK    6  A    between atoms: N_19  and  C_20
REMARK    7  A    between atoms: C_20  and  C_21
REMARK    8  A    between atoms: C_20  and  C_25
REMARK    9  A    between atoms: C_21  and  C_22
REMARK   10  A    between atoms: C_22  and  O_24
REMARK                            x       y       z     vdW  Elec       q    Type
REMARK                         _______ _______ _______ _____ _____    ______ ____
ROOT
ATOM      1  C   UNL     1       0.017  12.284  21.363  0.00  0.00    +0.000 C 
ATOM      2  C   UNL     1      -0.396  11.223  20.340  0.00  0.00    +0.000 C 
ATOM      3  N   UNL     1      -0.364   9.913  20.964  0.00  0.00    +0.000 N 
ATOM      4  C   UNL     1       0.706   9.155  20.561  0.00  0.00    +0.000 C 
ATOM      5  O   UNL     1       1.022   8.098  21.077  0.00  0.00    +0.000 OA
ATOM      6  N   UNL     1       1.328   9.791  19.536  0.00  0.00    +0.000 N 
ATOM      7  C   UNL     1       0.761  11.019  19.325  0.00  0.00    +0.000 C 
ATOM      8  O   UNL     1       1.166  11.840  18.511  0.00  0.00    +0.000 OA
ATOM      9  H   UNL     1      -0.896   9.640  21.778  0.00  0.00    +0.000 HD
ENDROOT
BRANCH   2  10
ATOM     10  C   UNL     1      -1.749  11.558  19.719  0.00  0.00    +0.000 A 
ATOM     11  C   UNL     1      -2.160  10.987  18.501  0.00  0.00    +0.000 A 
ATOM     12  C   UNL     1      -3.431  11.242  17.968  0.00  0.00    +0.000 A 
ATOM     13  C   UNL     1      -4.325  12.073  18.646  0.00  0.00    +0.000 A 
ATOM     14  C   UNL     1      -3.939  12.649  19.857  0.00  0.00    +0.000 A 
ATOM     15  C   UNL     1      -2.670  12.385  20.389  0.00  0.00    +0.000 A 
BRANCH  13  16
ATOM     16  C   UNL     1      -5.677  12.329  18.073  0.00  0.00    +0.000 C 
ATOM     17  N   UNL     1      -6.156  13.520  17.894  0.00  0.00    +0.000 NA
ATOM     18  N   UNL     1      -6.481  11.288  17.708  0.00  0.00    +0.000 N 
ATOM     19  H   UNL     1      -5.511  14.236  18.237  0.00  0.00    +0.000 HD
ATOM     20  H   UNL     1      -6.006  10.492  17.298  0.00  0.00    +0.000 HD
ATOM     21  H   UNL     1      -7.253  11.619  17.138  0.00  0.00    +0.000 HD
ENDBRANCH  13  16
ENDBRANCH   2  10
BRANCH   6  22
ATOM     22  C   UNL     1       2.505   9.284  18.862  0.00  0.00    +0.000 C 
BRANCH  22  23
ATOM     23  C   UNL     1       2.278   7.962  18.124  0.00  0.00    +0.000 C 
ATOM     24  O   UNL     1       1.312   7.814  17.376  0.00  0.00    +0.000 OA
ATOM     25  N   UNL     1       3.209   6.973  18.339  0.00  0.00    +0.000 N 
ATOM     26  H   UNL     1       3.837   7.063  19.133  0.00  0.00    +0.000 HD
BRANCH  25  27
ATOM     27  C   UNL     1       3.090   5.643  17.760  0.00  0.00    +0.000 C 
BRANCH  27  28
ATOM     28  C   UNL     1       2.256   4.692  18.608  0.00  0.00    +0.000 A 
ATOM     29  C   UNL     1       2.053   4.981  19.970  0.00  0.00    +0.000 A 
ATOM     30  C   UNL     1       1.331   4.112  20.789  0.00  0.00    +0.000 A 
ATOM     31  C   UNL     1       0.795   2.941  20.261  0.00  0.00    +0.000 A 
ATOM     32  C   UNL     1       0.968   2.647  18.911  0.00  0.00    +0.000 A 
ATOM     33  C   UNL     1       1.686   3.518  18.088  0.00  0.00    +0.000 A 
ENDBRANCH  27  28
BRANCH  27  34
ATOM     34  C   UNL     1       4.462   5.066  17.383  0.00  0.00    +0.000 C 
BRANCH  34  35
ATOM     35  C   UNL     1       5.398   4.918  18.556  0.00  0.00    +0.000 C 
ATOM     36  O   UNL     1       5.362   5.600  19.570  0.00  0.00    +0.000 OA
BRANCH  35  37
ATOM     37  O   UNL     1       6.373   4.004  18.339  0.00  0.00    +0.000 OA
ATOM     38  H   UNL     1       7.127   4.063  18.958  0.00  0.00    +0.000 HD
ENDBRANCH  35  37
ENDBRANCH  34  35
ENDBRANCH  27  34
ENDBRANCH  25  27
ENDBRANCH  22  23
ENDBRANCH   6  22
TORSDOF 9
ENDMDL
MODEL 5
REMARK VINA RESULT:      -7.5      0.645      1.096
REMARK  Name = 
REMARK  10 active torsions:
REMARK  status: ('A' for Active; 'I' for Inactive)
REMARK    1  A    between atoms: C_1  and  C_2
REMARK    2  A    between atoms: C_2  and  C_3
REMARK    3  A    between atoms: C_6  and  C_7
REMARK    4  A    between atoms: N_15  and  C_16
REMARK    5  A    between atoms: C_16  and  C_17
REMARK    6  A    between atoms: N_19  and  C_20
REMARK    7  A    between atoms: C_20  and  C_21
REMARK    8  A    between atoms: C_20  and  C_25
REMARK    9  A    between atoms: C_21  and  C_22
REMARK   10  A    between atoms: C_22  and  O_24
REMARK                            x       y       z     vdW  Elec       q    Type
REMARK                         _______ _______ _______ _____ _____    ______ ____
ROOT
ATOM      1  C   UNL     1      -2.166  11.075  18.708  0.00  0.00    +0.000 C 
ATOM      2  C   UNL     1      -1.169  11.512  19.785  0.00  0.00    +0.000 C 
ATOM      3  N   UNL     1      -0.100  12.278  19.171  0.00  0.00    +0.000 N 
ATOM      4  C   UNL     1       1.076  11.579  19.084  0.00  0.00    +0.000 C 
ATOM      5  O   UNL     1       2.049  11.962  18.458  0.00  0.00    +0.000 OA
ATOM      6  N   UNL     1       0.947  10.422  19.781  0.00  0.00    +0.000 N 
ATOM      7  C   UNL     1      -0.336  10.281  20.234  0.00  0.00    +0.000 C 
ATOM      8  O   UNL     1      -0.757   9.298  20.832  0.00  0.00    +0.000 OA
ATOM      9  H   UNL     1      -0.222  13.127  18.637  0.00  0.00    +0.000 HD
ENDROOT
BRANCH   2  10
ATOM     10  C   UNL     1      -1.873  12.262  20.912  0.00  0.00    +0.000 A 
ATOM     11  C   UNL     1      -3.208  12.689  20.788  0.00  0.00    +0.000 A 
ATOM     12  C   UNL     1      -3.874  13.316  21.850  0.00  0.00    +0.000 A 
ATOM     13  C   UNL     1      -3.220  13.524  23.066  0.00  0.00    +0.000 A 
ATOM     14  C   UNL     1      -1.896  13.108  23.211  0.00  0.00    +0.000 A 
ATOM     15  C   UNL     1      -1.237  12.475  22.149  0.00  0.00    +0.000 A 
BRANCH  13  16
ATOM     16  C   UNL     1      -3.942  14.184  24.191  0.00  0.00    +0.000 C 
ATOM     17  N   UNL     1      -3.370  14.505  25.309  0.00  0.00    +0.000 NA
ATOM     18  N   UNL     1      -5.270  14.479  24.081  0.00  0.00    +0.000 N 
ATOM     19  H   UNL     1      -2.392  14.207  25.325  0.00  0.00    +0.000 HD
ATOM     20  H   UNL     1      -5.576  14.783  23.163  0.00  0.00    +0.000 HD
ATOM     21  H   UNL     1      -5.555  15.115  24.818  0.00  0.00    +0.000 HD
ENDBRANCH  13  16
ENDBRANCH   2  10
BRANCH   6  22
ATOM     22  C   UNL     1       1.995   9.429  19.904  0.00  0.00    +0.000 C 
BRANCH  22  23
ATOM     23  C   UNL     1       1.969   8.358  18.810  0.00  0.00    +0.000 C 
ATOM     24  O   UNL     1       1.396   8.561  17.740  0.00  0.00    +0.000 OA
ATOM     25  N   UNL     1       2.619   7.180  19.091  0.00  0.00    +0.000 N 
ATOM     26  H   UNL     1       2.861   6.978  20.058  0.00  0.00    +0.000 HD
BRANCH  25  27
ATOM     27  C   UNL     1       2.622   6.046  18.177  0.00  0.00    +0.000 C 
BRANCH  27  28
ATOM     28  C   UNL     1       2.018   4.786  18.783  0.00  0.00    +0.000 A 
ATOM     29  C   UNL     1       1.733   3.689  17.950  0.00  0.00    +0.000 A 
ATOM     30  C   UNL     1       1.140   2.535  18.461  0.00  0.00    +0.000 A 
ATOM     31  C   UNL     1       0.825   2.453  19.815  0.00  0.00    +0.000 A 
ATOM     32  C   UNL     1       1.118   3.520  20.659  0.00  0.00    +0.000 A 
ATOM     33  C   UNL     1       1.716   4.675  20.150  0.00  0.00    +0.000 A 
ENDBRANCH  27  28
BRANCH  27  34
ATOM     34  C   UNL     1       4.013   5.814  17.570  0.00  0.00    +0.000 C 
BRANCH  34  35
ATOM     35  C   UNL     1       4.977   5.134  18.509  0.00  0.00    +0.000 C 
ATOM     36  O   UNL     1       5.323   5.574  19.596  0.00  0.00    +0.000 OA
BRANCH  35  37
ATOM     37  O   UNL     1       5.517   4.009  17.984  0.00  0.00    +0.000 OA
ATOM     38  H   UNL     1       4.869   3.403  17.576  0.00  0.00    +0.000 HD
ENDBRANCH  35  37
ENDBRANCH  34  35
ENDBRANCH  27  34
ENDBRANCH  25  27
ENDBRANCH  22  23
ENDBRANCH   6  22
TORSDOF 9
ENDMDL
MODEL 6
REMARK VINA RESULT:      -7.4      2.512      3.541
REMARK  Name = 
REMARK  10 active torsions:
REMARK  status: ('A' for Active; 'I' for Inactive)
REMARK    1  A    between atoms: C_1  and  C_2
REMARK    2  A    between atoms: C_2  and  C_3
REMARK    3  A    between atoms: C_6  and  C_7
REMARK    4  A    between atoms: N_15  and  C_16
REMARK    5  A    between atoms: C_16  and  C_17
REMARK    6  A    between atoms: N_19  and  C_20
REMARK    7  A    between atoms: C_20  and  C_21
REMARK    8  A    between atoms: C_20  and  C_25
REMARK    9  A    between atoms: C_21  and  C_22
REMARK   10  A    between atoms: C_22  and  O_24
REMARK                            x       y       z     vdW  Elec       q    Type
REMARK                         _______ _______ _______ _____ _____    ______ ____
ROOT
ATOM      1  C   UNL     1       1.132  11.601  20.514  0.00  0.00    +0.000 C 
ATOM      2  C   UNL     1       0.528  10.506  19.631  0.00  0.00    +0.000 C 
ATOM      3  N   UNL     1       0.529   9.248  20.353  0.00  0.00    +0.000 N 
ATOM      4  C   UNL     1       1.487   8.375  19.904  0.00  0.00    +0.000 C 
ATOM      5  O   UNL     1       1.777   7.335  20.470  0.00  0.00    +0.000 OA
ATOM      6  N   UNL     1       2.038   8.879  18.771  0.00  0.00    +0.000 N 
ATOM      7  C   UNL     1       1.547  10.131  18.520  0.00  0.00    +0.000 C 
ATOM      8  O   UNL     1       1.920  10.853  17.602  0.00  0.00    +0.000 OA
ATOM      9  H   UNL     1       0.073   9.082  21.239  0.00  0.00    +0.000 HD
ENDROOT
BRANCH   2  10
ATOM     10  C   UNL     1      -0.856  10.908  19.129  0.00  0.00    +0.000 A 
ATOM     11  C   UNL     1      -1.462  10.254  18.041  0.00  0.00    +0.000 A 
ATOM     12  C   UNL     1      -2.761  10.578  17.627  0.00  0.00    +0.000 A 
ATOM     13  C   UNL     1      -3.488  11.563  18.298  0.00  0.00    +0.000 A 
ATOM     14  C   UNL     1      -2.907  12.225  19.381  0.00  0.00    +0.000 A 
ATOM     15  C   UNL     1      -1.611  11.892  19.795  0.00  0.00    +0.000 A 
BRANCH  13  16
ATOM     16  C   UNL     1      -4.873  11.892  17.854  0.00  0.00    +0.000 C 
ATOM     17  N   UNL     1      -5.613  12.780  18.442  0.00  0.00    +0.000 NA
ATOM     18  N   UNL     1      -5.425  11.251  16.784  0.00  0.00    +0.000 N 
ATOM     19  H   UNL     1      -5.142  13.176  19.258  0.00  0.00    +0.000 HD
ATOM     20  H   UNL     1      -4.790  11.043  16.022  0.00  0.00    +0.000 HD
ATOM     21  H   UNL     1      -6.262  11.734  16.473  0.00  0.00    +0.000 HD
ENDBRANCH  13  16
ENDBRANCH   2  10
BRANCH   6  22
ATOM     22  C   UNL     1       3.090   8.225  18.021  0.00  0.00    +0.000 C 
BRANCH  22  23
ATOM     23  C   UNL     1       2.912   6.710  17.887  0.00  0.00    +0.000 C 
ATOM     24  O   UNL     1       1.870   6.234  17.437  0.00  0.00    +0.000 OA
ATOM     25  N   UNL     1       3.971   5.931  18.289  0.00  0.00    +0.000 N 
ATOM     26  H   UNL     1       4.693   6.354  18.866  0.00  0.00    +0.000 HD
BRANCH  25  27
ATOM     27  C   UNL     1       3.922   4.476  18.285  0.00  0.00    +0.000 C 
BRANCH  27  28
ATOM     28  C   UNL     1       2.949   3.906  19.309  0.00  0.00    +0.000 A 
ATOM     29  C   UNL     1       1.860   3.132  18.868  0.00  0.00    +0.000 A 
ATOM     30  C   UNL     1       0.924   2.629  19.773  0.00  0.00    +0.000 A 
ATOM     31  C   UNL     1       1.061   2.887  21.134  0.00  0.00    +0.000 A 
ATOM     32  C   UNL     1       2.143   3.635  21.591  0.00  0.00    +0.000 A 
ATOM     33  C   UNL     1       3.084   4.135  20.688  0.00  0.00    +0.000 A 
ENDBRANCH  27  28
BRANCH  27  34
ATOM     34  C   UNL     1       5.326   3.863  18.384  0.00  0.00    +0.000 C 
BRANCH  34  35
ATOM     35  C   UNL     1       6.409   4.876  18.659  0.00  0.00    +0.000 C 
ATOM     36  O   UNL     1       6.740   5.262  19.771  0.00  0.00    +0.000 OA
BRANCH  35  37
ATOM     37  O   UNL     1       6.931   5.408  17.529  0.00  0.00    +0.000 OA
ATOM     38  H   UNL     1       6.580   5.023  16.703  0.00  0.00    +0.000 HD
ENDBRANCH  35  37
ENDBRANCH  34  35
ENDBRANCH  27  34
ENDBRANCH  25  27
ENDBRANCH  22  23
ENDBRANCH   6  22
TORSDOF 9
ENDMDL
MODEL 7
REMARK VINA RESULT:      -7.3      2.438      3.317
REMARK  Name = 
REMARK  10 active torsions:
REMARK  status: ('A' for Active; 'I' for Inactive)
REMARK    1  A    between atoms: C_1  and  C_2
REMARK    2  A    between atoms: C_2  and  C_3
REMARK    3  A    between atoms: C_6  and  C_7
REMARK    4  A    between atoms: N_15  and  C_16
REMARK    5  A    between atoms: C_16  and  C_17
REMARK    6  A    between atoms: N_19  and  C_20
REMARK    7  A    between atoms: C_20  and  C_21
REMARK    8  A    between atoms: C_20  and  C_25
REMARK    9  A    between atoms: C_21  and  C_22
REMARK   10  A    between atoms: C_22  and  O_24
REMARK                            x       y       z     vdW  Elec       q    Type
REMARK                         _______ _______ _______ _____ _____    ______ ____
ROOT
ATOM      1  C   UNL     1      -0.192  12.431  20.875  0.00  0.00    +0.000 C 
ATOM      2  C   UNL     1      -0.556  11.218  20.015  0.00  0.00    +0.000 C 
ATOM      3  N   UNL     1      -0.408  10.007  20.800  0.00  0.00    +0.000 N 
ATOM      4  C   UNL     1       0.702   9.280  20.457  0.00  0.00    +0.000 C 
ATOM      5  O   UNL     1       1.111   8.324  21.093  0.00  0.00    +0.000 OA
ATOM      6  N   UNL     1       1.244   9.817  19.335  0.00  0.00    +0.000 N 
ATOM      7  C   UNL     1       0.583  10.964  18.989  0.00  0.00    +0.000 C 
ATOM      8  O   UNL     1       0.901  11.696  18.060  0.00  0.00    +0.000 OA
ATOM      9  H   UNL     1      -0.893   9.808  21.664  0.00  0.00    +0.000 HD
ENDROOT
BRANCH   2  10
ATOM     10  C   UNL     1      -1.948  11.374  19.409  0.00  0.00    +0.000 A 
ATOM     11  C   UNL     1      -2.378  10.567  18.340  0.00  0.00    +0.000 A 
ATOM     12  C   UNL     1      -3.681  10.664  17.832  0.00  0.00    +0.000 A 
ATOM     13  C   UNL     1      -4.587  11.569  18.387  0.00  0.00    +0.000 A 
ATOM     14  C   UNL     1      -4.182  12.379  19.449  0.00  0.00    +0.000 A 
ATOM     15  C   UNL     1      -2.882  12.273  19.958  0.00  0.00    +0.000 A 
BRANCH  13  16
ATOM     16  C   UNL     1      -5.973  11.656  17.844  0.00  0.00    +0.000 C 
ATOM     17  N   UNL     1      -6.924  10.851  18.199  0.00  0.00    +0.000 NA
ATOM     18  N   UNL     1      -6.296  12.614  16.926  0.00  0.00    +0.000 N 
ATOM     19  H   UNL     1      -6.586  10.139  18.850  0.00  0.00    +0.000 HD
ATOM     20  H   UNL     1      -5.851  13.515  17.059  0.00  0.00    +0.000 HD
ATOM     21  H   UNL     1      -7.304  12.687  16.829  0.00  0.00    +0.000 HD
ENDBRANCH  13  16
ENDBRANCH   2  10
BRANCH   6  22
ATOM     22  C   UNL     1       2.435   9.308  18.686  0.00  0.00    +0.000 C 
BRANCH  22  23
ATOM     23  C   UNL     1       2.268   7.911  18.084  0.00  0.00    +0.000 C 
ATOM     24  O   UNL     1       1.258   7.615  17.445  0.00  0.00    +0.000 OA
ATOM     25  N   UNL     1       3.300   7.026  18.293  0.00  0.00    +0.000 N 
ATOM     26  H   UNL     1       3.982   7.239  19.015  0.00  0.00    +0.000 HD
BRANCH  25  27
ATOM     27  C   UNL     1       3.253   5.644  17.840  0.00  0.00    +0.000 C 
BRANCH  27  28
ATOM     28  C   UNL     1       2.522   4.720  18.806  0.00  0.00    +0.000 A 
ATOM     29  C   UNL     1       1.635   3.753  18.298  0.00  0.00    +0.000 A 
ATOM     30  C   UNL     1       0.916   2.919  19.154  0.00  0.00    +0.000 A 
ATOM     31  C   UNL     1       1.072   3.033  20.533  0.00  0.00    +0.000 A 
ATOM     32  C   UNL     1       1.960   3.970  21.054  0.00  0.00    +0.000 A 
ATOM     33  C   UNL     1       2.685   4.803  20.199  0.00  0.00    +0.000 A 
ENDBRANCH  27  28
BRANCH  27  34
ATOM     34  C   UNL     1       4.646   5.128  17.454  0.00  0.00    +0.000 C 
BRANCH  34  35
ATOM     35  C   UNL     1       5.140   5.653  16.129  0.00  0.00    +0.000 C 
ATOM     36  O   UNL     1       5.298   6.835  15.860  0.00  0.00    +0.000 OA
BRANCH  35  37
ATOM     37  O   UNL     1       5.303   4.678  15.204  0.00  0.00    +0.000 OA
ATOM     38  H   UNL     1       4.862   3.834  15.426  0.00  0.00    +0.000 HD
ENDBRANCH  35  37
ENDBRANCH  34  35
ENDBRANCH  27  34
ENDBRANCH  25  27
ENDBRANCH  22  23
ENDBRANCH   6  22
TORSDOF 9
ENDMDL
MODEL 8
REMARK VINA RESULT:      -7.3      3.100      8.927
REMARK  Name = 
REMARK  10 active torsions:
REMARK  status: ('A' for Active; 'I' for Inactive)
REMARK    1  A    between atoms: C_1  and  C_2
REMARK    2  A    between atoms: C_2  and  C_3
REMARK    3  A    between atoms: C_6  and  C_7
REMARK    4  A    between atoms: N_15  and  C_16
REMARK    5  A    between atoms: C_16  and  C_17
REMARK    6  A    between atoms: N_19  and  C_20
REMARK    7  A    between atoms: C_20  and  C_21
REMARK    8  A    between atoms: C_20  and  C_25
REMARK    9  A    between atoms: C_21  and  C_22
REMARK   10  A    between atoms: C_22  and  O_24
REMARK                            x       y       z     vdW  Elec       q    Type
REMARK                         _______ _______ _______ _____ _____    ______ ____
ROOT
ATOM      1  C   UNL     1      -0.497   9.075  21.567  0.00  0.00    +0.000 C 
ATOM      2  C   UNL     1       0.534   9.616  20.573  0.00  0.00    +0.000 C 
ATOM      3  N   UNL     1       1.338  10.637  21.219  0.00  0.00    +0.000 N 
ATOM      4  C   UNL     1       1.023  11.906  20.803  0.00  0.00    +0.000 C 
ATOM      5  O   UNL     1       1.450  12.918  21.330  0.00  0.00    +0.000 OA
ATOM      6  N   UNL     1       0.169  11.820  19.753  0.00  0.00    +0.000 N 
ATOM      7  C   UNL     1      -0.186  10.517  19.534  0.00  0.00    +0.000 C 
ATOM      8  O   UNL     1      -1.000  10.150  18.695  0.00  0.00    +0.000 OA
ATOM      9  H   UNL     1       1.894  10.503  22.051  0.00  0.00    +0.000 HD
ENDROOT
BRANCH   2  10
ATOM     10  C   UNL     1       1.369   8.483  19.979  0.00  0.00    +0.000 A 
ATOM     11  C   UNL     1       1.521   7.255  20.648  0.00  0.00    +0.000 A 
ATOM     12  C   UNL     1       2.230   6.194  20.069  0.00  0.00    +0.000 A 
ATOM     13  C   UNL     1       2.798   6.335  18.801  0.00  0.00    +0.000 A 
ATOM     14  C   UNL     1       2.657   7.544  18.119  0.00  0.00    +0.000 A 
ATOM     15  C   UNL     1       1.942   8.600  18.699  0.00  0.00    +0.000 A 
BRANCH  13  16
ATOM     16  C   UNL     1       3.541   5.195  18.192  0.00  0.00    +0.000 C 
ATOM     17  N   UNL     1       3.603   4.019  18.735  0.00  0.00    +0.000 NA
ATOM     18  N   UNL     1       4.201   5.354  17.009  0.00  0.00    +0.000 N 
ATOM     19  H   UNL     1       3.123   4.001  19.638  0.00  0.00    +0.000 HD
ATOM     20  H   UNL     1       3.746   5.955  16.331  0.00  0.00    +0.000 HD
ATOM     21  H   UNL     1       4.458   4.452  16.621  0.00  0.00    +0.000 HD
ENDBRANCH  13  16
ENDBRANCH   2  10
BRANCH   6  22
ATOM     22  C   UNL     1      -0.380  12.967  19.059  0.00  0.00    +0.000 C 
BRANCH  22  23
ATOM     23  C   UNL     1      -1.692  13.485  19.653  0.00  0.00    +0.000 C 
ATOM     24  O   UNL     1      -1.761  14.610  20.146  0.00  0.00    +0.000 OA
ATOM     25  N   UNL     1      -2.769  12.632  19.597  0.00  0.00    +0.000 N 
ATOM     26  H   UNL     1      -2.599  11.648  19.404  0.00  0.00    +0.000 HD
BRANCH  25  27
ATOM     27  C   UNL     1      -4.062  12.959  20.181  0.00  0.00    +0.000 C 
BRANCH  27  28
ATOM     28  C   UNL     1      -4.103  12.763  21.691  0.00  0.00    +0.000 A 
ATOM     29  C   UNL     1      -5.282  13.074  22.394  0.00  0.00    +0.000 A 
ATOM     30  C   UNL     1      -5.344  12.949  23.782  0.00  0.00    +0.000 A 
ATOM     31  C   UNL     1      -4.231  12.507  24.493  0.00  0.00    +0.000 A 
ATOM     32  C   UNL     1      -3.062  12.175  23.813  0.00  0.00    +0.000 A 
ATOM     33  C   UNL     1      -3.000  12.295  22.423  0.00  0.00    +0.000 A 
ENDBRANCH  27  28
BRANCH  27  34
ATOM     34  C   UNL     1      -5.208  12.246  19.451  0.00  0.00    +0.000 C 
BRANCH  34  35
ATOM     35  C   UNL     1      -4.836  11.754  18.075  0.00  0.00    +0.000 C 
ATOM     36  O   UNL     1      -5.245  12.231  17.026  0.00  0.00    +0.000 OA
BRANCH  35  37
ATOM     37  O   UNL     1      -4.064  10.642  18.105  0.00  0.00    +0.000 OA
ATOM     38  H   UNL     1      -3.706  10.423  18.987  0.00  0.00    +0.000 HD
ENDBRANCH  35  37
ENDBRANCH  34  35
ENDBRANCH  27  34
ENDBRANCH  25  27
ENDBRANCH  22  23
ENDBRANCH   6  22
TORSDOF 9
ENDMDL
MODEL 9
REMARK VINA RESULT:      -7.2      2.913      4.777
REMARK  Name = 
REMARK  10 active torsions:
REMARK  status: ('A' for Active; 'I' for Inactive)
REMARK    1  A    between atoms: C_1  and  C_2
REMARK    2  A    between atoms: C_2  and  C_3
REMARK    3  A    between atoms: C_6  and  C_7
REMARK    4  A    between atoms: N_15  and  C_16
REMARK    5  A    between atoms: C_16  and  C_17
REMARK    6  A    between atoms: N_19  and  C_20
REMARK    7  A    between atoms: C_20  and  C_21
REMARK    8  A    between atoms: C_20  and  C_25
REMARK    9  A    between atoms: C_21  and  C_22
REMARK   10  A    between atoms: C_22  and  O_24
REMARK                            x       y       z     vdW  Elec       q    Type
REMARK                         _______ _______ _______ _____ _____    ______ ____
ROOT
ATOM      1  C   UNL     1       1.236  11.835  19.598  0.00  0.00    +0.000 C 
ATOM      2  C   UNL     1       0.267  10.697  19.929  0.00  0.00    +0.000 C 
ATOM      3  N   UNL     1      -0.094  10.764  21.333  0.00  0.00    +0.000 N 
ATOM      4  C   UNL     1       0.509   9.789  22.087  0.00  0.00    +0.000 C 
ATOM      5  O   UNL     1       0.482   9.759  23.305  0.00  0.00    +0.000 OA
ATOM      6  N   UNL     1       1.129   8.916  21.253  0.00  0.00    +0.000 N 
ATOM      7  C   UNL     1       1.050   9.356  19.960  0.00  0.00    +0.000 C 
ATOM      8  O   UNL     1       1.583   8.804  19.005  0.00  0.00    +0.000 OA
ATOM      9  H   UNL     1      -0.530  11.554  21.787  0.00  0.00    +0.000 HD
ENDROOT
BRANCH   2  10
ATOM     10  C   UNL     1      -0.942  10.718  18.998  0.00  0.00    +0.000 A 
ATOM     11  C   UNL     1      -2.040  11.564  19.239  0.00  0.00    +0.000 A 
ATOM     12  C   UNL     1      -3.117  11.632  18.345  0.00  0.00    +0.000 A 
ATOM     13  C   UNL     1      -3.117  10.858  17.183  0.00  0.00    +0.000 A 
ATOM     14  C   UNL     1      -2.037  10.013  16.922  0.00  0.00    +0.000 A 
ATOM     15  C   UNL     1      -0.960   9.955  17.816  0.00  0.00    +0.000 A 
BRANCH  13  16
ATOM     16  C   UNL     1      -4.265  10.947  16.235  0.00  0.00    +0.000 C 
ATOM     17  N   UNL     1      -5.388  11.520  16.536  0.00  0.00    +0.000 NA
ATOM     18  N   UNL     1      -4.170  10.412  14.983  0.00  0.00    +0.000 N 
ATOM     19  H   UNL     1      -5.391  11.850  17.503  0.00  0.00    +0.000 HD
ATOM     20  H   UNL     1      -3.264  10.499  14.538  0.00  0.00    +0.000 HD
ATOM     21  H   UNL     1      -4.927  10.746  14.396  0.00  0.00    +0.000 HD
ENDBRANCH  13  16
ENDBRANCH   2  10
BRANCH   6  22
ATOM     22  C   UNL     1       1.875   7.759  21.701  0.00  0.00    +0.000 C 
BRANCH  22  23
ATOM     23  C   UNL     1       1.908   6.610  20.690  0.00  0.00    +0.000 C 
ATOM     24  O   UNL     1       0.969   5.821  20.599  0.00  0.00    +0.000 OA
ATOM     25  N   UNL     1       3.031   6.521  19.901  0.00  0.00    +0.000 N 
ATOM     26  H   UNL     1       3.861   7.039  20.178  0.00  0.00    +0.000 HD
BRANCH  25  27
ATOM     27  C   UNL     1       3.235   5.444  18.943  0.00  0.00    +0.000 C 
BRANCH  27  28
ATOM     28  C   UNL     1       4.593   5.502  18.256  0.00  0.00    +0.000 A 
ATOM     29  C   UNL     1       4.668   5.905  16.910  0.00  0.00    +0.000 A 
ATOM     30  C   UNL     1       5.888   5.929  16.235  0.00  0.00    +0.000 A 
ATOM     31  C   UNL     1       7.057   5.556  16.893  0.00  0.00    +0.000 A 
ATOM     32  C   UNL     1       7.006   5.174  18.231  0.00  0.00    +0.000 A 
ATOM     33  C   UNL     1       5.786   5.154  18.910  0.00  0.00    +0.000 A 
ENDBRANCH  27  28
BRANCH  27  34
ATOM     34  C   UNL     1       2.065   5.338  17.955  0.00  0.00    +0.000 C 
BRANCH  34  35
ATOM     35  C   UNL     1       1.607   3.922  17.711  0.00  0.00    +0.000 C 
ATOM     36  O   UNL     1       0.763   3.335  18.373  0.00  0.00    +0.000 OA
BRANCH  35  37
ATOM     37  O   UNL     1       2.303   3.306  16.727  0.00  0.00    +0.000 OA
ATOM     38  H   UNL     1       1.944   3.448  15.829  0.00  0.00    +0.000 HD
ENDBRANCH  35  37
ENDBRANCH  34  35
ENDBRANCH  27  34
ENDBRANCH  25  27
ENDBRANCH  22  23
ENDBRANCH   6  22
TORSDOF 9
ENDMDL
