MODEL 1
REMARK VINA RESULT:      -8.1      0.000      0.000
REMARK  Name = 
REMARK  3 active torsions:
REMARK  status: ('A' for Active; 'I' for Inactive)
REMARK    1  A    between atoms: C_1  and  C_2
REMARK    2  A    between atoms: C_2  and  C_3
REMARK    3  A    between atoms: C_2  and  C_4
REMARK                            x       y       z     vdW  Elec       q    Type
REMARK                         _______ _______ _______ _____ _____    ______ ____
ROOT
ATOM      1  C   UNL     1       2.474   4.114  20.305  0.00  0.00    +0.000 C 
ATOM      2  O   UNL     1       2.573   4.872  21.270  0.00  0.00    +0.000 OA
ATOM      3  N   UNL     1       3.197   4.331  19.141  0.00  0.00    +0.000 N 
ATOM      4  C   UNL     1       4.214   5.393  19.098  0.00  0.00    +0.000 C 
ATOM      5  C   UNL     1       5.559   4.854  18.557  0.00  0.00    +0.000 C 
ATOM      6  N   UNL     1       5.359   4.122  17.291  0.00  0.00    +0.000 N 
ATOM      7  C   UNL     1       6.047   4.412  16.123  0.00  0.00    +0.000 A 
ATOM      8  N   UNL     1       7.041   5.393  16.158  0.00  0.00    +0.000 NA
ATOM      9  N   UNL     1       7.685   5.712  15.127  0.00  0.00    +0.000 NA
ATOM     10  C   UNL     1       7.410   5.093  13.961  0.00  0.00    +0.000 A 
ATOM     11  N   UNL     1       7.888   5.213  12.737  0.00  0.00    +0.000 NA
ATOM     12  N   UNL     1       7.220   4.313  11.930  0.00  0.00    +0.000 NA
ATOM     13  C   UNL     1       6.357   3.671  12.686  0.00  0.00    +0.000 A 
ATOM     14  N   UNL     1       6.442   4.130  13.966  0.00  0.00    +0.000 N 
ATOM     15  N   UNL     1       5.725   3.750  15.038  0.00  0.00    +0.000 NA
ATOM     16  C   UNL     1       4.342   3.064  17.359  0.00  0.00    +0.000 C 
ATOM     17  C   UNL     1       3.014   3.650  17.853  0.00  0.00    +0.000 C 
ENDROOT
BRANCH   1  19
ATOM     18  C   UNL     1       1.413   2.514  21.890  0.00  0.00    +0.000 C 
ATOM     19  C   UNL     1       1.651   2.822  20.411  0.00  0.00    +0.000 C 
ATOM     20  C   UNL     1       0.314   2.930  19.679  0.00  0.00    +0.000 C 
ENDBRANCH   1  19
TORSDOF 1
ENDMDL
MODEL 2
REMARK VINA RESULT:      -7.3      4.390      5.701
REMARK  Name = 
REMARK  3 active torsions:
REMARK  status: ('A' for Active; 'I' for Inactive)
REMARK    1  A    between atoms: C_1  and  C_2
REMARK    2  A    between atoms: C_2  and  C_3
REMARK    3  A    between atoms: C_2  and  C_4
REMARK                            x       y       z     vdW  Elec       q    Type
REMARK                         _______ _______ _______ _____ _____    ______ ____
ROOT
ATOM      1  C   UNL     1       0.003  10.078  19.584  0.00  0.00    +0.000 C 
ATOM      2  O   UNL     1      -0.535  10.126  20.690  0.00  0.00    +0.000 OA
ATOM      3  N   UNL     1       1.145   9.320  19.370  0.00  0.00    +0.000 N 
ATOM      4  C   UNL     1       1.647   8.437  20.434  0.00  0.00    +0.000 C 
ATOM      5  C   UNL     1       1.899   7.008  19.897  0.00  0.00    +0.000 C 
ATOM      6  N   UNL     1       2.720   7.045  18.672  0.00  0.00    +0.000 N 
ATOM      7  C   UNL     1       3.897   6.330  18.517  0.00  0.00    +0.000 A 
ATOM      8  N   UNL     1       4.293   5.465  19.539  0.00  0.00    +0.000 NA
ATOM      9  N   UNL     1       5.360   4.805  19.464  0.00  0.00    +0.000 NA
ATOM     10  C   UNL     1       6.140   4.936  18.372  0.00  0.00    +0.000 A 
ATOM     11  N   UNL     1       7.294   4.406  18.013  0.00  0.00    +0.000 NA
ATOM     12  N   UNL     1       7.629   4.915  16.773  0.00  0.00    +0.000 NA
ATOM     13  C   UNL     1       6.668   5.737  16.413  0.00  0.00    +0.000 A 
ATOM     14  N   UNL     1       5.716   5.781  17.386  0.00  0.00    +0.000 N 
ATOM     15  N   UNL     1       4.585   6.508  17.415  0.00  0.00    +0.000 NA
ATOM     16  C   UNL     1       2.197   7.931  17.622  0.00  0.00    +0.000 C 
ATOM     17  C   UNL     1       2.008   9.346  18.182  0.00  0.00    +0.000 C 
ENDROOT
BRANCH   1  19
ATOM     18  C   UNL     1      -1.991  10.053  18.093  0.00  0.00    +0.000 C 
ATOM     19  C   UNL     1      -0.656  10.746  18.368  0.00  0.00    +0.000 C 
ATOM     20  C   UNL     1      -0.879  12.242  18.584  0.00  0.00    +0.000 C 
ENDBRANCH   1  19
TORSDOF 1
ENDMDL
MODEL 3
REMARK VINA RESULT:      -6.4      2.580      7.291
REMARK  Name = 
REMARK  3 active torsions:
REMARK  status: ('A' for Active; 'I' for Inactive)
REMARK    1  A    between atoms: C_1  and  C_2
REMARK    2  A    between atoms: C_2  and  C_3
REMARK    3  A    between atoms: C_2  and  C_4
REMARK                            x       y       z     vdW  Elec       q    Type
REMARK                         _______ _______ _______ _____ _____    ______ ____
ROOT
ATOM      1  C   UNL     1       6.768   4.636  13.985  0.00  0.00    +0.000 C 
ATOM      2  O   UNL     1       7.455   5.630  13.748  0.00  0.00    +0.000 OA
ATOM      3  N   UNL     1       6.147   4.466  15.215  0.00  0.00    +0.000 N 
ATOM      4  C   UNL     1       6.179   5.552  16.207  0.00  0.00    +0.000 C 
ATOM      5  C   UNL     1       4.759   5.857  16.741  0.00  0.00    +0.000 C 
ATOM      6  N   UNL     1       4.088   4.620  17.183  0.00  0.00    +0.000 N 
ATOM      7  C   UNL     1       3.540   4.455  18.446  0.00  0.00    +0.000 A 
ATOM      8  N   UNL     1       3.550   5.540  19.325  0.00  0.00    +0.000 NA
ATOM      9  N   UNL     1       3.086   5.445  20.490  0.00  0.00    +0.000 NA
ATOM     10  C   UNL     1       2.567   4.270  20.898  0.00  0.00    +0.000 A 
ATOM     11  N   UNL     1       2.032   3.860  22.033  0.00  0.00    +0.000 NA
ATOM     12  N   UNL     1       1.673   2.535  21.881  0.00  0.00    +0.000 NA
ATOM     13  C   UNL     1       1.997   2.178  20.657  0.00  0.00    +0.000 A 
ATOM     14  N   UNL     1       2.562   3.234  20.008  0.00  0.00    +0.000 N 
ATOM     15  N   UNL     1       3.044   3.281  18.754  0.00  0.00    +0.000 NA
ATOM     16  C   UNL     1       4.066   3.552  16.174  0.00  0.00    +0.000 C 
ATOM     17  C   UNL     1       5.494   3.246  15.708  0.00  0.00    +0.000 C 
ENDROOT
BRANCH   1  19
ATOM     18  C   UNL     1       4.983   3.736  12.502  0.00  0.00    +0.000 C 
ATOM     19  C   UNL     1       6.461   3.620  12.877  0.00  0.00    +0.000 C 
ATOM     20  C   UNL     1       7.332   3.837  11.640  0.00  0.00    +0.000 C 
ENDBRANCH   1  19
TORSDOF 1
ENDMDL
MODEL 4
REMARK VINA RESULT:      -6.3      5.007      8.470
REMARK  Name = 
REMARK  3 active torsions:
REMARK  status: ('A' for Active; 'I' for Inactive)
REMARK    1  A    between atoms: C_1  and  C_2
REMARK    2  A    between atoms: C_2  and  C_3
REMARK    3  A    between atoms: C_2  and  C_4
REMARK                            x       y       z     vdW  Elec       q    Type
REMARK                         _______ _______ _______ _____ _____    ______ ____
ROOT
ATOM      1  C   UNL     1       4.841   5.870  16.759  0.00  0.00    +0.000 C 
ATOM      2  O   UNL     1       5.276   6.323  15.700  0.00  0.00    +0.000 OA
ATOM      3  N   UNL     1       4.177   6.679  17.670  0.00  0.00    +0.000 N 
ATOM      4  C   UNL     1       3.850   8.068  17.313  0.00  0.00    +0.000 C 
ATOM      5  C   UNL     1       2.358   8.374  17.585  0.00  0.00    +0.000 C 
ATOM      6  N   UNL     1       1.980   7.971  18.952  0.00  0.00    +0.000 N 
ATOM      7  C   UNL     1       1.382   8.825  19.865  0.00  0.00    +0.000 A 
ATOM      8  N   UNL     1       1.044  10.116  19.451  0.00  0.00    +0.000 NA
ATOM      9  N   UNL     1       0.518  10.942  20.239  0.00  0.00    +0.000 NA
ATOM     10  C   UNL     1       0.274  10.573  21.513  0.00  0.00    +0.000 A 
ATOM     11  N   UNL     1      -0.239  11.199  22.555  0.00  0.00    +0.000 NA
ATOM     12  N   UNL     1      -0.242  10.320  23.620  0.00  0.00    +0.000 NA
ATOM     13  C   UNL     1       0.268   9.184  23.195  0.00  0.00    +0.000 A 
ATOM     14  N   UNL     1       0.606   9.300  21.880  0.00  0.00    +0.000 N 
ATOM     15  N   UNL     1       1.169   8.379  21.079  0.00  0.00    +0.000 NA
ATOM     16  C   UNL     1       2.313   6.578  19.284  0.00  0.00    +0.000 C 
ATOM     17  C   UNL     1       3.807   6.330  19.048  0.00  0.00    +0.000 C 
ENDROOT
BRANCH   1  19
ATOM     18  C   UNL     1       3.477   3.796  16.953  0.00  0.00    +0.000 C 
ATOM     19  C   UNL     1       4.895   4.362  17.041  0.00  0.00    +0.000 C 
ATOM     20  C   UNL     1       5.811   3.626  16.063  0.00  0.00    +0.000 C 
ENDBRANCH   1  19
TORSDOF 1
ENDMDL
MODEL 5
REMARK VINA RESULT:      -6.2      4.897      7.367
REMARK  Name = 
REMARK  3 active torsions:
REMARK  status: ('A' for Active; 'I' for Inactive)
REMARK    1  A    between atoms: C_1  and  C_2
REMARK    2  A    between atoms: C_2  and  C_3
REMARK    3  A    between atoms: C_2  and  C_4
REMARK                            x       y       z     vdW  Elec       q    Type
REMARK                         _______ _______ _______ _____ _____    ______ ____
ROOT
ATOM      1  C   UNL     1       0.927  11.444  19.403  0.00  0.00    +0.000 C 
ATOM      2  O   UNL     1       1.067  12.196  18.438  0.00  0.00    +0.000 OA
ATOM      3  N   UNL     1       1.022  10.067  19.264  0.00  0.00    +0.000 N 
ATOM      4  C   UNL     1       1.442   9.489  17.978  0.00  0.00    +0.000 C 
ATOM      5  C   UNL     1       2.588   8.468  18.176  0.00  0.00    +0.000 C 
ATOM      6  N   UNL     1       2.242   7.489  19.223  0.00  0.00    +0.000 N 
ATOM      7  C   UNL     1       2.277   6.116  19.030  0.00  0.00    +0.000 A 
ATOM      8  N   UNL     1       2.738   5.626  17.806  0.00  0.00    +0.000 NA
ATOM      9  N   UNL     1       2.774   4.392  17.565  0.00  0.00    +0.000 NA
ATOM     10  C   UNL     1       2.359   3.525  18.510  0.00  0.00    +0.000 A 
ATOM     11  N   UNL     1       2.262   2.209  18.552  0.00  0.00    +0.000 NA
ATOM     12  N   UNL     1       1.758   1.859  19.789  0.00  0.00    +0.000 NA
ATOM     13  C   UNL     1       1.564   2.972  20.464  0.00  0.00    +0.000 A 
ATOM     14  N   UNL     1       1.926   4.038  19.698  0.00  0.00    +0.000 N 
ATOM     15  N   UNL     1       1.867   5.346  20.008  0.00  0.00    +0.000 NA
ATOM     16  C   UNL     1       1.829   8.090  20.499  0.00  0.00    +0.000 C 
ATOM     17  C   UNL     1       0.662   9.055  20.266  0.00  0.00    +0.000 C 
ENDROOT
BRANCH   1  19
ATOM     18  C   UNL     1       1.559  13.332  20.899  0.00  0.00    +0.000 C 
ATOM     19  C   UNL     1       0.784  12.016  20.821  0.00  0.00    +0.000 C 
ATOM     20  C   UNL     1      -0.678  12.248  21.202  0.00  0.00    +0.000 C 
ENDBRANCH   1  19
TORSDOF 1
ENDMDL
MODEL 6
REMARK VINA RESULT:      -6.2      5.480      7.852
REMARK  Name = 
REMARK  3 active torsions:
REMARK  status: ('A' for Active; 'I' for Inactive)
REMARK    1  A    between atoms: C_1  and  C_2
REMARK    2  A    between atoms: C_2  and  C_3
REMARK    3  A    between atoms: C_2  and  C_4
REMARK                            x       y       z     vdW  Elec       q    Type
REMARK                         _______ _______ _______ _____ _____    ______ ____
ROOT
ATOM      1  C   UNL     1      -0.483  11.619  20.434  0.00  0.00    +0.000 C 
ATOM      2  O   UNL     1      -0.619  12.382  19.478  0.00  0.00    +0.000 OA
ATOM      3  N   UNL     1      -0.084  10.302  20.254  0.00  0.00    +0.000 N 
ATOM      4  C   UNL     1       0.332   9.839  18.921  0.00  0.00    +0.000 C 
ATOM      5  C   UNL     1       1.698   9.116  18.985  0.00  0.00    +0.000 C 
ATOM      6  N   UNL     1       1.696   8.082  20.038  0.00  0.00    +0.000 N 
ATOM      7  C   UNL     1       2.031   6.757  19.810  0.00  0.00    +0.000 A 
ATOM      8  N   UNL     1       2.472   6.388  18.537  0.00  0.00    +0.000 NA
ATOM      9  N   UNL     1       2.771   5.198  18.265  0.00  0.00    +0.000 NA
ATOM     10  C   UNL     1       2.665   4.257  19.225  0.00  0.00    +0.000 A 
ATOM     11  N   UNL     1       2.883   2.955  19.246  0.00  0.00    +0.000 NA
ATOM     12  N   UNL     1       2.599   2.497  20.518  0.00  0.00    +0.000 NA
ATOM     13  C   UNL     1       2.218   3.533  21.233  0.00  0.00    +0.000 A 
ATOM     14  N   UNL     1       2.243   4.654  20.461  0.00  0.00    +0.000 N 
ATOM     15  N   UNL     1       1.912   5.911  20.805  0.00  0.00    +0.000 NA
ATOM     16  C   UNL     1       1.282   8.570  21.361  0.00  0.00    +0.000 C 
ATOM     17  C   UNL     1      -0.097   9.234  21.263  0.00  0.00    +0.000 C 
ENDROOT
BRANCH   1  19
ATOM     18  C   UNL     1      -0.043  13.557  21.933  0.00  0.00    +0.000 C 
ATOM     19  C   UNL     1      -0.615  12.141  21.872  0.00  0.00    +0.000 C 
ATOM     20  C   UNL     1      -2.067  12.144  22.351  0.00  0.00    +0.000 C 
ENDBRANCH   1  19
TORSDOF 1
ENDMDL
MODEL 7
REMARK VINA RESULT:      -6.2      4.700      8.023
REMARK  Name = 
REMARK  3 active torsions:
REMARK  status: ('A' for Active; 'I' for Inactive)
REMARK    1  A    between atoms: C_1  and  C_2
REMARK    2  A    between atoms: C_2  and  C_3
REMARK    3  A    between atoms: C_2  and  C_4
REMARK                            x       y       z     vdW  Elec       q    Type
REMARK                         _______ _______ _______ _____ _____    ______ ____
ROOT
ATOM      1  C   UNL     1       3.985   3.633  18.718  0.00  0.00    +0.000 C 
ATOM      2  O   UNL     1       4.765   3.673  17.766  0.00  0.00    +0.000 OA
ATOM      3  N   UNL     1       3.489   4.794  19.293  0.00  0.00    +0.000 N 
ATOM      4  C   UNL     1       3.772   6.097  18.672  0.00  0.00    +0.000 C 
ATOM      5  C   UNL     1       2.474   6.916  18.482  0.00  0.00    +0.000 C 
ATOM      6  N   UNL     1       1.701   6.972  19.737  0.00  0.00    +0.000 N 
ATOM      7  C   UNL     1       1.281   8.155  20.325  0.00  0.00    +0.000 A 
ATOM      8  N   UNL     1       1.531   9.357  19.660  0.00  0.00    +0.000 NA
ATOM      9  N   UNL     1       1.191  10.463  20.153  0.00  0.00    +0.000 NA
ATOM     10  C   UNL     1       0.572  10.487  21.351  0.00  0.00    +0.000 A 
ATOM     11  N   UNL     1       0.119  11.462  22.117  0.00  0.00    +0.000 NA
ATOM     12  N   UNL     1      -0.424  10.893  23.252  0.00  0.00    +0.000 NA
ATOM     13  C   UNL     1      -0.288   9.589  23.142  0.00  0.00    +0.000 A 
ATOM     14  N   UNL     1       0.333   9.293  21.967  0.00  0.00    +0.000 N 
ATOM     15  N   UNL     1       0.673   8.085  21.485  0.00  0.00    +0.000 NA
ATOM     16  C   UNL     1       1.426   5.659  20.336  0.00  0.00    +0.000 C 
ATOM     17  C   UNL     1       2.742   4.901  20.553  0.00  0.00    +0.000 C 
ENDROOT
BRANCH   1  19
ATOM     18  C   UNL     1       1.997   2.134  18.688  0.00  0.00    +0.000 C 
ATOM     19  C   UNL     1       3.426   2.290  19.210  0.00  0.00    +0.000 C 
ATOM     20  C   UNL     1       4.280   1.109  18.752  0.00  0.00    +0.000 C 
ENDBRANCH   1  19
TORSDOF 1
ENDMDL
MODEL 8
REMARK VINA RESULT:      -6.1      4.790      8.061
REMARK  Name = 
REMARK  3 active torsions:
REMARK  status: ('A' for Active; 'I' for Inactive)
REMARK    1  A    between atoms: C_1  and  C_2
REMARK    2  A    between atoms: C_2  and  C_3
REMARK    3  A    between atoms: C_2  and  C_4
REMARK                            x       y       z     vdW  Elec       q    Type
REMARK                         _______ _______ _______ _____ _____    ______ ____
ROOT
ATOM      1  C   UNL     1       4.493   4.578  17.625  0.00  0.00    +0.000 C 
ATOM      2  O   UNL     1       5.123   4.813  16.594  0.00  0.00    +0.000 OA
ATOM      3  N   UNL     1       3.910   5.599  18.362  0.00  0.00    +0.000 N 
ATOM      4  C   UNL     1       3.910   6.973  17.837  0.00  0.00    +0.000 C 
ATOM      5  C   UNL     1       2.490   7.585  17.883  0.00  0.00    +0.000 C 
ATOM      6  N   UNL     1       1.892   7.423  19.222  0.00  0.00    +0.000 N 
ATOM      7  C   UNL     1       1.383   8.477  19.965  0.00  0.00    +0.000 A 
ATOM      8  N   UNL     1       1.359   9.750  19.392  0.00  0.00    +0.000 NA
ATOM      9  N   UNL     1       0.927  10.747  20.024  0.00  0.00    +0.000 NA
ATOM     10  C   UNL     1       0.477  10.583  21.284  0.00  0.00    +0.000 A 
ATOM     11  N   UNL     1      -0.009  11.413  22.188  0.00  0.00    +0.000 NA
ATOM     12  N   UNL     1      -0.305  10.681  23.321  0.00  0.00    +0.000 NA
ATOM     13  C   UNL     1       0.009   9.428  23.074  0.00  0.00    +0.000 A 
ATOM     14  N   UNL     1       0.504   9.323  21.810  0.00  0.00    +0.000 N 
ATOM     15  N   UNL     1       0.953   8.224  21.178  0.00  0.00    +0.000 NA
ATOM     16  C   UNL     1       1.900   6.042  19.724  0.00  0.00    +0.000 C 
ATOM     17  C   UNL     1       3.331   5.491  19.708  0.00  0.00    +0.000 C 
ENDROOT
BRANCH   1  19
ATOM     18  C   UNL     1       4.540   2.986  19.538  0.00  0.00    +0.000 C 
ATOM     19  C   UNL     1       4.211   3.130  18.052  0.00  0.00    +0.000 C 
ATOM     20  C   UNL     1       2.759   2.728  17.797  0.00  0.00    +0.000 C 
ENDBRANCH   1  19
TORSDOF 1
ENDMDL
MODEL 9
REMARK VINA RESULT:      -5.9      5.969      7.841
REMARK  Name = 
REMARK  3 active torsions:
REMARK  status: ('A' for Active; 'I' for Inactive)
REMARK    1  A    between atoms: C_1  and  C_2
REMARK    2  A    between atoms: C_2  and  C_3
REMARK    3  A    between atoms: C_2  and  C_4
REMARK                            x       y       z     vdW  Elec       q    Type
REMARK                         _______ _______ _______ _____ _____    ______ ____
ROOT
ATOM      1  C   UNL     1      -1.312  11.930  20.380  0.00  0.00    +0.000 C 
ATOM      2  O   UNL     1      -1.531  12.782  19.519  0.00  0.00    +0.000 OA
ATOM      3  N   UNL     1      -0.668  10.741  20.071  0.00  0.00    +0.000 N 
ATOM      4  C   UNL     1      -0.098  10.545  18.729  0.00  0.00    +0.000 C 
ATOM      5  C   UNL     1       1.371  10.070  18.813  0.00  0.00    +0.000 C 
ATOM      6  N   UNL     1       1.500   8.918  19.724  0.00  0.00    +0.000 N 
ATOM      7  C   UNL     1       2.086   7.715  19.361  0.00  0.00    +0.000 A 
ATOM      8  N   UNL     1       2.659   7.608  18.092  0.00  0.00    +0.000 NA
ATOM      9  N   UNL     1       3.187   6.537  17.699  0.00  0.00    +0.000 NA
ATOM     10  C   UNL     1       3.201   5.469  18.522  0.00  0.00    +0.000 A 
ATOM     11  N   UNL     1       3.654   4.235  18.398  0.00  0.00    +0.000 NA
ATOM     12  N   UNL     1       3.386   3.564  19.575  0.00  0.00    +0.000 NA
ATOM     13  C   UNL     1       2.781   4.409  20.381  0.00  0.00    +0.000 A 
ATOM     14  N   UNL     1       2.643   5.613  19.760  0.00  0.00    +0.000 N 
ATOM     15  N   UNL     1       2.067   6.733  20.230  0.00  0.00    +0.000 NA
ATOM     16  C   UNL     1       0.928   9.139  21.060  0.00  0.00    +0.000 C 
ATOM     17  C   UNL     1      -0.542   9.559  20.934  0.00  0.00    +0.000 C 
ENDROOT
BRANCH   1  19
ATOM     18  C   UNL     1      -0.668  13.307  22.352  0.00  0.00    +0.000 C 
ATOM     19  C   UNL     1      -1.621  12.219  21.857  0.00  0.00    +0.000 C 
ATOM     20  C   UNL     1      -3.069  12.658  22.066  0.00  0.00    +0.000 C 
ENDBRANCH   1  19
TORSDOF 1
ENDMDL
