MODEL 1
REMARK VINA RESULT:      -6.9      0.000      0.000
REMARK  Name = 
REMARK  3 active torsions:
REMARK  status: ('A' for Active; 'I' for Inactive)
REMARK    1  A    between atoms: N_4  and  C_5
REMARK    2  A    between atoms: N_12  and  C_13
REMARK    3  A    between atoms: C_13  and  C_14
REMARK                            x       y       z     vdW  Elec       q    Type
REMARK                         _______ _______ _______ _____ _____    ______ ____
ROOT
ATOM      1  O   UNL     1       7.800   4.472  18.656  0.00  0.00    +0.000 OA
ATOM      2  C   UNL     1       7.152   4.758  17.656  0.00  0.00    +0.000 C 
ATOM      3  C   UNL     1       7.518   4.352  16.243  0.00  0.00    +0.000 C 
ATOM      4  N   UNL     1       6.400   4.893  15.501  0.00  0.00    +0.000 N 
ATOM      5  C   UNL     1       5.577   5.649  16.325  0.00  0.00    +0.000 C 
ATOM      6  O   UNL     1       4.635   6.338  15.961  0.00  0.00    +0.000 OA
ATOM      7  N   UNL     1       5.996   5.482  17.613  0.00  0.00    +0.000 N 
ENDROOT
BRANCH   4   8
ATOM      8  C   UNL     1       6.317   4.899  14.048  0.00  0.00    +0.000 C 
ATOM      9  C   UNL     1       7.655   5.078  13.328  0.00  0.00    +0.000 C 
ATOM     10  C   UNL     1       7.383   4.606  11.908  0.00  0.00    +0.000 C 
ATOM     11  C   UNL     1       6.297   3.539  12.027  0.00  0.00    +0.000 C 
ATOM     12  C   UNL     1       5.818   3.569  13.475  0.00  0.00    +0.000 C 
ENDBRANCH   4   8
BRANCH   7  13
ATOM     13  C   UNL     1       5.381   6.107  18.766  0.00  0.00    +0.000 C 
BRANCH  13  14
ATOM     14  C   UNL     1       4.242   5.300  19.361  0.00  0.00    +0.000 A 
ATOM     15  N   UNL     1       4.501   4.001  19.704  0.00  0.00    +0.000 NA
ATOM     16  C   UNL     1       3.465   3.252  20.154  0.00  0.00    +0.000 A 
ATOM     17  C   UNL     1       2.176   3.733  20.299  0.00  0.00    +0.000 A 
ATOM     18 CL   UNL     1       0.911   2.707  20.838  0.00  0.00    +0.000 Cl
ATOM     19  C   UNL     1       1.923   5.061  19.982  0.00  0.00    +0.000 A 
ATOM     20  C   UNL     1       2.966   5.856  19.503  0.00  0.00    +0.000 A 
ATOM     21 CL   UNL     1       2.615   7.491  19.078  0.00  0.00    +0.000 Cl
ENDBRANCH  13  14
ENDBRANCH   7  13
TORSDOF 3
ENDMDL
MODEL 2
REMARK VINA RESULT:      -6.7      1.359      2.273
REMARK  Name = 
REMARK  3 active torsions:
REMARK  status: ('A' for Active; 'I' for Inactive)
REMARK    1  A    between atoms: N_4  and  C_5
REMARK    2  A    between atoms: N_12  and  C_13
REMARK    3  A    between atoms: C_13  and  C_14
REMARK                            x       y       z     vdW  Elec       q    Type
REMARK                         _______ _______ _______ _____ _____    ______ ____
ROOT
ATOM      1  O   UNL     1       7.328   5.044  19.226  0.00  0.00    +0.000 OA
ATOM      2  C   UNL     1       6.761   4.795  18.169  0.00  0.00    +0.000 C 
ATOM      3  C   UNL     1       7.292   5.156  16.796  0.00  0.00    +0.000 C 
ATOM      4  N   UNL     1       6.274   4.581  15.944  0.00  0.00    +0.000 N 
ATOM      5  C   UNL     1       5.213   4.095  16.698  0.00  0.00    +0.000 C 
ATOM      6  O   UNL     1       4.152   3.678  16.257  0.00  0.00    +0.000 OA
ATOM      7  N   UNL     1       5.565   4.155  18.016  0.00  0.00    +0.000 N 
ENDROOT
BRANCH   4   8
ATOM      8  C   UNL     1       6.226   4.761  14.501  0.00  0.00    +0.000 C 
ATOM      9  C   UNL     1       7.542   5.215  13.866  0.00  0.00    +0.000 C 
ATOM     10  C   UNL     1       7.375   4.896  12.389  0.00  0.00    +0.000 C 
ATOM     11  C   UNL     1       6.451   3.682  12.330  0.00  0.00    +0.000 C 
ATOM     12  C   UNL     1       5.938   3.459  13.749  0.00  0.00    +0.000 C 
ENDBRANCH   4   8
BRANCH   7  13
ATOM     13  C   UNL     1       4.721   3.728  19.112  0.00  0.00    +0.000 C 
BRANCH  13  14
ATOM     14  C   UNL     1       3.677   4.753  19.513  0.00  0.00    +0.000 A 
ATOM     15  N   UNL     1       3.781   6.005  18.973  0.00  0.00    +0.000 NA
ATOM     16  C   UNL     1       2.904   6.947  19.396  0.00  0.00    +0.000 A 
ATOM     17  C   UNL     1       1.906   6.705  20.323  0.00  0.00    +0.000 A 
ATOM     18 CL   UNL     1       0.859   7.964  20.836  0.00  0.00    +0.000 Cl
ATOM     19  C   UNL     1       1.781   5.424  20.846  0.00  0.00    +0.000 A 
ATOM     20  C   UNL     1       2.679   4.435  20.441  0.00  0.00    +0.000 A 
ATOM     21 CL   UNL     1       2.525   2.862  21.136  0.00  0.00    +0.000 Cl
ENDBRANCH  13  14
ENDBRANCH   7  13
TORSDOF 3
ENDMDL
MODEL 3
REMARK VINA RESULT:      -6.5      3.203      6.912
REMARK  Name = 
REMARK  3 active torsions:
REMARK  status: ('A' for Active; 'I' for Inactive)
REMARK    1  A    between atoms: N_4  and  C_5
REMARK    2  A    between atoms: N_12  and  C_13
REMARK    3  A    between atoms: C_13  and  C_14
REMARK                            x       y       z     vdW  Elec       q    Type
REMARK                         _______ _______ _______ _____ _____    ______ ____
ROOT
ATOM      1  O   UNL     1       2.131   3.155  16.975  0.00  0.00    +0.000 OA
ATOM      2  C   UNL     1       2.557   4.069  17.670  0.00  0.00    +0.000 C 
ATOM      3  C   UNL     1       1.707   5.176  18.260  0.00  0.00    +0.000 C 
ATOM      4  N   UNL     1       2.696   5.913  19.016  0.00  0.00    +0.000 N 
ATOM      5  C   UNL     1       3.972   5.416  18.781  0.00  0.00    +0.000 C 
ATOM      6  O   UNL     1       5.018   5.914  19.169  0.00  0.00    +0.000 OA
ATOM      7  N   UNL     1       3.854   4.270  18.048  0.00  0.00    +0.000 N 
ENDROOT
BRANCH   4   8
ATOM      8  C   UNL     1       2.430   7.178  19.684  0.00  0.00    +0.000 C 
ATOM      9  C   UNL     1       1.803   8.254  18.796  0.00  0.00    +0.000 C 
ATOM     10  C   UNL     1       1.224   9.260  19.779  0.00  0.00    +0.000 C 
ATOM     11  C   UNL     1       0.843   8.455  21.019  0.00  0.00    +0.000 C 
ATOM     12  C   UNL     1       1.402   7.051  20.812  0.00  0.00    +0.000 C 
ENDBRANCH   4   8
BRANCH   7  13
ATOM     13  C   UNL     1       4.967   3.455  17.611  0.00  0.00    +0.000 C 
BRANCH  13  14
ATOM     14  C   UNL     1       5.670   3.994  16.379  0.00  0.00    +0.000 A 
ATOM     15  N   UNL     1       5.013   3.897  15.184  0.00  0.00    +0.000 NA
ATOM     16  C   UNL     1       5.672   4.296  14.070  0.00  0.00    +0.000 A 
ATOM     17  C   UNL     1       6.957   4.810  14.081  0.00  0.00    +0.000 A 
ATOM     18 CL   UNL     1       7.737   5.256  12.619  0.00  0.00    +0.000 Cl
ATOM     19  C   UNL     1       7.611   4.939  15.299  0.00  0.00    +0.000 A 
ATOM     20  C   UNL     1       6.963   4.523  16.464  0.00  0.00    +0.000 A 
ATOM     21 CL   UNL     1       7.813   4.658  17.961  0.00  0.00    +0.000 Cl
ENDBRANCH  13  14
ENDBRANCH   7  13
TORSDOF 3
ENDMDL
MODEL 4
REMARK VINA RESULT:      -6.5      5.374      7.135
REMARK  Name = 
REMARK  3 active torsions:
REMARK  status: ('A' for Active; 'I' for Inactive)
REMARK    1  A    between atoms: N_4  and  C_5
REMARK    2  A    between atoms: N_12  and  C_13
REMARK    3  A    between atoms: C_13  and  C_14
REMARK                            x       y       z     vdW  Elec       q    Type
REMARK                         _______ _______ _______ _____ _____    ______ ____
ROOT
ATOM      1  O   UNL     1       0.945   8.707  21.546  0.00  0.00    +0.000 OA
ATOM      2  C   UNL     1       1.408   8.329  20.476  0.00  0.00    +0.000 C 
ATOM      3  C   UNL     1       1.999   6.956  20.226  0.00  0.00    +0.000 C 
ATOM      4  N   UNL     1       2.320   7.045  18.818  0.00  0.00    +0.000 N 
ATOM      5  C   UNL     1       2.105   8.331  18.340  0.00  0.00    +0.000 C 
ATOM      6  O   UNL     1       2.412   8.745  17.232  0.00  0.00    +0.000 OA
ATOM      7  N   UNL     1       1.483   9.051  19.320  0.00  0.00    +0.000 N 
ENDROOT
BRANCH   4   8
ATOM      8  C   UNL     1       3.048   6.020  18.086  0.00  0.00    +0.000 C 
ATOM      9  C   UNL     1       4.278   5.466  18.807  0.00  0.00    +0.000 C 
ATOM     10  C   UNL     1       4.577   4.159  18.089  0.00  0.00    +0.000 C 
ATOM     11  C   UNL     1       3.228   3.642  17.592  0.00  0.00    +0.000 C 
ATOM     12  C   UNL     1       2.218   4.757  17.846  0.00  0.00    +0.000 C 
ENDBRANCH   4   8
BRANCH   7  13
ATOM     13  C   UNL     1       1.086  10.438  19.195  0.00  0.00    +0.000 C 
BRANCH  13  14
ATOM     14  C   UNL     1      -0.356  10.622  18.764  0.00  0.00    +0.000 A 
ATOM     15  N   UNL     1      -0.764   9.976  17.630  0.00  0.00    +0.000 NA
ATOM     16  C   UNL     1      -2.026  10.208  17.193  0.00  0.00    +0.000 A 
ATOM     17  C   UNL     1      -2.920  11.043  17.839  0.00  0.00    +0.000 A 
ATOM     18 CL   UNL     1      -4.488  11.315  17.198  0.00  0.00    +0.000 Cl
ATOM     19  C   UNL     1      -2.515  11.672  19.009  0.00  0.00    +0.000 A 
ATOM     20  C   UNL     1      -1.217  11.464  19.478  0.00  0.00    +0.000 A 
ATOM     21 CL   UNL     1      -0.727  12.290  20.913  0.00  0.00    +0.000 Cl
ENDBRANCH  13  14
ENDBRANCH   7  13
TORSDOF 3
ENDMDL
MODEL 5
REMARK VINA RESULT:      -6.5      0.795      1.179
REMARK  Name = 
REMARK  3 active torsions:
REMARK  status: ('A' for Active; 'I' for Inactive)
REMARK    1  A    between atoms: N_4  and  C_5
REMARK    2  A    between atoms: N_12  and  C_13
REMARK    3  A    between atoms: C_13  and  C_14
REMARK                            x       y       z     vdW  Elec       q    Type
REMARK                         _______ _______ _______ _____ _____    ______ ____
ROOT
ATOM      1  O   UNL     1       6.972   5.184  19.430  0.00  0.00    +0.000 OA
ATOM      2  C   UNL     1       6.676   5.080  18.246  0.00  0.00    +0.000 C 
ATOM      3  C   UNL     1       7.572   4.480  17.180  0.00  0.00    +0.000 C 
ATOM      4  N   UNL     1       6.712   4.559  16.019  0.00  0.00    +0.000 N 
ATOM      5  C   UNL     1       5.544   5.250  16.312  0.00  0.00    +0.000 C 
ATOM      6  O   UNL     1       4.691   5.593  15.506  0.00  0.00    +0.000 OA
ATOM      7  N   UNL     1       5.508   5.473  17.659  0.00  0.00    +0.000 N 
ENDROOT
BRANCH   4   8
ATOM      8  C   UNL     1       7.141   4.230  14.668  0.00  0.00    +0.000 C 
ATOM      9  C   UNL     1       6.034   3.707  13.751  0.00  0.00    +0.000 C 
ATOM     10  C   UNL     1       6.600   3.871  12.349  0.00  0.00    +0.000 C 
ATOM     11  C   UNL     1       7.535   5.077  12.419  0.00  0.00    +0.000 C 
ATOM     12  C   UNL     1       7.653   5.448  13.894  0.00  0.00    +0.000 C 
ENDBRANCH   4   8
BRANCH   7  13
ATOM     13  C   UNL     1       4.438   6.162  18.350  0.00  0.00    +0.000 C 
BRANCH  13  14
ATOM     14  C   UNL     1       3.645   5.271  19.287  0.00  0.00    +0.000 A 
ATOM     15  N   UNL     1       3.978   3.945  19.330  0.00  0.00    +0.000 NA
ATOM     16  C   UNL     1       3.216   3.130  20.099  0.00  0.00    +0.000 A 
ATOM     17  C   UNL     1       2.140   3.569  20.851  0.00  0.00    +0.000 A 
ATOM     18 CL   UNL     1       1.200   2.465  21.768  0.00  0.00    +0.000 Cl
ATOM     19  C   UNL     1       1.824   4.922  20.832  0.00  0.00    +0.000 A 
ATOM     20  C   UNL     1       2.582   5.785  20.038  0.00  0.00    +0.000 A 
ATOM     21 CL   UNL     1       2.143   7.454  20.002  0.00  0.00    +0.000 Cl
ENDBRANCH  13  14
ENDBRANCH   7  13
TORSDOF 3
ENDMDL
MODEL 6
REMARK VINA RESULT:      -6.4      0.855      1.964
REMARK  Name = 
REMARK  3 active torsions:
REMARK  status: ('A' for Active; 'I' for Inactive)
REMARK    1  A    between atoms: N_4  and  C_5
REMARK    2  A    between atoms: N_12  and  C_13
REMARK    3  A    between atoms: C_13  and  C_14
REMARK                            x       y       z     vdW  Elec       q    Type
REMARK                         _______ _______ _______ _____ _____    ______ ____
ROOT
ATOM      1  O   UNL     1       4.047   7.399  16.908  0.00  0.00    +0.000 OA
ATOM      2  C   UNL     1       4.853   6.547  16.553  0.00  0.00    +0.000 C 
ATOM      3  C   UNL     1       5.107   6.141  15.115  0.00  0.00    +0.000 C 
ATOM      4  N   UNL     1       6.169   5.173  15.284  0.00  0.00    +0.000 N 
ATOM      5  C   UNL     1       6.402   4.920  16.629  0.00  0.00    +0.000 C 
ATOM      6  O   UNL     1       7.139   4.056  17.080  0.00  0.00    +0.000 OA
ATOM      7  N   UNL     1       5.669   5.810  17.362  0.00  0.00    +0.000 N 
ENDROOT
BRANCH   4   8
ATOM      8  C   UNL     1       6.704   4.360  14.203  0.00  0.00    +0.000 C 
ATOM      9  C   UNL     1       5.651   3.674  13.331  0.00  0.00    +0.000 C 
ATOM     10  C   UNL     1       6.402   3.290  12.066  0.00  0.00    +0.000 C 
ATOM     11  C   UNL     1       7.497   4.342  11.899  0.00  0.00    +0.000 C 
ATOM     12  C   UNL     1       7.489   5.180  13.174  0.00  0.00    +0.000 C 
ENDBRANCH   4   8
BRANCH   7  13
ATOM     13  C   UNL     1       5.654   5.867  18.809  0.00  0.00    +0.000 C 
BRANCH  13  14
ATOM     14  C   UNL     1       4.617   4.960  19.444  0.00  0.00    +0.000 A 
ATOM     15  N   UNL     1       4.952   3.647  19.625  0.00  0.00    +0.000 NA
ATOM     16  C   UNL     1       3.999   2.815  20.110  0.00  0.00    +0.000 A 
ATOM     17  C   UNL     1       2.721   3.226  20.446  0.00  0.00    +0.000 A 
ATOM     18 CL   UNL     1       1.558   2.101  21.017  0.00  0.00    +0.000 Cl
ATOM     19  C   UNL     1       2.392   4.566  20.292  0.00  0.00    +0.000 A 
ATOM     20  C   UNL     1       3.348   5.446  19.781  0.00  0.00    +0.000 A 
ATOM     21 CL   UNL     1       2.900   7.099  19.563  0.00  0.00    +0.000 Cl
ENDBRANCH  13  14
ENDBRANCH   7  13
TORSDOF 3
ENDMDL
MODEL 7
REMARK VINA RESULT:      -6.3      3.359      6.574
REMARK  Name = 
REMARK  3 active torsions:
REMARK  status: ('A' for Active; 'I' for Inactive)
REMARK    1  A    between atoms: N_4  and  C_5
REMARK    2  A    between atoms: N_12  and  C_13
REMARK    3  A    between atoms: C_13  and  C_14
REMARK                            x       y       z     vdW  Elec       q    Type
REMARK                         _______ _______ _______ _____ _____    ______ ____
ROOT
ATOM      1  O   UNL     1       5.108   4.069  15.383  0.00  0.00    +0.000 OA
ATOM      2  C   UNL     1       4.860   4.085  16.583  0.00  0.00    +0.000 C 
ATOM      3  C   UNL     1       3.487   3.865  17.186  0.00  0.00    +0.000 C 
ATOM      4  N   UNL     1       3.791   3.931  18.599  0.00  0.00    +0.000 N 
ATOM      5  C   UNL     1       5.114   4.298  18.806  0.00  0.00    +0.000 C 
ATOM      6  O   UNL     1       5.624   4.566  19.884  0.00  0.00    +0.000 OA
ATOM      7  N   UNL     1       5.749   4.300  17.597  0.00  0.00    +0.000 N 
ENDROOT
BRANCH   4   8
ATOM      8  C   UNL     1       2.782   3.914  19.647  0.00  0.00    +0.000 C 
ATOM      9  C   UNL     1       1.340   3.801  19.149  0.00  0.00    +0.000 C 
ATOM     10  C   UNL     1       0.554   3.356  20.373  0.00  0.00    +0.000 C 
ATOM     11  C   UNL     1       1.528   2.532  21.213  0.00  0.00    +0.000 C 
ATOM     12  C   UNL     1       2.901   2.696  20.568  0.00  0.00    +0.000 C 
ENDBRANCH   4   8
BRANCH   7  13
ATOM     13  C   UNL     1       7.147   4.624  17.403  0.00  0.00    +0.000 C 
BRANCH  13  14
ATOM     14  C   UNL     1       7.482   6.074  17.696  0.00  0.00    +0.000 A 
ATOM     15  N   UNL     1       7.105   7.009  16.772  0.00  0.00    +0.000 NA
ATOM     16  C   UNL     1       7.480   8.293  16.988  0.00  0.00    +0.000 A 
ATOM     17  C   UNL     1       8.202   8.707  18.094  0.00  0.00    +0.000 A 
ATOM     18 CL   UNL     1       8.672  10.347  18.273  0.00  0.00    +0.000 Cl
ATOM     19  C   UNL     1       8.555   7.761  19.048  0.00  0.00    +0.000 A 
ATOM     20  C   UNL     1       8.195   6.427  18.848  0.00  0.00    +0.000 A 
ATOM     21 CL   UNL     1       8.681   5.266  20.029  0.00  0.00    +0.000 Cl
ENDBRANCH  13  14
ENDBRANCH   7  13
TORSDOF 3
ENDMDL
MODEL 8
REMARK VINA RESULT:      -6.2      5.531      7.776
REMARK  Name = 
REMARK  3 active torsions:
REMARK  status: ('A' for Active; 'I' for Inactive)
REMARK    1  A    between atoms: N_4  and  C_5
REMARK    2  A    between atoms: N_12  and  C_13
REMARK    3  A    between atoms: C_13  and  C_14
REMARK                            x       y       z     vdW  Elec       q    Type
REMARK                         _______ _______ _______ _____ _____    ______ ____
ROOT
ATOM      1  O   UNL     1       2.476   9.000  17.169  0.00  0.00    +0.000 OA
ATOM      2  C   UNL     1       2.216   8.417  18.215  0.00  0.00    +0.000 C 
ATOM      3  C   UNL     1       2.540   6.964  18.500  0.00  0.00    +0.000 C 
ATOM      4  N   UNL     1       2.075   6.839  19.864  0.00  0.00    +0.000 N 
ATOM      5  C   UNL     1       1.423   7.994  20.275  0.00  0.00    +0.000 C 
ATOM      6  O   UNL     1       0.809   8.137  21.321  0.00  0.00    +0.000 OA
ATOM      7  N   UNL     1       1.595   8.945  19.310  0.00  0.00    +0.000 N 
ENDROOT
BRANCH   4   8
ATOM      8  C   UNL     1       2.028   5.580  20.592  0.00  0.00    +0.000 C 
ATOM      9  C   UNL     1       0.822   4.696  20.272  0.00  0.00    +0.000 C 
ATOM     10  C   UNL     1       1.222   3.318  20.775  0.00  0.00    +0.000 C 
ATOM     11  C   UNL     1       2.742   3.252  20.636  0.00  0.00    +0.000 C 
ATOM     12  C   UNL     1       3.203   4.656  20.259  0.00  0.00    +0.000 C 
ENDBRANCH   4   8
BRANCH   7  13
ATOM     13  C   UNL     1       1.067  10.292  19.380  0.00  0.00    +0.000 C 
BRANCH  13  14
ATOM     14  C   UNL     1      -0.342  10.423  18.834  0.00  0.00    +0.000 A 
ATOM     15  N   UNL     1      -0.644   9.733  17.692  0.00  0.00    +0.000 NA
ATOM     16  C   UNL     1      -1.874   9.916  17.154  0.00  0.00    +0.000 A 
ATOM     17  C   UNL     1      -2.837  10.743  17.704  0.00  0.00    +0.000 A 
ATOM     18 CL   UNL     1      -4.358  10.951  16.938  0.00  0.00    +0.000 Cl
ATOM     19  C   UNL     1      -2.540  11.417  18.882  0.00  0.00    +0.000 A 
ATOM     20  C   UNL     1      -1.277  11.259  19.455  0.00  0.00    +0.000 A 
ATOM     21 CL   UNL     1      -0.921  12.139  20.896  0.00  0.00    +0.000 Cl
ENDBRANCH  13  14
ENDBRANCH   7  13
TORSDOF 3
ENDMDL
MODEL 9
REMARK VINA RESULT:      -6.1      3.240      6.488
REMARK  Name = 
REMARK  3 active torsions:
REMARK  status: ('A' for Active; 'I' for Inactive)
REMARK    1  A    between atoms: N_4  and  C_5
REMARK    2  A    between atoms: N_12  and  C_13
REMARK    3  A    between atoms: C_13  and  C_14
REMARK                            x       y       z     vdW  Elec       q    Type
REMARK                         _______ _______ _______ _____ _____    ______ ____
ROOT
ATOM      1  O   UNL     1       2.140   3.480  20.956  0.00  0.00    +0.000 OA
ATOM      2  C   UNL     1       2.479   4.544  20.453  0.00  0.00    +0.000 C 
ATOM      3  C   UNL     1       1.657   5.817  20.487  0.00  0.00    +0.000 C 
ATOM      4  N   UNL     1       2.547   6.739  19.814  0.00  0.00    +0.000 N 
ATOM      5  C   UNL     1       3.659   6.078  19.310  0.00  0.00    +0.000 C 
ATOM      6  O   UNL     1       4.513   6.562  18.582  0.00  0.00    +0.000 OA
ATOM      7  N   UNL     1       3.638   4.794  19.776  0.00  0.00    +0.000 N 
ENDROOT
BRANCH   4   8
ATOM      8  C   UNL     1       2.182   8.101  19.453  0.00  0.00    +0.000 C 
ATOM      9  C   UNL     1       1.611   8.262  18.043  0.00  0.00    +0.000 C 
ATOM     10  C   UNL     1       0.912   9.612  18.073  0.00  0.00    +0.000 C 
ATOM     11  C   UNL     1       0.439   9.801  19.513  0.00  0.00    +0.000 C 
ATOM     12  C   UNL     1       1.056   8.665  20.324  0.00  0.00    +0.000 C 
ENDBRANCH   4   8
BRANCH   7  13
ATOM     13  C   UNL     1       4.640   3.793  19.474  0.00  0.00    +0.000 C 
BRANCH  13  14
ATOM     14  C   UNL     1       5.285   3.968  18.113  0.00  0.00    +0.000 A 
ATOM     15  N   UNL     1       6.598   4.350  18.080  0.00  0.00    +0.000 NA
ATOM     16  C   UNL     1       7.152   4.592  16.868  0.00  0.00    +0.000 A 
ATOM     17  C   UNL     1       6.471   4.455  15.671  0.00  0.00    +0.000 A 
ATOM     18 CL   UNL     1       7.235   4.819  14.179  0.00  0.00    +0.000 Cl
ATOM     19  C   UNL     1       5.148   4.034  15.704  0.00  0.00    +0.000 A 
ATOM     20  C   UNL     1       4.544   3.790  16.939  0.00  0.00    +0.000 A 
ATOM     21 CL   UNL     1       2.887   3.307  16.953  0.00  0.00    +0.000 Cl
ENDBRANCH  13  14
ENDBRANCH   7  13
TORSDOF 3
ENDMDL
