MODEL 1
REMARK VINA RESULT:      -8.5      0.000      0.000
REMARK  Name = 
REMARK  4 active torsions:
REMARK  status: ('A' for Active; 'I' for Inactive)
REMARK    1  A    between atoms: C_1  and  O_2
REMARK    2  A    between atoms: O_2  and  C_3
REMARK    3  A    between atoms: C_7  and  C_8
REMARK    4  A    between atoms: C_9  and  C_10
REMARK                            x       y       z     vdW  Elec       q    Type
REMARK                         _______ _______ _______ _____ _____    ______ ____
ROOT
ATOM      1  C   UNL     1       4.401   3.843  17.832  0.00  0.00    +0.000 A 
ATOM      2  C   UNL     1       4.404   4.791  18.864  0.00  0.00    +0.000 A 
ATOM      3  S   UNL     1       4.437   3.768  20.250  0.00  0.00    +0.000 S 
ATOM      4  C   UNL     1       3.056   3.011  19.494  0.00  0.00    +0.000 A 
ATOM      5  C   UNL     1       1.997   2.413  20.181  0.00  0.00    +0.000 A 
ATOM      6  C   UNL     1       0.752   2.577  19.595  0.00  0.00    +0.000 A 
ATOM      7  C   UNL     1       0.635   3.127  18.315  0.00  0.00    +0.000 A 
ATOM      8  C   UNL     1       1.769   3.423  17.515  0.00  0.00    +0.000 A 
ATOM      9  C   UNL     1       3.050   3.374  18.120  0.00  0.00    +0.000 A 
ENDROOT
BRANCH   2  10
ATOM     10  C   UNL     1       3.761   6.099  18.740  0.00  0.00    +0.000 C 
ATOM     11  O   UNL     1       3.574   6.582  17.626  0.00  0.00    +0.000 OA
ATOM     12  N   UNL     1       3.227   6.594  19.917  0.00  0.00    +0.000 N 
ATOM     13  C   UNL     1       2.349   7.639  19.848  0.00  0.00    +0.000 A 
ATOM     14  N   UNL     1       2.112   8.382  18.799  0.00  0.00    +0.000 NA
ATOM     15  C   UNL     1       1.102   9.242  19.087  0.00  0.00    +0.000 A 
ATOM     16  C   UNL     1       0.628   9.208  20.365  0.00  0.00    +0.000 A 
ATOM     17  S   UNL     1       1.448   8.001  21.255  0.00  0.00    +0.000 S 
ATOM     18  C   UNL     1      -0.404  10.078  20.867  0.00  0.00    +0.000 C 
ATOM     19  O   UNL     1      -0.877  10.032  22.006  0.00  0.00    +0.000 OA
ATOM     20  C   UNL     1      -0.979  11.049  19.818  0.00  0.00    +0.000 C 
ATOM     21  C   UNL     1       0.035  11.424  18.722  0.00  0.00    +0.000 C 
ATOM     22  C   UNL     1       0.597  10.177  18.037  0.00  0.00    +0.000 C 
ATOM     23  H   UNL     1       3.260   6.046  20.763  0.00  0.00    +0.000 HD
ENDBRANCH   2  10
BRANCH   1  28
ATOM     24  C   UNL     1       5.619   4.170  14.273  0.00  0.00    +0.000 A 
ATOM     25  C   UNL     1       6.883   4.706  14.415  0.00  0.00    +0.000 A 
ATOM     26  C   UNL     1       7.382   4.978  15.700  0.00  0.00    +0.000 A 
ATOM     27  C   UNL     1       6.625   4.714  16.864  0.00  0.00    +0.000 A 
ATOM     28  C   UNL     1       5.349   4.174  16.745  0.00  0.00    +0.000 A 
ATOM     29  C   UNL     1       4.857   3.967  15.421  0.00  0.00    +0.000 A 
BRANCH  24  31
ATOM     30  C   UNL     1       6.146   3.250  12.153  0.00  0.00    +0.000 C 
ATOM     31  O   UNL     1       5.198   3.901  12.999  0.00  0.00    +0.000 OA
ENDBRANCH  24  31
ENDBRANCH   1  28
TORSDOF 3
ENDMDL
MODEL 2
REMARK VINA RESULT:      -8.4      1.122      1.827
REMARK  Name = 
REMARK  4 active torsions:
REMARK  status: ('A' for Active; 'I' for Inactive)
REMARK    1  A    between atoms: C_1  and  O_2
REMARK    2  A    between atoms: O_2  and  C_3
REMARK    3  A    between atoms: C_7  and  C_8
REMARK    4  A    between atoms: C_9  and  C_10
REMARK                            x       y       z     vdW  Elec       q    Type
REMARK                         _______ _______ _______ _____ _____    ______ ____
ROOT
ATOM      1  C   UNL     1       4.138   3.912  17.962  0.00  0.00    +0.000 A 
ATOM      2  C   UNL     1       4.146   4.898  18.958  0.00  0.00    +0.000 A 
ATOM      3  S   UNL     1       4.237   3.929  20.379  0.00  0.00    +0.000 S 
ATOM      4  C   UNL     1       2.854   3.116  19.689  0.00  0.00    +0.000 A 
ATOM      5  C   UNL     1       1.827   2.523  20.426  0.00  0.00    +0.000 A 
ATOM      6  C   UNL     1       0.563   2.638  19.868  0.00  0.00    +0.000 A 
ATOM      7  C   UNL     1       0.401   3.138  18.572  0.00  0.00    +0.000 A 
ATOM      8  C   UNL     1       1.507   3.426  17.731  0.00  0.00    +0.000 A 
ATOM      9  C   UNL     1       2.804   3.426  18.303  0.00  0.00    +0.000 A 
ENDROOT
BRANCH   2  10
ATOM     10  C   UNL     1       3.472   6.187  18.802  0.00  0.00    +0.000 C 
ATOM     11  O   UNL     1       3.162   6.580  17.680  0.00  0.00    +0.000 OA
ATOM     12  N   UNL     1       3.056   6.768  19.987  0.00  0.00    +0.000 N 
ATOM     13  C   UNL     1       2.159   7.797  19.931  0.00  0.00    +0.000 A 
ATOM     14  N   UNL     1       1.802   8.454  18.860  0.00  0.00    +0.000 NA
ATOM     15  C   UNL     1       0.812   9.325  19.185  0.00  0.00    +0.000 A 
ATOM     16  C   UNL     1       0.476   9.387  20.505  0.00  0.00    +0.000 A 
ATOM     17  S   UNL     1       1.404   8.260  21.393  0.00  0.00    +0.000 S 
ATOM     18  C   UNL     1      -0.513  10.285  21.045  0.00  0.00    +0.000 C 
ATOM     19  O   UNL     1      -0.862  10.324  22.227  0.00  0.00    +0.000 OA
ATOM     20  C   UNL     1      -1.210  11.166  19.991  0.00  0.00    +0.000 C 
ATOM     21  C   UNL     1      -0.323  11.462  18.769  0.00  0.00    +0.000 C 
ATOM     22  C   UNL     1       0.186  10.171  18.126  0.00  0.00    +0.000 C 
ATOM     23  H   UNL     1       3.187   6.288  20.865  0.00  0.00    +0.000 HD
ENDBRANCH   2  10
BRANCH   1  28
ATOM     24  C   UNL     1       6.965   5.657  16.169  0.00  0.00    +0.000 A 
ATOM     25  C   UNL     1       6.975   5.057  14.927  0.00  0.00    +0.000 A 
ATOM     26  C   UNL     1       6.040   4.051  14.633  0.00  0.00    +0.000 A 
ATOM     27  C   UNL     1       5.078   3.630  15.579  0.00  0.00    +0.000 A 
ATOM     28  C   UNL     1       5.050   4.220  16.838  0.00  0.00    +0.000 A 
ATOM     29  C   UNL     1       6.053   5.197  17.116  0.00  0.00    +0.000 A 
BRANCH  24  31
ATOM     30  C   UNL     1       7.587   7.545  17.460  0.00  0.00    +0.000 C 
ATOM     31  O   UNL     1       7.882   6.650  16.387  0.00  0.00    +0.000 OA
ENDBRANCH  24  31
ENDBRANCH   1  28
TORSDOF 3
ENDMDL
MODEL 3
REMARK VINA RESULT:      -8.1      2.852      9.118
REMARK  Name = 
REMARK  4 active torsions:
REMARK  status: ('A' for Active; 'I' for Inactive)
REMARK    1  A    between atoms: C_1  and  O_2
REMARK    2  A    between atoms: O_2  and  C_3
REMARK    3  A    between atoms: C_7  and  C_8
REMARK    4  A    between atoms: C_9  and  C_10
REMARK                            x       y       z     vdW  Elec       q    Type
REMARK                         _______ _______ _______ _____ _____    ______ ____
ROOT
ATOM      1  C   UNL     1      -0.268  11.477  18.957  0.00  0.00    +0.000 A 
ATOM      2  C   UNL     1       0.471  10.419  19.502  0.00  0.00    +0.000 A 
ATOM      3  S   UNL     1       0.796  11.023  21.081  0.00  0.00    +0.000 S 
ATOM      4  C   UNL     1       1.398  12.419  20.222  0.00  0.00    +0.000 A 
ATOM      5  C   UNL     1       2.438  13.240  20.662  0.00  0.00    +0.000 A 
ATOM      6  C   UNL     1       3.263  13.729  19.660  0.00  0.00    +0.000 A 
ATOM      7  C   UNL     1       2.925  13.556  18.314  0.00  0.00    +0.000 A 
ATOM      8  C   UNL     1       1.685  12.996  17.914  0.00  0.00    +0.000 A 
ATOM      9  C   UNL     1       0.871  12.387  18.902  0.00  0.00    +0.000 A 
ENDROOT
BRANCH   2  10
ATOM     10  C   UNL     1       1.322   9.547  18.691  0.00  0.00    +0.000 C 
ATOM     11  O   UNL     1       1.945  10.016  17.742  0.00  0.00    +0.000 OA
ATOM     12  N   UNL     1       1.506   8.276  19.208  0.00  0.00    +0.000 N 
ATOM     13  C   UNL     1       2.513   7.504  18.702  0.00  0.00    +0.000 A 
ATOM     14  N   UNL     1       3.203   7.746  17.619  0.00  0.00    +0.000 NA
ATOM     15  C   UNL     1       4.185   6.815  17.505  0.00  0.00    +0.000 A 
ATOM     16  C   UNL     1       4.193   5.830  18.447  0.00  0.00    +0.000 A 
ATOM     17  S   UNL     1       2.939   6.099  19.577  0.00  0.00    +0.000 S 
ATOM     18  C   UNL     1       5.125   4.732  18.460  0.00  0.00    +0.000 C 
ATOM     19  O   UNL     1       5.177   3.857  19.328  0.00  0.00    +0.000 OA
ATOM     20  C   UNL     1       6.166   4.773  17.325  0.00  0.00    +0.000 C 
ATOM     21  C   UNL     1       5.651   5.478  16.058  0.00  0.00    +0.000 C 
ATOM     22  C   UNL     1       5.155   6.891  16.371  0.00  0.00    +0.000 C 
ATOM     23  H   UNL     1       1.103   8.024  20.098  0.00  0.00    +0.000 HD
ENDBRANCH   2  10
BRANCH   1  28
ATOM     24  C   UNL     1      -3.922  11.403  18.007  0.00  0.00    +0.000 A 
ATOM     25  C   UNL     1      -3.978  10.430  17.030  0.00  0.00    +0.000 A 
ATOM     26  C   UNL     1      -2.806   9.757  16.650  0.00  0.00    +0.000 A 
ATOM     27  C   UNL     1      -1.556  10.045  17.244  0.00  0.00    +0.000 A 
ATOM     28  C   UNL     1      -1.475  11.023  18.231  0.00  0.00    +0.000 A 
ATOM     29  C   UNL     1      -2.678  11.723  18.546  0.00  0.00    +0.000 A 
BRANCH  24  31
ATOM     30  C   UNL     1      -5.915  12.451  17.269  0.00  0.00    +0.000 C 
ATOM     31  O   UNL     1      -5.101  12.004  18.354  0.00  0.00    +0.000 OA
ENDBRANCH  24  31
ENDBRANCH   1  28
TORSDOF 3
ENDMDL
MODEL 4
REMARK VINA RESULT:      -7.8      1.457      1.887
REMARK  Name = 
REMARK  4 active torsions:
REMARK  status: ('A' for Active; 'I' for Inactive)
REMARK    1  A    between atoms: C_1  and  O_2
REMARK    2  A    between atoms: O_2  and  C_3
REMARK    3  A    between atoms: C_7  and  C_8
REMARK    4  A    between atoms: C_9  and  C_10
REMARK                            x       y       z     vdW  Elec       q    Type
REMARK                         _______ _______ _______ _____ _____    ______ ____
ROOT
ATOM      1  C   UNL     1       4.028   4.606  19.123  0.00  0.00    +0.000 A 
ATOM      2  C   UNL     1       3.381   5.471  20.016  0.00  0.00    +0.000 A 
ATOM      3  S   UNL     1       2.884   4.366  21.241  0.00  0.00    +0.000 S 
ATOM      4  C   UNL     1       2.184   3.487  19.904  0.00  0.00    +0.000 A 
ATOM      5  C   UNL     1       1.028   2.706  19.979  0.00  0.00    +0.000 A 
ATOM      6  C   UNL     1       0.221   2.743  18.853  0.00  0.00    +0.000 A 
ATOM      7  C   UNL     1       0.665   3.363  17.681  0.00  0.00    +0.000 A 
ATOM      8  C   UNL     1       1.986   3.863  17.545  0.00  0.00    +0.000 A 
ATOM      9  C   UNL     1       2.797   3.943  18.705  0.00  0.00    +0.000 A 
ENDROOT
BRANCH   2  10
ATOM     10  C   UNL     1       2.692   6.687  19.584  0.00  0.00    +0.000 C 
ATOM     11  O   UNL     1       2.308   6.789  18.422  0.00  0.00    +0.000 OA
ATOM     12  N   UNL     1       2.351   7.553  20.608  0.00  0.00    +0.000 N 
ATOM     13  C   UNL     1       1.447   8.545  20.353  0.00  0.00    +0.000 A 
ATOM     14  N   UNL     1       1.018   8.915  19.175  0.00  0.00    +0.000 NA
ATOM     15  C   UNL     1       0.048   9.851  19.333  0.00  0.00    +0.000 A 
ATOM     16  C   UNL     1      -0.203  10.248  20.613  0.00  0.00    +0.000 A 
ATOM     17  S   UNL     1       0.786   9.370  21.696  0.00  0.00    +0.000 S 
ATOM     18  C   UNL     1      -1.158  11.264  20.971  0.00  0.00    +0.000 C 
ATOM     19  O   UNL     1      -1.431  11.605  22.125  0.00  0.00    +0.000 OA
ATOM     20  C   UNL     1      -1.926  11.860  19.776  0.00  0.00    +0.000 C 
ATOM     21  C   UNL     1      -1.122  11.829  18.464  0.00  0.00    +0.000 C 
ATOM     22  C   UNL     1      -0.650  10.411  18.136  0.00  0.00    +0.000 C 
ATOM     23  H   UNL     1       2.541   7.308  21.569  0.00  0.00    +0.000 HD
ENDBRANCH   2  10
BRANCH   1  28
ATOM     24  C   UNL     1       6.570   5.797  16.598  0.00  0.00    +0.000 A 
ATOM     25  C   UNL     1       7.653   6.152  17.376  0.00  0.00    +0.000 A 
ATOM     26  C   UNL     1       7.583   6.006  18.772  0.00  0.00    +0.000 A 
ATOM     27  C   UNL     1       6.428   5.500  19.411  0.00  0.00    +0.000 A 
ATOM     28  C   UNL     1       5.324   5.137  18.646  0.00  0.00    +0.000 A 
ATOM     29  C   UNL     1       5.415   5.355  17.238  0.00  0.00    +0.000 A 
BRANCH  24  31
ATOM     30  C   UNL     1       6.830   4.721  14.502  0.00  0.00    +0.000 C 
ATOM     31  O   UNL     1       6.707   5.936  15.243  0.00  0.00    +0.000 OA
ENDBRANCH  24  31
ENDBRANCH   1  28
TORSDOF 3
ENDMDL
MODEL 5
REMARK VINA RESULT:      -7.4      6.327      8.682
REMARK  Name = 
REMARK  4 active torsions:
REMARK  status: ('A' for Active; 'I' for Inactive)
REMARK    1  A    between atoms: C_1  and  O_2
REMARK    2  A    between atoms: O_2  and  C_3
REMARK    3  A    between atoms: C_7  and  C_8
REMARK    4  A    between atoms: C_9  and  C_10
REMARK                            x       y       z     vdW  Elec       q    Type
REMARK                         _______ _______ _______ _____ _____    ______ ____
ROOT
ATOM      1  C   UNL     1      -0.904  10.147  18.851  0.00  0.00    +0.000 A 
ATOM      2  C   UNL     1       0.291  10.807  18.533  0.00  0.00    +0.000 A 
ATOM      3  S   UNL     1       1.411   9.499  18.581  0.00  0.00    +0.000 S 
ATOM      4  C   UNL     1       0.731   9.218  20.165  0.00  0.00    +0.000 A 
ATOM      5  C   UNL     1       1.430   8.687  21.252  0.00  0.00    +0.000 A 
ATOM      6  C   UNL     1       1.087   9.217  22.486  0.00  0.00    +0.000 A 
ATOM      7  C   UNL     1      -0.018  10.066  22.612  0.00  0.00    +0.000 A 
ATOM      8  C   UNL     1      -0.900  10.321  21.531  0.00  0.00    +0.000 A 
ATOM      9  C   UNL     1      -0.520   9.889  20.235  0.00  0.00    +0.000 A 
ENDROOT
BRANCH   2  10
ATOM     10  C   UNL     1       0.542  12.205  18.884  0.00  0.00    +0.000 C 
ATOM     11  O   UNL     1      -0.130  12.743  19.760  0.00  0.00    +0.000 OA
ATOM     12  N   UNL     1       1.681  12.747  18.316  0.00  0.00    +0.000 N 
ATOM     13  C   UNL     1       2.166  13.923  18.817  0.00  0.00    +0.000 A 
ATOM     14  N   UNL     1       1.548  14.723  19.645  0.00  0.00    +0.000 NA
ATOM     15  C   UNL     1       2.391  15.727  19.999  0.00  0.00    +0.000 A 
ATOM     16  C   UNL     1       3.608  15.735  19.385  0.00  0.00    +0.000 A 
ATOM     17  S   UNL     1       3.741  14.386  18.344  0.00  0.00    +0.000 S 
ATOM     18  C   UNL     1       4.612  16.747  19.595  0.00  0.00    +0.000 C 
ATOM     19  O   UNL     1       5.735  16.747  19.084  0.00  0.00    +0.000 OA
ATOM     20  C   UNL     1       4.216  17.827  20.620  0.00  0.00    +0.000 C 
ATOM     21  C   UNL     1       2.698  18.062  20.694  0.00  0.00    +0.000 C 
ATOM     22  C   UNL     1       1.948  16.760  20.982  0.00  0.00    +0.000 C 
ATOM     23  H   UNL     1       2.288  12.178  17.745  0.00  0.00    +0.000 HD
ENDBRANCH   2  10
BRANCH   1  28
ATOM     24  C   UNL     1      -2.860  10.417  15.633  0.00  0.00    +0.000 A 
ATOM     25  C   UNL     1      -4.000  11.097  16.008  0.00  0.00    +0.000 A 
ATOM     26  C   UNL     1      -4.164  11.497  17.344  0.00  0.00    +0.000 A 
ATOM     27  C   UNL     1      -3.186  11.224  18.328  0.00  0.00    +0.000 A 
ATOM     28  C   UNL     1      -2.029  10.539  17.973  0.00  0.00    +0.000 A 
ATOM     29  C   UNL     1      -1.928  10.099  16.618  0.00  0.00    +0.000 A 
BRANCH  24  31
ATOM     30  C   UNL     1      -3.969   9.992  13.582  0.00  0.00    +0.000 C 
ATOM     31  O   UNL     1      -2.745  10.077  14.312  0.00  0.00    +0.000 OA
ENDBRANCH  24  31
ENDBRANCH   1  28
TORSDOF 3
ENDMDL
MODEL 6
REMARK VINA RESULT:      -7.4      2.911      8.766
REMARK  Name = 
REMARK  4 active torsions:
REMARK  status: ('A' for Active; 'I' for Inactive)
REMARK    1  A    between atoms: C_1  and  O_2
REMARK    2  A    between atoms: O_2  and  C_3
REMARK    3  A    between atoms: C_7  and  C_8
REMARK    4  A    between atoms: C_9  and  C_10
REMARK                            x       y       z     vdW  Elec       q    Type
REMARK                         _______ _______ _______ _____ _____    ______ ____
ROOT
ATOM      1  C   UNL     1      -0.346  11.884  19.214  0.00  0.00    +0.000 A 
ATOM      2  C   UNL     1       0.353  10.796  19.755  0.00  0.00    +0.000 A 
ATOM      3  S   UNL     1       0.775  11.415  21.306  0.00  0.00    +0.000 S 
ATOM      4  C   UNL     1       1.422  12.754  20.389  0.00  0.00    +0.000 A 
ATOM      5  C   UNL     1       2.525  13.522  20.768  0.00  0.00    +0.000 A 
ATOM      6  C   UNL     1       3.336  13.938  19.723  0.00  0.00    +0.000 A 
ATOM      7  C   UNL     1       2.935  13.755  18.396  0.00  0.00    +0.000 A 
ATOM      8  C   UNL     1       1.648  13.261  18.058  0.00  0.00    +0.000 A 
ATOM      9  C   UNL     1       0.841  12.724  19.092  0.00  0.00    +0.000 A 
ENDROOT
BRANCH   2  10
ATOM     10  C   UNL     1       1.118   9.857  18.934  0.00  0.00    +0.000 C 
ATOM     11  O   UNL     1       1.745  10.271  17.962  0.00  0.00    +0.000 OA
ATOM     12  N   UNL     1       1.228   8.583  19.463  0.00  0.00    +0.000 N 
ATOM     13  C   UNL     1       2.165   7.737  18.941  0.00  0.00    +0.000 A 
ATOM     14  N   UNL     1       2.839   7.917  17.836  0.00  0.00    +0.000 NA
ATOM     15  C   UNL     1       3.751   6.920  17.709  0.00  0.00    +0.000 A 
ATOM     16  C   UNL     1       3.717   5.947  18.663  0.00  0.00    +0.000 A 
ATOM     17  S   UNL     1       2.517   6.316  19.823  0.00  0.00    +0.000 S 
ATOM     18  C   UNL     1       4.571   4.787  18.667  0.00  0.00    +0.000 C 
ATOM     19  O   UNL     1       4.586   3.921  19.545  0.00  0.00    +0.000 OA
ATOM     20  C   UNL     1       5.580   4.742  17.503  0.00  0.00    +0.000 C 
ATOM     21  C   UNL     1       5.080   5.466  16.241  0.00  0.00    +0.000 C 
ATOM     22  C   UNL     1       4.692   6.914  16.548  0.00  0.00    +0.000 C 
ATOM     23  H   UNL     1       0.834   8.370  20.367  0.00  0.00    +0.000 HD
ENDBRANCH   2  10
BRANCH   1  28
ATOM     24  C   UNL     1      -2.513  10.343  16.534  0.00  0.00    +0.000 A 
ATOM     25  C   UNL     1      -3.795  10.550  17.000  0.00  0.00    +0.000 A 
ATOM     26  C   UNL     1      -3.991  11.214  18.222  0.00  0.00    +0.000 A 
ATOM     27  C   UNL     1      -2.906  11.683  18.997  0.00  0.00    +0.000 A 
ATOM     28  C   UNL     1      -1.605  11.485  18.547  0.00  0.00    +0.000 A 
ATOM     29  C   UNL     1      -1.447  10.755  17.330  0.00  0.00    +0.000 A 
BRANCH  24  31
ATOM     30  C   UNL     1      -3.312  10.116  14.314  0.00  0.00    +0.000 C 
ATOM     31  O   UNL     1      -2.386   9.714  15.324  0.00  0.00    +0.000 OA
ENDBRANCH  24  31
ENDBRANCH   1  28
TORSDOF 3
ENDMDL
MODEL 7
REMARK VINA RESULT:      -7.2      2.982      9.269
REMARK  Name = 
REMARK  4 active torsions:
REMARK  status: ('A' for Active; 'I' for Inactive)
REMARK    1  A    between atoms: C_1  and  O_2
REMARK    2  A    between atoms: O_2  and  C_3
REMARK    3  A    between atoms: C_7  and  C_8
REMARK    4  A    between atoms: C_9  and  C_10
REMARK                            x       y       z     vdW  Elec       q    Type
REMARK                         _______ _______ _______ _____ _____    ______ ____
ROOT
ATOM      1  C   UNL     1      -1.020  11.943  19.516  0.00  0.00    +0.000 A 
ATOM      2  C   UNL     1      -0.886  11.181  20.684  0.00  0.00    +0.000 A 
ATOM      3  S   UNL     1      -1.131  12.384  21.892  0.00  0.00    +0.000 S 
ATOM      4  C   UNL     1       0.117  13.244  21.026  0.00  0.00    +0.000 A 
ATOM      5  C   UNL     1       1.039  14.116  21.609  0.00  0.00    +0.000 A 
ATOM      6  C   UNL     1       2.309  14.084  21.055  0.00  0.00    +0.000 A 
ATOM      7  C   UNL     1       2.552  13.371  19.877  0.00  0.00    +0.000 A 
ATOM      8  C   UNL     1       1.508  12.762  19.134  0.00  0.00    +0.000 A 
ATOM      9  C   UNL     1       0.222  12.679  19.725  0.00  0.00    +0.000 A 
ENDROOT
BRANCH   2  10
ATOM     10  C   UNL     1      -0.024  10.001  20.766  0.00  0.00    +0.000 C 
ATOM     11  O   UNL     1      -0.294   9.104  21.560  0.00  0.00    +0.000 OA
ATOM     12  N   UNL     1       0.933   9.915  19.770  0.00  0.00    +0.000 N 
ATOM     13  C   UNL     1       1.569   8.721  19.576  0.00  0.00    +0.000 A 
ATOM     14  N   UNL     1       1.535   7.688  20.376  0.00  0.00    +0.000 NA
ATOM     15  C   UNL     1       2.196   6.657  19.792  0.00  0.00    +0.000 A 
ATOM     16  C   UNL     1       2.795   6.925  18.597  0.00  0.00    +0.000 A 
ATOM     17  S   UNL     1       2.477   8.541  18.139  0.00  0.00    +0.000 S 
ATOM     18  C   UNL     1       3.581   5.973  17.855  0.00  0.00    +0.000 C 
ATOM     19  O   UNL     1       4.092   6.183  16.752  0.00  0.00    +0.000 OA
ATOM     20  C   UNL     1       3.666   4.579  18.506  0.00  0.00    +0.000 C 
ATOM     21  C   UNL     1       3.547   4.621  20.040  0.00  0.00    +0.000 C 
ATOM     22  C   UNL     1       2.266   5.332  20.478  0.00  0.00    +0.000 C 
ATOM     23  H   UNL     1       0.972  10.608  19.038  0.00  0.00    +0.000 HD
ENDBRANCH   2  10
BRANCH   1  28
ATOM     24  C   UNL     1      -4.216  11.054  17.713  0.00  0.00    +0.000 A 
ATOM     25  C   UNL     1      -3.789  10.227  16.694  0.00  0.00    +0.000 A 
ATOM     26  C   UNL     1      -2.423   9.928  16.568  0.00  0.00    +0.000 A 
ATOM     27  C   UNL     1      -1.460  10.452  17.461  0.00  0.00    +0.000 A 
ATOM     28  C   UNL     1      -1.868  11.288  18.495  0.00  0.00    +0.000 A 
ATOM     29  C   UNL     1      -3.257  11.613  18.554  0.00  0.00    +0.000 A 
BRANCH  24  31
ATOM     30  C   UNL     1      -6.029  12.486  17.183  0.00  0.00    +0.000 C 
ATOM     31  O   UNL     1      -5.562  11.287  17.802  0.00  0.00    +0.000 OA
ENDBRANCH  24  31
ENDBRANCH   1  28
TORSDOF 3
ENDMDL
MODEL 8
REMARK VINA RESULT:      -7.1      8.011      9.907
REMARK  Name = 
REMARK  4 active torsions:
REMARK  status: ('A' for Active; 'I' for Inactive)
REMARK    1  A    between atoms: C_1  and  O_2
REMARK    2  A    between atoms: O_2  and  C_3
REMARK    3  A    between atoms: C_7  and  C_8
REMARK    4  A    between atoms: C_9  and  C_10
REMARK                            x       y       z     vdW  Elec       q    Type
REMARK                         _______ _______ _______ _____ _____    ______ ____
ROOT
ATOM      1  C   UNL     1       9.035  13.051  22.666  0.00  0.00    +0.000 A 
ATOM      2  C   UNL     1       8.239  14.200  22.570  0.00  0.00    +0.000 A 
ATOM      3  S   UNL     1       8.796  15.100  23.929  0.00  0.00    +0.000 S 
ATOM      4  C   UNL     1       8.453  13.630  24.808  0.00  0.00    +0.000 A 
ATOM      5  C   UNL     1       8.037  13.574  26.140  0.00  0.00    +0.000 A 
ATOM      6  C   UNL     1       7.123  12.572  26.427  0.00  0.00    +0.000 A 
ATOM      7  C   UNL     1       6.824  11.590  25.478  0.00  0.00    +0.000 A 
ATOM      8  C   UNL     1       7.519  11.496  24.245  0.00  0.00    +0.000 A 
ATOM      9  C   UNL     1       8.375  12.563  23.872  0.00  0.00    +0.000 A 
ENDROOT
BRANCH   2  10
ATOM     10  C   UNL     1       6.889  14.184  22.007  0.00  0.00    +0.000 C 
ATOM     11  O   UNL     1       5.937  13.875  22.718  0.00  0.00    +0.000 OA
ATOM     12  N   UNL     1       6.785  14.728  20.739  0.00  0.00    +0.000 N 
ATOM     13  C   UNL     1       5.544  15.041  20.260  0.00  0.00    +0.000 A 
ATOM     14  N   UNL     1       4.401  14.683  20.783  0.00  0.00    +0.000 NA
ATOM     15  C   UNL     1       3.395  15.276  20.093  0.00  0.00    +0.000 A 
ATOM     16  C   UNL     1       3.763  16.013  19.006  0.00  0.00    +0.000 A 
ATOM     17  S   UNL     1       5.466  16.018  18.860  0.00  0.00    +0.000 S 
ATOM     18  C   UNL     1       2.835  16.673  18.125  0.00  0.00    +0.000 C 
ATOM     19  O   UNL     1       3.150  17.381  17.165  0.00  0.00    +0.000 OA
ATOM     20  C   UNL     1       1.356  16.515  18.530  0.00  0.00    +0.000 C 
ATOM     21  C   UNL     1       1.075  15.207  19.289  0.00  0.00    +0.000 C 
ATOM     22  C   UNL     1       1.977  15.071  20.517  0.00  0.00    +0.000 C 
ATOM     23  H   UNL     1       7.593  15.133  20.289  0.00  0.00    +0.000 HD
ENDBRANCH   2  10
BRANCH   1  28
ATOM     24  C   UNL     1       9.625  10.807  19.686  0.00  0.00    +0.000 A 
ATOM     25  C   UNL     1      10.496  11.538  18.903  0.00  0.00    +0.000 A 
ATOM     26  C   UNL     1      10.925  12.803  19.336  0.00  0.00    +0.000 A 
ATOM     27  C   UNL     1      10.491  13.358  20.561  0.00  0.00    +0.000 A 
ATOM     28  C   UNL     1       9.613  12.640  21.366  0.00  0.00    +0.000 A 
ATOM     29  C   UNL     1       9.155  11.385  20.864  0.00  0.00    +0.000 A 
BRANCH  24  31
ATOM     30  C   UNL     1       8.400   9.557  18.089  0.00  0.00    +0.000 C 
ATOM     31  O   UNL     1       9.264   9.570  19.226  0.00  0.00    +0.000 OA
ENDBRANCH  24  31
ENDBRANCH   1  28
TORSDOF 3
ENDMDL
MODEL 9
REMARK VINA RESULT:      -7.1      8.920     10.101
REMARK  Name = 
REMARK  4 active torsions:
REMARK  status: ('A' for Active; 'I' for Inactive)
REMARK    1  A    between atoms: C_1  and  O_2
REMARK    2  A    between atoms: O_2  and  C_3
REMARK    3  A    between atoms: C_7  and  C_8
REMARK    4  A    between atoms: C_9  and  C_10
REMARK                            x       y       z     vdW  Elec       q    Type
REMARK                         _______ _______ _______ _____ _____    ______ ____
ROOT
ATOM      1  C   UNL     1       9.005  12.904  22.268  0.00  0.00    +0.000 A 
ATOM      2  C   UNL     1       8.263  14.088  22.161  0.00  0.00    +0.000 A 
ATOM      3  S   UNL     1       8.944  15.021  23.438  0.00  0.00    +0.000 S 
ATOM      4  C   UNL     1       8.583  13.614  24.409  0.00  0.00    +0.000 A 
ATOM      5  C   UNL     1       8.246  13.644  25.763  0.00  0.00    +0.000 A 
ATOM      6  C   UNL     1       7.303  12.706  26.154  0.00  0.00    +0.000 A 
ATOM      7  C   UNL     1       6.899  11.697  25.275  0.00  0.00    +0.000 A 
ATOM      8  C   UNL     1       7.512  11.508  24.010  0.00  0.00    +0.000 A 
ATOM      9  C   UNL     1       8.396  12.509  23.534  0.00  0.00    +0.000 A 
ENDROOT
BRANCH   2  10
ATOM     10  C   UNL     1       6.881  14.116  21.679  0.00  0.00    +0.000 C 
ATOM     11  O   UNL     1       5.964  13.828  22.443  0.00  0.00    +0.000 OA
ATOM     12  N   UNL     1       6.719  14.674  20.423  0.00  0.00    +0.000 N 
ATOM     13  C   UNL     1       5.461  15.027  20.021  0.00  0.00    +0.000 A 
ATOM     14  N   UNL     1       4.341  14.697  20.609  0.00  0.00    +0.000 NA
ATOM     15  C   UNL     1       3.314  15.326  19.983  0.00  0.00    +0.000 A 
ATOM     16  C   UNL     1       3.638  16.061  18.882  0.00  0.00    +0.000 A 
ATOM     17  S   UNL     1       5.330  16.018  18.635  0.00  0.00    +0.000 S 
ATOM     18  C   UNL     1       2.680  16.756  18.062  0.00  0.00    +0.000 C 
ATOM     19  O   UNL     1       2.958  17.462  17.091  0.00  0.00    +0.000 OA
ATOM     20  C   UNL     1       1.224  16.637  18.554  0.00  0.00    +0.000 C 
ATOM     21  C   UNL     1       0.949  15.330  19.318  0.00  0.00    +0.000 C 
ATOM     22  C   UNL     1       1.918  15.158  20.489  0.00  0.00    +0.000 C 
ATOM     23  H   UNL     1       7.510  15.059  19.929  0.00  0.00    +0.000 HD
ENDBRANCH   2  10
BRANCH   1  28
ATOM     24  C   UNL     1      10.719  13.065  18.908  0.00  0.00    +0.000 A 
ATOM     25  C   UNL     1      10.560  11.789  18.406  0.00  0.00    +0.000 A 
ATOM     26  C   UNL     1       9.874  10.825  19.163  0.00  0.00    +0.000 A 
ATOM     27  C   UNL     1       9.333  11.123  20.434  0.00  0.00    +0.000 A 
ATOM     28  C   UNL     1       9.482  12.403  20.960  0.00  0.00    +0.000 A 
ATOM     29  C   UNL     1      10.235  13.336  20.185  0.00  0.00    +0.000 A 
BRANCH  24  31
ATOM     30  C   UNL     1      12.096  13.420  17.012  0.00  0.00    +0.000 C 
ATOM     31  O   UNL     1      11.372  13.968  18.114  0.00  0.00    +0.000 OA
ENDBRANCH  24  31
ENDBRANCH   1  28
TORSDOF 3
ENDMDL
