MODEL 1
REMARK VINA RESULT:      -6.3      0.000      0.000
REMARK  Name = 
REMARK  15 active torsions:
REMARK  status: ('A' for Active; 'I' for Inactive)
REMARK    1  A    between atoms: C_1  and  C_2
REMARK    2  A    between atoms: C_2  and  C_3
REMARK    3  A    between atoms: C_3  and  C_4
REMARK    4  A    between atoms: C_4  and  C_5
REMARK    5  A    between atoms: C_5  and  C_6
REMARK    6  A    between atoms: C_6  and  C_7
REMARK    7  A    between atoms: C_7  and  C_8
REMARK    8  A    between atoms: C_12  and  C_13
REMARK    9  A    between atoms: C_13  and  C_14
REMARK   10  A    between atoms: C_14  and  C_15
REMARK   11  A    between atoms: C_15  and  C_16
REMARK   12  A    between atoms: C_16  and  C_17
REMARK   13  A    between atoms: C_17  and  C_18
REMARK   14  A    between atoms: C_18  and  C_19
REMARK   15  A    between atoms: N_20  and  C_21
REMARK                            x       y       z     vdW  Elec       q    Type
REMARK                         _______ _______ _______ _____ _____    ______ ____
ROOT
ATOM      1  C   UNL     1       4.316   6.757  17.849  0.00  0.00    +0.000 A 
ATOM      2  C   UNL     1       3.449   7.780  17.432  0.00  0.00    +0.000 A 
ATOM      3  C   UNL     1       2.275   8.025  18.111  0.00  0.00    +0.000 A 
ATOM      4  C   UNL     1       1.957   7.224  19.187  0.00  0.00    +0.000 A 
ATOM      5  C   UNL     1       2.799   6.163  19.592  0.00  0.00    +0.000 A 
ATOM      6  N   UNL     1       3.992   5.973  18.932  0.00  0.00    +0.000 N 
ATOM      7  C   UNL     1       4.997   4.996  19.416  0.00  0.00    +0.000 C 
ENDROOT
BRANCH   1   8
ATOM      8  C   UNL     1       5.576   6.541  17.032  0.00  0.00    +0.000 C 
BRANCH   8   9
ATOM      9  C   UNL     1       5.287   5.662  15.811  0.00  0.00    +0.000 C 
BRANCH   9  10
ATOM     10  C   UNL     1       6.572   5.064  15.240  0.00  0.00    +0.000 C 
BRANCH  10  11
ATOM     11  C   UNL     1       6.290   3.773  14.472  0.00  0.00    +0.000 C 
BRANCH  11  12
ATOM     12  C   UNL     1       5.204   3.987  13.416  0.00  0.00    +0.000 C 
BRANCH  12  14
ATOM     13  C   UNL     1       4.282   3.082  11.257  0.00  0.00    +0.000 C 
ATOM     14  C   UNL     1       5.521   3.235  12.125  0.00  0.00    +0.000 C 
ENDBRANCH  12  14
ENDBRANCH  11  12
ENDBRANCH  10  11
ENDBRANCH   9  10
ENDBRANCH   8   9
ENDBRANCH   1   8
BRANCH   5  15
ATOM     15  C   UNL     1       2.338   5.330  20.777  0.00  0.00    +0.000 C 
BRANCH  15  16
ATOM     16  C   UNL     1       1.137   4.410  20.495  0.00  0.00    +0.000 C 
BRANCH  16  17
ATOM     17  C   UNL     1       1.463   2.911  20.479  0.00  0.00    +0.000 C 
BRANCH  17  18
ATOM     18  C   UNL     1       1.403   2.391  19.038  0.00  0.00    +0.000 C 
BRANCH  18  19
ATOM     19  C   UNL     1       1.444   3.508  17.996  0.00  0.00    +0.000 C 
BRANCH  19  20
ATOM     20  C   UNL     1       2.494   3.204  16.923  0.00  0.00    +0.000 C 
ATOM     21  C   UNL     1       3.760   2.616  17.521  0.00  0.00    +0.000 C 
ENDBRANCH  19  20
ENDBRANCH  18  19
ENDBRANCH  17  18
ENDBRANCH  16  17
ENDBRANCH  15  16
ENDBRANCH   5  15
TORSDOF 12
ENDMDL
MODEL 2
REMARK VINA RESULT:      -6.2      3.477      5.886
REMARK  Name = 
REMARK  15 active torsions:
REMARK  status: ('A' for Active; 'I' for Inactive)
REMARK    1  A    between atoms: C_1  and  C_2
REMARK    2  A    between atoms: C_2  and  C_3
REMARK    3  A    between atoms: C_3  and  C_4
REMARK    4  A    between atoms: C_4  and  C_5
REMARK    5  A    between atoms: C_5  and  C_6
REMARK    6  A    between atoms: C_6  and  C_7
REMARK    7  A    between atoms: C_7  and  C_8
REMARK    8  A    between atoms: C_12  and  C_13
REMARK    9  A    between atoms: C_13  and  C_14
REMARK   10  A    between atoms: C_14  and  C_15
REMARK   11  A    between atoms: C_15  and  C_16
REMARK   12  A    between atoms: C_16  and  C_17
REMARK   13  A    between atoms: C_17  and  C_18
REMARK   14  A    between atoms: C_18  and  C_19
REMARK   15  A    between atoms: N_20  and  C_21
REMARK                            x       y       z     vdW  Elec       q    Type
REMARK                         _______ _______ _______ _____ _____    ______ ____
ROOT
ATOM      1  C   UNL     1       6.849   5.978  17.397  0.00  0.00    +0.000 A 
ATOM      2  C   UNL     1       6.794   6.057  15.997  0.00  0.00    +0.000 A 
ATOM      3  C   UNL     1       5.910   5.277  15.284  0.00  0.00    +0.000 A 
ATOM      4  C   UNL     1       5.105   4.396  15.974  0.00  0.00    +0.000 A 
ATOM      5  C   UNL     1       5.180   4.275  17.381  0.00  0.00    +0.000 A 
ATOM      6  N   UNL     1       6.031   5.103  18.075  0.00  0.00    +0.000 N 
ATOM      7  C   UNL     1       6.029   5.151  19.557  0.00  0.00    +0.000 C 
ENDROOT
BRANCH   1   8
ATOM      8  C   UNL     1       7.866   6.857  18.102  0.00  0.00    +0.000 C 
BRANCH   8   9
ATOM      9  C   UNL     1       7.797   8.295  17.577  0.00  0.00    +0.000 C 
BRANCH   9  10
ATOM     10  C   UNL     1       8.678   9.231  18.403  0.00  0.00    +0.000 C 
BRANCH  10  11
ATOM     11  C   UNL     1       8.533  10.681  17.942  0.00  0.00    +0.000 C 
BRANCH  11  12
ATOM     12  C   UNL     1       9.505  11.596  18.688  0.00  0.00    +0.000 C 
BRANCH  12  14
ATOM     13  C   UNL     1      11.994  11.549  19.055  0.00  0.00    +0.000 C 
ATOM     14  C   UNL     1      10.880  11.614  18.022  0.00  0.00    +0.000 C 
ENDBRANCH  12  14
ENDBRANCH  11  12
ENDBRANCH  10  11
ENDBRANCH   9  10
ENDBRANCH   8   9
ENDBRANCH   1   8
BRANCH   5  15
ATOM     15  C   UNL     1       4.261   3.255  18.035  0.00  0.00    +0.000 C 
BRANCH  15  16
ATOM     16  C   UNL     1       2.812   3.260  17.517  0.00  0.00    +0.000 C 
BRANCH  16  17
ATOM     17  C   UNL     1       1.957   2.074  17.982  0.00  0.00    +0.000 C 
BRANCH  17  18
ATOM     18  C   UNL     1       0.735   2.595  18.747  0.00  0.00    +0.000 C 
BRANCH  18  19
ATOM     19  C   UNL     1       1.092   3.627  19.815  0.00  0.00    +0.000 C 
BRANCH  19  20
ATOM     20  C   UNL     1       1.220   2.958  21.187  0.00  0.00    +0.000 C 
ATOM     21  C   UNL     1       2.669   2.688  21.552  0.00  0.00    +0.000 C 
ENDBRANCH  19  20
ENDBRANCH  18  19
ENDBRANCH  17  18
ENDBRANCH  16  17
ENDBRANCH  15  16
ENDBRANCH   5  15
TORSDOF 12
ENDMDL
MODEL 3
REMARK VINA RESULT:      -6.1      1.706      6.640
REMARK  Name = 
REMARK  15 active torsions:
REMARK  status: ('A' for Active; 'I' for Inactive)
REMARK    1  A    between atoms: C_1  and  C_2
REMARK    2  A    between atoms: C_2  and  C_3
REMARK    3  A    between atoms: C_3  and  C_4
REMARK    4  A    between atoms: C_4  and  C_5
REMARK    5  A    between atoms: C_5  and  C_6
REMARK    6  A    between atoms: C_6  and  C_7
REMARK    7  A    between atoms: C_7  and  C_8
REMARK    8  A    between atoms: C_12  and  C_13
REMARK    9  A    between atoms: C_13  and  C_14
REMARK   10  A    between atoms: C_14  and  C_15
REMARK   11  A    between atoms: C_15  and  C_16
REMARK   12  A    between atoms: C_16  and  C_17
REMARK   13  A    between atoms: C_17  and  C_18
REMARK   14  A    between atoms: C_18  and  C_19
REMARK   15  A    between atoms: N_20  and  C_21
REMARK                            x       y       z     vdW  Elec       q    Type
REMARK                         _______ _______ _______ _____ _____    ______ ____
ROOT
ATOM      1  C   UNL     1       5.424   4.758  18.376  0.00  0.00    +0.000 A 
ATOM      2  C   UNL     1       6.514   5.500  18.857  0.00  0.00    +0.000 A 
ATOM      3  C   UNL     1       7.374   6.130  17.983  0.00  0.00    +0.000 A 
ATOM      4  C   UNL     1       7.158   5.988  16.630  0.00  0.00    +0.000 A 
ATOM      5  C   UNL     1       6.089   5.208  16.130  0.00  0.00    +0.000 A 
ATOM      6  N   UNL     1       5.213   4.634  17.022  0.00  0.00    +0.000 N 
ATOM      7  C   UNL     1       3.977   3.954  16.564  0.00  0.00    +0.000 C 
ENDROOT
BRANCH   1   8
ATOM      8  C   UNL     1       4.540   4.079  19.405  0.00  0.00    +0.000 C 
BRANCH   8   9
ATOM      9  C   UNL     1       3.624   5.098  20.092  0.00  0.00    +0.000 C 
BRANCH   9  10
ATOM     10  C   UNL     1       2.241   5.128  19.443  0.00  0.00    +0.000 C 
BRANCH  10  11
ATOM     11  C   UNL     1       1.159   4.672  20.422  0.00  0.00    +0.000 C 
BRANCH  11  12
ATOM     12  C   UNL     1       1.561   3.371  21.119  0.00  0.00    +0.000 C 
BRANCH  12  14
ATOM     13  C   UNL     1       0.578   2.464  18.988  0.00  0.00    +0.000 C 
ATOM     14  C   UNL     1       1.500   2.181  20.164  0.00  0.00    +0.000 C 
ENDBRANCH  12  14
ENDBRANCH  11  12
ENDBRANCH  10  11
ENDBRANCH   9  10
ENDBRANCH   8   9
ENDBRANCH   1   8
BRANCH   5  15
ATOM     15  C   UNL     1       5.960   5.102  14.619  0.00  0.00    +0.000 C 
BRANCH  15  16
ATOM     16  C   UNL     1       6.385   3.748  14.024  0.00  0.00    +0.000 C 
BRANCH  16  17
ATOM     17  C   UNL     1       6.491   3.721  12.494  0.00  0.00    +0.000 C 
BRANCH  17  18
ATOM     18  C   UNL     1       5.382   2.832  11.920  0.00  0.00    +0.000 C 
BRANCH  18  19
ATOM     19  C   UNL     1       4.089   3.596  11.639  0.00  0.00    +0.000 C 
BRANCH  19  20
ATOM     20  C   UNL     1       3.468   3.132  10.317  0.00  0.00    +0.000 C 
ATOM     21  C   UNL     1       2.796   4.276   9.576  0.00  0.00    +0.000 C 
ENDBRANCH  19  20
ENDBRANCH  18  19
ENDBRANCH  17  18
ENDBRANCH  16  17
ENDBRANCH  15  16
ENDBRANCH   5  15
TORSDOF 12
ENDMDL
MODEL 4
REMARK VINA RESULT:      -6.1      0.890      1.057
REMARK  Name = 
REMARK  15 active torsions:
REMARK  status: ('A' for Active; 'I' for Inactive)
REMARK    1  A    between atoms: C_1  and  C_2
REMARK    2  A    between atoms: C_2  and  C_3
REMARK    3  A    between atoms: C_3  and  C_4
REMARK    4  A    between atoms: C_4  and  C_5
REMARK    5  A    between atoms: C_5  and  C_6
REMARK    6  A    between atoms: C_6  and  C_7
REMARK    7  A    between atoms: C_7  and  C_8
REMARK    8  A    between atoms: C_12  and  C_13
REMARK    9  A    between atoms: C_13  and  C_14
REMARK   10  A    between atoms: C_14  and  C_15
REMARK   11  A    between atoms: C_15  and  C_16
REMARK   12  A    between atoms: C_16  and  C_17
REMARK   13  A    between atoms: C_17  and  C_18
REMARK   14  A    between atoms: C_18  and  C_19
REMARK   15  A    between atoms: N_20  and  C_21
REMARK                            x       y       z     vdW  Elec       q    Type
REMARK                         _______ _______ _______ _____ _____    ______ ____
ROOT
ATOM      1  C   UNL     1       4.577   6.473  17.683  0.00  0.00    +0.000 A 
ATOM      2  C   UNL     1       3.631   7.451  17.336  0.00  0.00    +0.000 A 
ATOM      3  C   UNL     1       2.490   7.621  18.089  0.00  0.00    +0.000 A 
ATOM      4  C   UNL     1       2.283   6.790  19.169  0.00  0.00    +0.000 A 
ATOM      5  C   UNL     1       3.206   5.772  19.505  0.00  0.00    +0.000 A 
ATOM      6  N   UNL     1       4.364   5.658  18.771  0.00  0.00    +0.000 N 
ATOM      7  C   UNL     1       5.450   4.733  19.177  0.00  0.00    +0.000 C 
ENDROOT
BRANCH   1   8
ATOM      8  C   UNL     1       5.794   6.338  16.787  0.00  0.00    +0.000 C 
BRANCH   8   9
ATOM      9  C   UNL     1       5.385   5.905  15.375  0.00  0.00    +0.000 C 
BRANCH   9  10
ATOM     10  C   UNL     1       5.317   4.384  15.258  0.00  0.00    +0.000 C 
BRANCH  10  11
ATOM     11  C   UNL     1       6.370   3.854  14.284  0.00  0.00    +0.000 C 
BRANCH  11  12
ATOM     12  C   UNL     1       5.746   3.520  12.928  0.00  0.00    +0.000 C 
BRANCH  12  14
ATOM     13  C   UNL     1       6.992   2.080  11.284  0.00  0.00    +0.000 C 
ATOM     14  C   UNL     1       6.797   3.489  11.820  0.00  0.00    +0.000 C 
ENDBRANCH  12  14
ENDBRANCH  11  12
ENDBRANCH  10  11
ENDBRANCH   9  10
ENDBRANCH   8   9
ENDBRANCH   1   8
BRANCH   5  15
ATOM     15  C   UNL     1       2.865   4.900  20.702  0.00  0.00    +0.000 C 
BRANCH  15  16
ATOM     16  C   UNL     1       1.388   4.482  20.801  0.00  0.00    +0.000 C 
BRANCH  16  17
ATOM     17  C   UNL     1       1.121   2.991  20.553  0.00  0.00    +0.000 C 
BRANCH  17  18
ATOM     18  C   UNL     1       0.553   2.803  19.142  0.00  0.00    +0.000 C 
BRANCH  18  19
ATOM     19  C   UNL     1       1.636   2.605  18.082  0.00  0.00    +0.000 C 
BRANCH  19  20
ATOM     20  C   UNL     1       2.822   1.830  18.663  0.00  0.00    +0.000 C 
ATOM     21  C   UNL     1       3.997   1.789  17.701  0.00  0.00    +0.000 C 
ENDBRANCH  19  20
ENDBRANCH  18  19
ENDBRANCH  17  18
ENDBRANCH  16  17
ENDBRANCH  15  16
ENDBRANCH   5  15
TORSDOF 12
ENDMDL
MODEL 5
REMARK VINA RESULT:      -6.0      1.694      4.047
REMARK  Name = 
REMARK  15 active torsions:
REMARK  status: ('A' for Active; 'I' for Inactive)
REMARK    1  A    between atoms: C_1  and  C_2
REMARK    2  A    between atoms: C_2  and  C_3
REMARK    3  A    between atoms: C_3  and  C_4
REMARK    4  A    between atoms: C_4  and  C_5
REMARK    5  A    between atoms: C_5  and  C_6
REMARK    6  A    between atoms: C_6  and  C_7
REMARK    7  A    between atoms: C_7  and  C_8
REMARK    8  A    between atoms: C_12  and  C_13
REMARK    9  A    between atoms: C_13  and  C_14
REMARK   10  A    between atoms: C_14  and  C_15
REMARK   11  A    between atoms: C_15  and  C_16
REMARK   12  A    between atoms: C_16  and  C_17
REMARK   13  A    between atoms: C_17  and  C_18
REMARK   14  A    between atoms: C_18  and  C_19
REMARK   15  A    between atoms: N_20  and  C_21
REMARK                            x       y       z     vdW  Elec       q    Type
REMARK                         _______ _______ _______ _____ _____    ______ ____
ROOT
ATOM      1  C   UNL     1       6.090   4.303  16.879  0.00  0.00    +0.000 A 
ATOM      2  C   UNL     1       7.172   5.092  17.300  0.00  0.00    +0.000 A 
ATOM      3  C   UNL     1       7.125   5.763  18.502  0.00  0.00    +0.000 A 
ATOM      4  C   UNL     1       5.981   5.667  19.265  0.00  0.00    +0.000 A 
ATOM      5  C   UNL     1       4.867   4.910  18.834  0.00  0.00    +0.000 A 
ATOM      6  N   UNL     1       4.959   4.206  17.656  0.00  0.00    +0.000 N 
ATOM      7  C   UNL     1       3.899   3.257  17.237  0.00  0.00    +0.000 C 
ENDROOT
BRANCH   1   8
ATOM      8  C   UNL     1       6.217   3.615  15.532  0.00  0.00    +0.000 C 
BRANCH   8   9
ATOM      9  C   UNL     1       6.176   4.640  14.393  0.00  0.00    +0.000 C 
BRANCH   9  10
ATOM     10  C   UNL     1       5.249   4.184  13.268  0.00  0.00    +0.000 C 
BRANCH  10  11
ATOM     11  C   UNL     1       6.007   3.367  12.221  0.00  0.00    +0.000 C 
BRANCH  11  12
ATOM     12  C   UNL     1       5.041   2.612  11.307  0.00  0.00    +0.000 C 
BRANCH  12  14
ATOM     13  C   UNL     1       3.347   3.919   9.981  0.00  0.00    +0.000 C 
ATOM     14  C   UNL     1       3.652   3.249  11.312  0.00  0.00    +0.000 C 
ENDBRANCH  12  14
ENDBRANCH  11  12
ENDBRANCH  10  11
ENDBRANCH   9  10
ENDBRANCH   8   9
ENDBRANCH   1   8
BRANCH   5  15
ATOM     15  C   UNL     1       3.650   4.894  19.745  0.00  0.00    +0.000 C 
BRANCH  15  16
ATOM     16  C   UNL     1       2.689   6.082  19.566  0.00  0.00    +0.000 C 
BRANCH  16  17
ATOM     17  C   UNL     1       2.553   6.590  18.125  0.00  0.00    +0.000 C 
BRANCH  17  18
ATOM     18  C   UNL     1       2.796   8.103  18.092  0.00  0.00    +0.000 C 
BRANCH  18  19
ATOM     19  C   UNL     1       1.596   8.891  17.568  0.00  0.00    +0.000 C 
BRANCH  19  20
ATOM     20  C   UNL     1       1.177   9.965  18.576  0.00  0.00    +0.000 C 
ATOM     21  C   UNL     1       0.983   9.390  19.968  0.00  0.00    +0.000 C 
ENDBRANCH  19  20
ENDBRANCH  18  19
ENDBRANCH  17  18
ENDBRANCH  16  17
ENDBRANCH  15  16
ENDBRANCH   5  15
TORSDOF 12
ENDMDL
MODEL 6
REMARK VINA RESULT:      -5.9      3.454      7.628
REMARK  Name = 
REMARK  15 active torsions:
REMARK  status: ('A' for Active; 'I' for Inactive)
REMARK    1  A    between atoms: C_1  and  C_2
REMARK    2  A    between atoms: C_2  and  C_3
REMARK    3  A    between atoms: C_3  and  C_4
REMARK    4  A    between atoms: C_4  and  C_5
REMARK    5  A    between atoms: C_5  and  C_6
REMARK    6  A    between atoms: C_6  and  C_7
REMARK    7  A    between atoms: C_7  and  C_8
REMARK    8  A    between atoms: C_12  and  C_13
REMARK    9  A    between atoms: C_13  and  C_14
REMARK   10  A    between atoms: C_14  and  C_15
REMARK   11  A    between atoms: C_15  and  C_16
REMARK   12  A    between atoms: C_16  and  C_17
REMARK   13  A    between atoms: C_17  and  C_18
REMARK   14  A    between atoms: C_18  and  C_19
REMARK   15  A    between atoms: N_20  and  C_21
REMARK                            x       y       z     vdW  Elec       q    Type
REMARK                         _______ _______ _______ _____ _____    ______ ____
ROOT
ATOM      1  C   UNL     1       4.933   4.498  17.472  0.00  0.00    +0.000 A 
ATOM      2  C   UNL     1       5.187   4.040  18.774  0.00  0.00    +0.000 A 
ATOM      3  C   UNL     1       6.112   4.675  19.573  0.00  0.00    +0.000 A 
ATOM      4  C   UNL     1       6.805   5.747  19.054  0.00  0.00    +0.000 A 
ATOM      5  C   UNL     1       6.591   6.193  17.729  0.00  0.00    +0.000 A 
ATOM      6  N   UNL     1       5.623   5.577  16.969  0.00  0.00    +0.000 N 
ATOM      7  C   UNL     1       5.228   6.105  15.642  0.00  0.00    +0.000 C 
ENDROOT
BRANCH   1   8
ATOM      8  C   UNL     1       3.914   3.727  16.653  0.00  0.00    +0.000 C 
BRANCH   8   9
ATOM      9  C   UNL     1       3.200   2.682  17.517  0.00  0.00    +0.000 C 
BRANCH   9  10
ATOM     10  C   UNL     1       1.761   3.098  17.816  0.00  0.00    +0.000 C 
BRANCH  10  11
ATOM     11  C   UNL     1       1.149   2.229  18.915  0.00  0.00    +0.000 C 
BRANCH  11  12
ATOM     12  C   UNL     1       0.886   3.047  20.180  0.00  0.00    +0.000 C 
BRANCH  12  14
ATOM     13  C   UNL     1       2.306   4.956  20.999  0.00  0.00    +0.000 C 
ATOM     14  C   UNL     1       1.260   4.515  19.987  0.00  0.00    +0.000 C 
ENDBRANCH  12  14
ENDBRANCH  11  12
ENDBRANCH  10  11
ENDBRANCH   9  10
ENDBRANCH   8   9
ENDBRANCH   1   8
BRANCH   5  15
ATOM     15  C   UNL     1       7.427   7.370  17.253  0.00  0.00    +0.000 C 
BRANCH  15  16
ATOM     16  C   UNL     1       8.282   8.041  18.342  0.00  0.00    +0.000 C 
BRANCH  16  17
ATOM     17  C   UNL     1       8.523   9.543  18.139  0.00  0.00    +0.000 C 
BRANCH  17  18
ATOM     18  C   UNL     1       9.193  10.126  19.388  0.00  0.00    +0.000 C 
BRANCH  18  19
ATOM     19  C   UNL     1       9.531  11.609  19.249  0.00  0.00    +0.000 C 
BRANCH  19  20
ATOM     20  C   UNL     1      10.154  11.892  17.878  0.00  0.00    +0.000 C 
ATOM     21  C   UNL     1      11.668  11.767  17.908  0.00  0.00    +0.000 C 
ENDBRANCH  19  20
ENDBRANCH  18  19
ENDBRANCH  17  18
ENDBRANCH  16  17
ENDBRANCH  15  16
ENDBRANCH   5  15
TORSDOF 12
ENDMDL
MODEL 7
REMARK VINA RESULT:      -5.9      0.927      5.584
REMARK  Name = 
REMARK  15 active torsions:
REMARK  status: ('A' for Active; 'I' for Inactive)
REMARK    1  A    between atoms: C_1  and  C_2
REMARK    2  A    between atoms: C_2  and  C_3
REMARK    3  A    between atoms: C_3  and  C_4
REMARK    4  A    between atoms: C_4  and  C_5
REMARK    5  A    between atoms: C_5  and  C_6
REMARK    6  A    between atoms: C_6  and  C_7
REMARK    7  A    between atoms: C_7  and  C_8
REMARK    8  A    between atoms: C_12  and  C_13
REMARK    9  A    between atoms: C_13  and  C_14
REMARK   10  A    between atoms: C_14  and  C_15
REMARK   11  A    between atoms: C_15  and  C_16
REMARK   12  A    between atoms: C_16  and  C_17
REMARK   13  A    between atoms: C_17  and  C_18
REMARK   14  A    between atoms: C_18  and  C_19
REMARK   15  A    between atoms: N_20  and  C_21
REMARK                            x       y       z     vdW  Elec       q    Type
REMARK                         _______ _______ _______ _____ _____    ______ ____
ROOT
ATOM      1  C   UNL     1       3.501   5.413  19.618  0.00  0.00    +0.000 A 
ATOM      2  C   UNL     1       2.434   6.323  19.538  0.00  0.00    +0.000 A 
ATOM      3  C   UNL     1       2.408   7.288  18.555  0.00  0.00    +0.000 A 
ATOM      4  C   UNL     1       3.465   7.360  17.674  0.00  0.00    +0.000 A 
ATOM      5  C   UNL     1       4.567   6.478  17.769  0.00  0.00    +0.000 A 
ATOM      6  N   UNL     1       4.545   5.489  18.725  0.00  0.00    +0.000 N 
ATOM      7  C   UNL     1       5.579   4.426  18.764  0.00  0.00    +0.000 C 
ENDROOT
BRANCH   1   8
ATOM      8  C   UNL     1       3.461   4.396  20.743  0.00  0.00    +0.000 C 
BRANCH   8   9
ATOM      9  C   UNL     1       2.056   4.312  21.351  0.00  0.00    +0.000 C 
BRANCH   9  10
ATOM     10  C   UNL     1       1.364   3.004  20.973  0.00  0.00    +0.000 C 
BRANCH  10  11
ATOM     11  C   UNL     1       0.491   3.177  19.730  0.00  0.00    +0.000 C 
BRANCH  11  12
ATOM     12  C   UNL     1       1.024   2.346  18.562  0.00  0.00    +0.000 C 
BRANCH  12  14
ATOM     13  C   UNL     1       3.339   1.898  17.682  0.00  0.00    +0.000 C 
ATOM     14  C   UNL     1       2.402   1.764  18.873  0.00  0.00    +0.000 C 
ENDBRANCH  12  14
ENDBRANCH  11  12
ENDBRANCH  10  11
ENDBRANCH   9  10
ENDBRANCH   8   9
ENDBRANCH   1   8
BRANCH   5  15
ATOM     15  C   UNL     1       5.688   6.664  16.759  0.00  0.00    +0.000 C 
BRANCH  15  16
ATOM     16  C   UNL     1       5.331   6.274  15.314  0.00  0.00    +0.000 C 
BRANCH  16  17
ATOM     17  C   UNL     1       5.213   4.765  15.064  0.00  0.00    +0.000 C 
BRANCH  17  18
ATOM     18  C   UNL     1       6.564   4.219  14.589  0.00  0.00    +0.000 C 
BRANCH  18  19
ATOM     19  C   UNL     1       6.595   3.918  13.091  0.00  0.00    +0.000 C 
BRANCH  19  20
ATOM     20  C   UNL     1       5.226   3.424  12.614  0.00  0.00    +0.000 C 
ATOM     21  C   UNL     1       5.352   2.357  11.541  0.00  0.00    +0.000 C 
ENDBRANCH  19  20
ENDBRANCH  18  19
ENDBRANCH  17  18
ENDBRANCH  16  17
ENDBRANCH  15  16
ENDBRANCH   5  15
TORSDOF 12
ENDMDL
MODEL 8
REMARK VINA RESULT:      -5.9      0.736      5.589
REMARK  Name = 
REMARK  15 active torsions:
REMARK  status: ('A' for Active; 'I' for Inactive)
REMARK    1  A    between atoms: C_1  and  C_2
REMARK    2  A    between atoms: C_2  and  C_3
REMARK    3  A    between atoms: C_3  and  C_4
REMARK    4  A    between atoms: C_4  and  C_5
REMARK    5  A    between atoms: C_5  and  C_6
REMARK    6  A    between atoms: C_6  and  C_7
REMARK    7  A    between atoms: C_7  and  C_8
REMARK    8  A    between atoms: C_12  and  C_13
REMARK    9  A    between atoms: C_13  and  C_14
REMARK   10  A    between atoms: C_14  and  C_15
REMARK   11  A    between atoms: C_15  and  C_16
REMARK   12  A    between atoms: C_16  and  C_17
REMARK   13  A    between atoms: C_17  and  C_18
REMARK   14  A    between atoms: C_18  and  C_19
REMARK   15  A    between atoms: N_20  and  C_21
REMARK                            x       y       z     vdW  Elec       q    Type
REMARK                         _______ _______ _______ _____ _____    ______ ____
ROOT
ATOM      1  C   UNL     1       2.964   6.141  19.485  0.00  0.00    +0.000 A 
ATOM      2  C   UNL     1       2.057   7.163  19.162  0.00  0.00    +0.000 A 
ATOM      3  C   UNL     1       2.283   7.985  18.080  0.00  0.00    +0.000 A 
ATOM      4  C   UNL     1       3.433   7.802  17.342  0.00  0.00    +0.000 A 
ATOM      5  C   UNL     1       4.376   6.804  17.681  0.00  0.00    +0.000 A 
ATOM      6  N   UNL     1       4.102   5.961  18.733  0.00  0.00    +0.000 N 
ATOM      7  C   UNL     1       4.959   4.788  19.029  0.00  0.00    +0.000 C 
ENDROOT
BRANCH   1   8
ATOM      8  C   UNL     1       2.650   5.296  20.705  0.00  0.00    +0.000 C 
BRANCH   8   9
ATOM      9  C   UNL     1       1.280   4.623  20.562  0.00  0.00    +0.000 C 
BRANCH   9  10
ATOM     10  C   UNL     1       1.296   3.203  21.126  0.00  0.00    +0.000 C 
BRANCH  10  11
ATOM     11  C   UNL     1       2.718   2.643  21.179  0.00  0.00    +0.000 C 
BRANCH  11  12
ATOM     12  C   UNL     1       3.138   2.078  19.821  0.00  0.00    +0.000 C 
BRANCH  12  14
ATOM     13  C   UNL     1       2.403   2.611  17.474  0.00  0.00    +0.000 C 
ATOM     14  C   UNL     1       1.974   2.076  18.832  0.00  0.00    +0.000 C 
ENDBRANCH  12  14
ENDBRANCH  11  12
ENDBRANCH  10  11
ENDBRANCH   9  10
ENDBRANCH   8   9
ENDBRANCH   1   8
BRANCH   5  15
ATOM     15  C   UNL     1       5.619   6.707  16.811  0.00  0.00    +0.000 C 
BRANCH  15  16
ATOM     16  C   UNL     1       5.390   6.098  15.417  0.00  0.00    +0.000 C 
BRANCH  16  17
ATOM     17  C   UNL     1       5.978   4.694  15.222  0.00  0.00    +0.000 C 
BRANCH  17  18
ATOM     18  C   UNL     1       5.372   4.056  13.967  0.00  0.00    +0.000 C 
BRANCH  18  19
ATOM     19  C   UNL     1       6.422   3.656  12.932  0.00  0.00    +0.000 C 
BRANCH  19  20
ATOM     20  C   UNL     1       5.780   2.847  11.801  0.00  0.00    +0.000 C 
ATOM     21  C   UNL     1       4.341   3.265  11.552  0.00  0.00    +0.000 C 
ENDBRANCH  19  20
ENDBRANCH  18  19
ENDBRANCH  17  18
ENDBRANCH  16  17
ENDBRANCH  15  16
ENDBRANCH   5  15
TORSDOF 12
ENDMDL
MODEL 9
REMARK VINA RESULT:      -5.9      3.207      5.911
REMARK  Name = 
REMARK  15 active torsions:
REMARK  status: ('A' for Active; 'I' for Inactive)
REMARK    1  A    between atoms: C_1  and  C_2
REMARK    2  A    between atoms: C_2  and  C_3
REMARK    3  A    between atoms: C_3  and  C_4
REMARK    4  A    between atoms: C_4  and  C_5
REMARK    5  A    between atoms: C_5  and  C_6
REMARK    6  A    between atoms: C_6  and  C_7
REMARK    7  A    between atoms: C_7  and  C_8
REMARK    8  A    between atoms: C_12  and  C_13
REMARK    9  A    between atoms: C_13  and  C_14
REMARK   10  A    between atoms: C_14  and  C_15
REMARK   11  A    between atoms: C_15  and  C_16
REMARK   12  A    between atoms: C_16  and  C_17
REMARK   13  A    between atoms: C_17  and  C_18
REMARK   14  A    between atoms: C_18  and  C_19
REMARK   15  A    between atoms: N_20  and  C_21
REMARK                            x       y       z     vdW  Elec       q    Type
REMARK                         _______ _______ _______ _____ _____    ______ ____
ROOT
ATOM      1  C   UNL     1       6.720   5.659  17.135  0.00  0.00    +0.000 A 
ATOM      2  C   UNL     1       7.165   5.451  15.820  0.00  0.00    +0.000 A 
ATOM      3  C   UNL     1       6.404   4.727  14.928  0.00  0.00    +0.000 A 
ATOM      4  C   UNL     1       5.214   4.186  15.365  0.00  0.00    +0.000 A 
ATOM      5  C   UNL     1       4.774   4.351  16.699  0.00  0.00    +0.000 A 
ATOM      6  N   UNL     1       5.525   5.123  17.556  0.00  0.00    +0.000 N 
ATOM      7  C   UNL     1       5.033   5.480  18.908  0.00  0.00    +0.000 C 
ENDROOT
BRANCH   1   8
ATOM      8  C   UNL     1       7.630   6.449  18.058  0.00  0.00    +0.000 C 
BRANCH   8   9
ATOM      9  C   UNL     1       7.699   7.918  17.626  0.00  0.00    +0.000 C 
BRANCH   9  10
ATOM     10  C   UNL     1       8.638   8.719  18.526  0.00  0.00    +0.000 C 
BRANCH  10  11
ATOM     11  C   UNL     1       8.510  10.220  18.266  0.00  0.00    +0.000 C 
BRANCH  11  12
ATOM     12  C   UNL     1       9.884  10.865  18.081  0.00  0.00    +0.000 C 
BRANCH  12  14
ATOM     13  C   UNL     1       9.542  11.220  20.549  0.00  0.00    +0.000 C 
ATOM     14  C   UNL     1      10.289  11.681  19.307  0.00  0.00    +0.000 C 
ENDBRANCH  12  14
ENDBRANCH  11  12
ENDBRANCH  10  11
ENDBRANCH   9  10
ENDBRANCH   8   9
ENDBRANCH   1   8
BRANCH   5  15
ATOM     15  C   UNL     1       3.457   3.692  17.078  0.00  0.00    +0.000 C 
BRANCH  15  16
ATOM     16  C   UNL     1       3.581   2.254  17.611  0.00  0.00    +0.000 C 
BRANCH  16  17
ATOM     17  C   UNL     1       2.977   2.027  19.002  0.00  0.00    +0.000 C 
BRANCH  17  18
ATOM     18  C   UNL     1       1.455   2.196  18.932  0.00  0.00    +0.000 C 
BRANCH  18  19
ATOM     19  C   UNL     1       0.974   3.532  19.495  0.00  0.00    +0.000 C 
BRANCH  19  20
ATOM     20  C   UNL     1       1.591   3.788  20.873  0.00  0.00    +0.000 C 
ATOM     21  C   UNL     1       1.369   2.619  21.818  0.00  0.00    +0.000 C 
ENDBRANCH  19  20
ENDBRANCH  18  19
ENDBRANCH  17  18
ENDBRANCH  16  17
ENDBRANCH  15  16
ENDBRANCH   5  15
TORSDOF 12
ENDMDL
