MODEL 1
REMARK VINA RESULT:      -6.9      0.000      0.000
REMARK  Name = 
REMARK  4 active torsions:
REMARK  status: ('A' for Active; 'I' for Inactive)
REMARK    1  A    between atoms: C_1  and  C_2
REMARK    2  A    between atoms: C_4  and  C_5
REMARK    3  A    between atoms: C_4  and  C_6
REMARK    4  A    between atoms: C_11  and  N_12
REMARK                            x       y       z     vdW  Elec       q    Type
REMARK                         _______ _______ _______ _____ _____    ______ ____
ROOT
ATOM      1  C   UNL     1       3.965   1.947  17.883  0.00  0.00    +0.000 C 
ATOM      2  C   UNL     1       4.259   3.127  18.818  0.00  0.00    +0.000 C 
ATOM      3  C   UNL     1       3.151   3.327  19.862  0.00  0.00    +0.000 C 
ATOM      4  C   UNL     1       2.019   4.253  19.379  0.00  0.00    +0.000 C 
ATOM      5  C   UNL     1       1.233   3.719  18.169  0.00  0.00    +0.000 C 
ATOM      6  C   UNL     1       1.019   4.447  20.533  0.00  0.00    +0.000 C 
ATOM      7  N   UNL     1       2.611   5.554  19.051  0.00  0.00    +0.000 N 
ATOM      8  C   UNL     1       3.720   5.541  18.193  0.00  0.00    +0.000 A 
ATOM      9  C   UNL     1       4.077   6.722  17.527  0.00  0.00    +0.000 A 
ATOM     10  C   UNL     1       5.205   6.768  16.699  0.00  0.00    +0.000 A 
ATOM     11  C   UNL     1       6.025   5.646  16.542  0.00  0.00    +0.000 A 
ATOM     12  C   UNL     1       5.694   4.480  17.244  0.00  0.00    +0.000 A 
ATOM     13  C   UNL     1       4.554   4.413  18.069  0.00  0.00    +0.000 A 
ATOM     14  H   UNL     1       1.933   6.278  18.823  0.00  0.00    +0.000 HD
ENDROOT
BRANCH  11  15
ATOM     15  N   UNL     1       7.157   5.615  15.752  0.00  0.00    +0.000 NA
ATOM     16  O   UNL     1       7.834   4.581  15.861  0.00  0.00    +0.000 OA
ENDBRANCH  11  15
TORSDOF 1
ENDMDL
MODEL 2
REMARK VINA RESULT:      -6.9      2.882      5.062
REMARK  Name = 
REMARK  4 active torsions:
REMARK  status: ('A' for Active; 'I' for Inactive)
REMARK    1  A    between atoms: C_1  and  C_2
REMARK    2  A    between atoms: C_4  and  C_5
REMARK    3  A    between atoms: C_4  and  C_6
REMARK    4  A    between atoms: C_11  and  N_12
REMARK                            x       y       z     vdW  Elec       q    Type
REMARK                         _______ _______ _______ _____ _____    ______ ____
ROOT
ATOM      1  C   UNL     1       5.166   5.055  15.351  0.00  0.00    +0.000 C 
ATOM      2  C   UNL     1       4.791   5.589  16.740  0.00  0.00    +0.000 C 
ATOM      3  C   UNL     1       5.933   6.393  17.377  0.00  0.00    +0.000 C 
ATOM      4  C   UNL     1       6.906   5.526  18.196  0.00  0.00    +0.000 C 
ATOM      5  C   UNL     1       7.670   4.475  17.371  0.00  0.00    +0.000 C 
ATOM      6  C   UNL     1       7.949   6.447  18.854  0.00  0.00    +0.000 C 
ATOM      7  N   UNL     1       6.137   4.861  19.253  0.00  0.00    +0.000 N 
ATOM      8  C   UNL     1       4.983   4.172  18.852  0.00  0.00    +0.000 A 
ATOM      9  C   UNL     1       4.439   3.204  19.707  0.00  0.00    +0.000 A 
ATOM     10  C   UNL     1       3.261   2.526  19.371  0.00  0.00    +0.000 A 
ATOM     11  C   UNL     1       2.578   2.822  18.186  0.00  0.00    +0.000 A 
ATOM     12  C   UNL     1       3.098   3.822  17.354  0.00  0.00    +0.000 A 
ATOM     13  C   UNL     1       4.290   4.503  17.672  0.00  0.00    +0.000 A 
ATOM     14  H   UNL     1       6.702   4.345  19.923  0.00  0.00    +0.000 HD
ENDROOT
BRANCH  11  15
ATOM     15  N   UNL     1       1.409   2.206  17.789  0.00  0.00    +0.000 NA
ATOM     16  O   UNL     1       0.450   2.372  18.559  0.00  0.00    +0.000 OA
ENDBRANCH  11  15
TORSDOF 1
ENDMDL
MODEL 3
REMARK VINA RESULT:      -6.8      1.305      1.449
REMARK  Name = 
REMARK  4 active torsions:
REMARK  status: ('A' for Active; 'I' for Inactive)
REMARK    1  A    between atoms: C_1  and  C_2
REMARK    2  A    between atoms: C_4  and  C_5
REMARK    3  A    between atoms: C_4  and  C_6
REMARK    4  A    between atoms: C_11  and  N_12
REMARK                            x       y       z     vdW  Elec       q    Type
REMARK                         _______ _______ _______ _____ _____    ______ ____
ROOT
ATOM      1  C   UNL     1       3.512   1.992  17.559  0.00  0.00    +0.000 C 
ATOM      2  C   UNL     1       4.067   2.922  18.646  0.00  0.00    +0.000 C 
ATOM      3  C   UNL     1       3.474   2.613  20.028  0.00  0.00    +0.000 C 
ATOM      4  C   UNL     1       2.172   3.380  20.319  0.00  0.00    +0.000 C 
ATOM      5  C   UNL     1       1.005   3.032  19.379  0.00  0.00    +0.000 C 
ATOM      6  C   UNL     1       1.724   3.059  21.755  0.00  0.00    +0.000 C 
ATOM      7  N   UNL     1       2.466   4.815  20.232  0.00  0.00    +0.000 N 
ATOM      8  C   UNL     1       3.121   5.253  19.071  0.00  0.00    +0.000 A 
ATOM      9  C   UNL     1       3.073   6.613  18.737  0.00  0.00    +0.000 A 
ATOM     10  C   UNL     1       3.751   7.103  17.615  0.00  0.00    +0.000 A 
ATOM     11  C   UNL     1       4.524   6.253  16.817  0.00  0.00    +0.000 A 
ATOM     12  C   UNL     1       4.608   4.902  17.178  0.00  0.00    +0.000 A 
ATOM     13  C   UNL     1       3.920   4.391  18.296  0.00  0.00    +0.000 A 
ATOM     14  H   UNL     1       1.698   5.419  20.514  0.00  0.00    +0.000 HD
ENDROOT
BRANCH  11  15
ATOM     15  N   UNL     1       5.228   6.661  15.702  0.00  0.00    +0.000 NA
ATOM     16  O   UNL     1       6.162   5.910  15.379  0.00  0.00    +0.000 OA
ENDBRANCH  11  15
TORSDOF 1
ENDMDL
MODEL 4
REMARK VINA RESULT:      -6.7      2.248      3.200
REMARK  Name = 
REMARK  4 active torsions:
REMARK  status: ('A' for Active; 'I' for Inactive)
REMARK    1  A    between atoms: C_1  and  C_2
REMARK    2  A    between atoms: C_4  and  C_5
REMARK    3  A    between atoms: C_4  and  C_6
REMARK    4  A    between atoms: C_11  and  N_12
REMARK                            x       y       z     vdW  Elec       q    Type
REMARK                         _______ _______ _______ _____ _____    ______ ____
ROOT
ATOM      1  C   UNL     1       2.782   6.575  17.950  0.00  0.00    +0.000 C 
ATOM      2  C   UNL     1       3.730   5.547  17.318  0.00  0.00    +0.000 C 
ATOM      3  C   UNL     1       3.267   4.105  17.571  0.00  0.00    +0.000 C 
ATOM      4  C   UNL     1       3.817   3.508  18.879  0.00  0.00    +0.000 C 
ATOM      5  C   UNL     1       3.346   4.229  20.154  0.00  0.00    +0.000 C 
ATOM      6  C   UNL     1       3.362   2.042  18.979  0.00  0.00    +0.000 C 
ATOM      7  N   UNL     1       5.282   3.538  18.807  0.00  0.00    +0.000 N 
ATOM      8  C   UNL     1       5.869   4.765  18.466  0.00  0.00    +0.000 A 
ATOM      9  C   UNL     1       7.222   4.976  18.766  0.00  0.00    +0.000 A 
ATOM     10  C   UNL     1       7.863   6.166  18.402  0.00  0.00    +0.000 A 
ATOM     11  C   UNL     1       7.178   7.163  17.698  0.00  0.00    +0.000 A 
ATOM     12  C   UNL     1       5.838   6.932  17.359  0.00  0.00    +0.000 A 
ATOM     13  C   UNL     1       5.175   5.745  17.732  0.00  0.00    +0.000 A 
ATOM     14  H   UNL     1       5.750   3.066  19.577  0.00  0.00    +0.000 HD
ENDROOT
BRANCH  11  15
ATOM     15  N   UNL     1       7.741   8.357  17.296  0.00  0.00    +0.000 NA
ATOM     16  O   UNL     1       8.288   9.002  18.204  0.00  0.00    +0.000 OA
ENDBRANCH  11  15
TORSDOF 1
ENDMDL
MODEL 5
REMARK VINA RESULT:      -6.7      1.442      2.052
REMARK  Name = 
REMARK  4 active torsions:
REMARK  status: ('A' for Active; 'I' for Inactive)
REMARK    1  A    between atoms: C_1  and  C_2
REMARK    2  A    between atoms: C_4  and  C_5
REMARK    3  A    between atoms: C_4  and  C_6
REMARK    4  A    between atoms: C_11  and  N_12
REMARK                            x       y       z     vdW  Elec       q    Type
REMARK                         _______ _______ _______ _____ _____    ______ ____
ROOT
ATOM      1  C   UNL     1       1.404   4.376  17.385  0.00  0.00    +0.000 C 
ATOM      2  C   UNL     1       2.540   3.459  17.855  0.00  0.00    +0.000 C 
ATOM      3  C   UNL     1       2.198   2.744  19.170  0.00  0.00    +0.000 C 
ATOM      4  C   UNL     1       2.597   3.546  20.422  0.00  0.00    +0.000 C 
ATOM      5  C   UNL     1       1.861   4.887  20.580  0.00  0.00    +0.000 C 
ATOM      6  C   UNL     1       2.288   2.697  21.668  0.00  0.00    +0.000 C 
ATOM      7  N   UNL     1       4.044   3.779  20.365  0.00  0.00    +0.000 N 
ATOM      8  C   UNL     1       4.545   4.324  19.173  0.00  0.00    +0.000 A 
ATOM      9  C   UNL     1       5.806   4.937  19.185  0.00  0.00    +0.000 A 
ATOM     10  C   UNL     1       6.367   5.452  18.010  0.00  0.00    +0.000 A 
ATOM     11  C   UNL     1       5.699   5.337  16.787  0.00  0.00    +0.000 A 
ATOM     12  C   UNL     1       4.460   4.683  16.768  0.00  0.00    +0.000 A 
ATOM     13  C   UNL     1       3.875   4.173  17.944  0.00  0.00    +0.000 A 
ATOM     14  H   UNL     1       4.434   4.209  21.200  0.00  0.00    +0.000 HD
ENDROOT
BRANCH  11  15
ATOM     15  N   UNL     1       6.189   5.809  15.586  0.00  0.00    +0.000 NA
ATOM     16  O   UNL     1       7.427   5.853  15.515  0.00  0.00    +0.000 OA
ENDBRANCH  11  15
TORSDOF 1
ENDMDL
MODEL 6
REMARK VINA RESULT:      -6.6      1.861      2.890
REMARK  Name = 
REMARK  4 active torsions:
REMARK  status: ('A' for Active; 'I' for Inactive)
REMARK    1  A    between atoms: C_1  and  C_2
REMARK    2  A    between atoms: C_4  and  C_5
REMARK    3  A    between atoms: C_4  and  C_6
REMARK    4  A    between atoms: C_11  and  N_12
REMARK                            x       y       z     vdW  Elec       q    Type
REMARK                         _______ _______ _______ _____ _____    ______ ____
ROOT
ATOM      1  C   UNL     1       2.472   7.349  18.693  0.00  0.00    +0.000 C 
ATOM      2  C   UNL     1       2.869   6.209  17.746  0.00  0.00    +0.000 C 
ATOM      3  C   UNL     1       2.022   4.949  17.973  0.00  0.00    +0.000 C 
ATOM      4  C   UNL     1       2.609   4.002  19.035  0.00  0.00    +0.000 C 
ATOM      5  C   UNL     1       2.686   4.602  20.450  0.00  0.00    +0.000 C 
ATOM      6  C   UNL     1       1.728   2.743  19.111  0.00  0.00    +0.000 C 
ATOM      7  N   UNL     1       3.951   3.606  18.592  0.00  0.00    +0.000 N 
ATOM      8  C   UNL     1       4.823   4.642  18.229  0.00  0.00    +0.000 A 
ATOM      9  C   UNL     1       6.201   4.386  18.189  0.00  0.00    +0.000 A 
ATOM     10  C   UNL     1       7.106   5.376  17.786  0.00  0.00    +0.000 A 
ATOM     11  C   UNL     1       6.654   6.636  17.378  0.00  0.00    +0.000 A 
ATOM     12  C   UNL     1       5.274   6.875  17.374  0.00  0.00    +0.000 A 
ATOM     13  C   UNL     1       4.352   5.895  17.791  0.00  0.00    +0.000 A 
ATOM     14  H   UNL     1       4.390   2.892  19.169  0.00  0.00    +0.000 HD
ENDROOT
BRANCH  11  15
ATOM     15  N   UNL     1       7.481   7.659  16.958  0.00  0.00    +0.000 NA
ATOM     16  O   UNL     1       7.990   8.321  17.876  0.00  0.00    +0.000 OA
ENDBRANCH  11  15
TORSDOF 1
ENDMDL
MODEL 7
REMARK VINA RESULT:      -6.6      0.976      1.012
REMARK  Name = 
REMARK  4 active torsions:
REMARK  status: ('A' for Active; 'I' for Inactive)
REMARK    1  A    between atoms: C_1  and  C_2
REMARK    2  A    between atoms: C_4  and  C_5
REMARK    3  A    between atoms: C_4  and  C_6
REMARK    4  A    between atoms: C_11  and  N_12
REMARK                            x       y       z     vdW  Elec       q    Type
REMARK                         _______ _______ _______ _____ _____    ______ ____
ROOT
ATOM      1  C   UNL     1       2.891   2.125  17.360  0.00  0.00    +0.000 C 
ATOM      2  C   UNL     1       3.927   2.784  18.280  0.00  0.00    +0.000 C 
ATOM      3  C   UNL     1       3.451   2.840  19.738  0.00  0.00    +0.000 C 
ATOM      4  C   UNL     1       2.646   4.110  20.069  0.00  0.00    +0.000 C 
ATOM      5  C   UNL     1       1.326   4.247  19.290  0.00  0.00    +0.000 C 
ATOM      6  C   UNL     1       2.301   4.096  21.568  0.00  0.00    +0.000 C 
ATOM      7  N   UNL     1       3.503   5.269  19.798  0.00  0.00    +0.000 N 
ATOM      8  C   UNL     1       4.119   5.314  18.539  0.00  0.00    +0.000 A 
ATOM      9  C   UNL     1       4.606   6.541  18.064  0.00  0.00    +0.000 A 
ATOM     10  C   UNL     1       5.270   6.625  16.836  0.00  0.00    +0.000 A 
ATOM     11  C   UNL     1       5.497   5.480  16.064  0.00  0.00    +0.000 A 
ATOM     12  C   UNL     1       5.051   4.248  16.560  0.00  0.00    +0.000 A 
ATOM     13  C   UNL     1       4.368   4.149  17.788  0.00  0.00    +0.000 A 
ATOM     14  H   UNL     1       3.108   6.161  20.086  0.00  0.00    +0.000 HD
ENDROOT
BRANCH  11  15
ATOM     15  N   UNL     1       6.151   5.479  14.848  0.00  0.00    +0.000 NA
ATOM     16  O   UNL     1       7.390   5.466  14.929  0.00  0.00    +0.000 OA
ENDBRANCH  11  15
TORSDOF 1
ENDMDL
MODEL 8
REMARK VINA RESULT:      -6.6      1.535      2.613
REMARK  Name = 
REMARK  4 active torsions:
REMARK  status: ('A' for Active; 'I' for Inactive)
REMARK    1  A    between atoms: C_1  and  C_2
REMARK    2  A    between atoms: C_4  and  C_5
REMARK    3  A    between atoms: C_4  and  C_6
REMARK    4  A    between atoms: C_11  and  N_12
REMARK                            x       y       z     vdW  Elec       q    Type
REMARK                         _______ _______ _______ _____ _____    ______ ____
ROOT
ATOM      1  C   UNL     1       2.559   6.245  19.923  0.00  0.00    +0.000 C 
ATOM      2  C   UNL     1       2.318   5.680  18.516  0.00  0.00    +0.000 C 
ATOM      3  C   UNL     1       1.346   4.492  18.531  0.00  0.00    +0.000 C 
ATOM      4  C   UNL     1       2.045   3.135  18.738  0.00  0.00    +0.000 C 
ATOM      5  C   UNL     1       2.759   2.988  20.092  0.00  0.00    +0.000 C 
ATOM      6  C   UNL     1       0.988   2.020  18.646  0.00  0.00    +0.000 C 
ATOM      7  N   UNL     1       3.009   2.955  17.647  0.00  0.00    +0.000 N 
ATOM      8  C   UNL     1       3.904   4.011  17.419  0.00  0.00    +0.000 A 
ATOM      9  C   UNL     1       5.078   3.761  16.695  0.00  0.00    +0.000 A 
ATOM     10  C   UNL     1       5.977   4.793  16.402  0.00  0.00    +0.000 A 
ATOM     11  C   UNL     1       5.708   6.109  16.794  0.00  0.00    +0.000 A 
ATOM     12  C   UNL     1       4.512   6.366  17.476  0.00  0.00    +0.000 A 
ATOM     13  C   UNL     1       3.605   5.335  17.792  0.00  0.00    +0.000 A 
ATOM     14  H   UNL     1       3.452   2.039  17.625  0.00  0.00    +0.000 HD
ENDROOT
BRANCH  11  15
ATOM     15  N   UNL     1       6.537   7.182  16.534  0.00  0.00    +0.000 NA
ATOM     16  O   UNL     1       7.745   6.900  16.480  0.00  0.00    +0.000 OA
ENDBRANCH  11  15
TORSDOF 1
ENDMDL
MODEL 9
REMARK VINA RESULT:      -6.5      3.349      3.986
REMARK  Name = 
REMARK  4 active torsions:
REMARK  status: ('A' for Active; 'I' for Inactive)
REMARK    1  A    between atoms: C_1  and  C_2
REMARK    2  A    between atoms: C_4  and  C_5
REMARK    3  A    between atoms: C_4  and  C_6
REMARK    4  A    between atoms: C_11  and  N_12
REMARK                            x       y       z     vdW  Elec       q    Type
REMARK                         _______ _______ _______ _____ _____    ______ ____
ROOT
ATOM      1  C   UNL     1       2.204   3.953  17.293  0.00  0.00    +0.000 C 
ATOM      2  C   UNL     1       3.068   4.536  18.420  0.00  0.00    +0.000 C 
ATOM      3  C   UNL     1       3.251   3.545  19.578  0.00  0.00    +0.000 C 
ATOM      4  C   UNL     1       2.147   3.646  20.647  0.00  0.00    +0.000 C 
ATOM      5  C   UNL     1       0.738   3.296  20.139  0.00  0.00    +0.000 C 
ATOM      6  C   UNL     1       2.483   2.675  21.792  0.00  0.00    +0.000 C 
ATOM      7  N   UNL     1       2.157   5.014  21.177  0.00  0.00    +0.000 N 
ATOM      8  C   UNL     1       2.115   6.053  20.235  0.00  0.00    +0.000 A 
ATOM      9  C   UNL     1       1.721   7.332  20.653  0.00  0.00    +0.000 A 
ATOM     10  C   UNL     1       1.709   8.409  19.759  0.00  0.00    +0.000 A 
ATOM     11  C   UNL     1       2.125   8.245  18.434  0.00  0.00    +0.000 A 
ATOM     12  C   UNL     1       2.562   6.977  18.029  0.00  0.00    +0.000 A 
ATOM     13  C   UNL     1       2.565   5.879  18.913  0.00  0.00    +0.000 A 
ATOM     14  H   UNL     1       1.536   5.162  21.969  0.00  0.00    +0.000 HD
ENDROOT
BRANCH  11  15
ATOM     15  N   UNL     1       2.152   9.258  17.496  0.00  0.00    +0.000 NA
ATOM     16  O   UNL     1       2.064  10.402  17.970  0.00  0.00    +0.000 OA
ENDBRANCH  11  15
TORSDOF 1
ENDMDL
