MODEL 1
REMARK VINA RESULT:      -7.4      0.000      0.000
REMARK  Name = 
REMARK  9 active torsions:
REMARK  status: ('A' for Active; 'I' for Inactive)
REMARK    1  A    between atoms: C_1  and  C_2
REMARK    2  A    between atoms: C_2  and  C_3
REMARK    3  A    between atoms: C_2  and  C_4
REMARK    4  A    between atoms: C_4  and  C_5
REMARK    5  A    between atoms: C_5  and  C_6
REMARK    6  A    between atoms: C_6  and  O_7
REMARK    7  A    between atoms: N_14  and  C_15
REMARK    8  A    between atoms: C_18  and  O_19
REMARK    9  A    between atoms: O_19  and  C_20
REMARK                            x       y       z     vdW  Elec       q    Type
REMARK                         _______ _______ _______ _____ _____    ______ ____
ROOT
ATOM      1  C   UNL     1       1.984   3.766  19.834  0.00  0.00    +0.000 C 
ATOM      2  C   UNL     1       2.164   3.392  21.326  0.00  0.00    +0.000 C 
ATOM      3  C   UNL     1       3.290   2.377  21.358  0.00  0.00    +0.000 C 
ATOM      4  C   UNL     1       4.172   2.770  20.188  0.00  0.00    +0.000 C 
ATOM      5  N   UNL     1       3.358   3.589  19.290  0.00  0.00    +0.000 N 
ATOM      6  C   UNL     1       3.752   4.019  18.025  0.00  0.00    +0.000 C 
ATOM      7  O   UNL     1       3.010   4.665  17.291  0.00  0.00    +0.000 OA
ATOM      8  N   UNL     1       5.032   3.640  17.683  0.00  0.00    +0.000 N 
ATOM      9  H   UNL     1       5.408   2.851  18.180  0.00  0.00    +0.000 HD
ENDROOT
BRANCH   8  10
ATOM     10  C   UNL     1       5.767   4.032  16.546  0.00  0.00    +0.000 A 
ATOM     11  C   UNL     1       5.598   3.503  15.274  0.00  0.00    +0.000 A 
ATOM     12  C   UNL     1       6.380   3.984  14.216  0.00  0.00    +0.000 A 
ATOM     13  C   UNL     1       7.329   4.967  14.468  0.00  0.00    +0.000 A 
ATOM     14  N   UNL     1       7.488   5.518  15.686  0.00  0.00    +0.000 NA
ATOM     15  C   UNL     1       6.704   5.053  16.684  0.00  0.00    +0.000 A 
BRANCH  13  16
ATOM     16  O   UNL     1       8.159   5.505  13.529  0.00  0.00    +0.000 OA
BRANCH  16  17
ATOM     17  C   UNL     1       7.559   5.651  12.264  0.00  0.00    +0.000 C 
ATOM     18  F   UNL     1       8.238   6.606  11.581  0.00  0.00    +0.000 F 
ATOM     19  F   UNL     1       7.741   4.489  11.587  0.00  0.00    +0.000 F 
ENDBRANCH  16  17
ENDBRANCH  13  16
ENDBRANCH   8  10
BRANCH   1  20
ATOM     20  C   UNL     1       1.328   5.181  19.708  0.00  0.00    +0.000 C 
BRANCH  20  22
ATOM     21  C   UNL     1       2.482   7.361  18.982  0.00  0.00    +0.000 C 
ATOM     22  C   UNL     1       2.112   6.442  20.142  0.00  0.00    +0.000 C 
ATOM     23  C   UNL     1       1.285   7.236  21.164  0.00  0.00    +0.000 C 
ENDBRANCH  20  22
ENDBRANCH   1  20
BRANCH   1  24
ATOM     24  C   UNL     1       1.024   2.765  19.114  0.00  0.00    +0.000 C 
BRANCH  24  25
ATOM     25  O   UNL     1       0.582   3.239  17.841  0.00  0.00    +0.000 OA
ATOM     26  H   UNL     1      -0.325   3.559  17.984  0.00  0.00    +0.000 HD
ENDBRANCH  24  25
ENDBRANCH   1  24
TORSDOF 7
ENDMDL
MODEL 2
REMARK VINA RESULT:      -7.0      5.597      8.317
REMARK  Name = 
REMARK  9 active torsions:
REMARK  status: ('A' for Active; 'I' for Inactive)
REMARK    1  A    between atoms: C_1  and  C_2
REMARK    2  A    between atoms: C_2  and  C_3
REMARK    3  A    between atoms: C_2  and  C_4
REMARK    4  A    between atoms: C_4  and  C_5
REMARK    5  A    between atoms: C_5  and  C_6
REMARK    6  A    between atoms: C_6  and  O_7
REMARK    7  A    between atoms: N_14  and  C_15
REMARK    8  A    between atoms: C_18  and  O_19
REMARK    9  A    between atoms: O_19  and  C_20
REMARK                            x       y       z     vdW  Elec       q    Type
REMARK                         _______ _______ _______ _____ _____    ______ ____
ROOT
ATOM      1  C   UNL     1       3.436   4.210  18.658  0.00  0.00    +0.000 C 
ATOM      2  C   UNL     1       2.797   2.800  18.707  0.00  0.00    +0.000 C 
ATOM      3  C   UNL     1       2.076   2.726  20.039  0.00  0.00    +0.000 C 
ATOM      4  C   UNL     1       1.651   4.157  20.307  0.00  0.00    +0.000 C 
ATOM      5  N   UNL     1       2.492   5.019  19.476  0.00  0.00    +0.000 N 
ATOM      6  C   UNL     1       2.523   6.409  19.546  0.00  0.00    +0.000 C 
ATOM      7  O   UNL     1       3.283   7.085  18.858  0.00  0.00    +0.000 OA
ATOM      8  N   UNL     1       1.638   6.941  20.459  0.00  0.00    +0.000 N 
ATOM      9  H   UNL     1       1.331   6.322  21.190  0.00  0.00    +0.000 HD
ENDROOT
BRANCH   8  10
ATOM     10  C   UNL     1       1.329   8.300  20.664  0.00  0.00    +0.000 A 
ATOM     11  C   UNL     1       1.064   9.212  19.650  0.00  0.00    +0.000 A 
ATOM     12  C   UNL     1       0.754  10.538  19.978  0.00  0.00    +0.000 A 
ATOM     13  C   UNL     1       0.741  10.920  21.314  0.00  0.00    +0.000 A 
ATOM     14  N   UNL     1       0.963  10.047  22.314  0.00  0.00    +0.000 NA
ATOM     15  C   UNL     1       1.235   8.768  21.972  0.00  0.00    +0.000 A 
BRANCH  13  16
ATOM     16  O   UNL     1       0.470  12.181  21.759  0.00  0.00    +0.000 OA
BRANCH  16  17
ATOM     17  C   UNL     1      -0.731  12.274  22.487  0.00  0.00    +0.000 C 
ATOM     18  F   UNL     1      -0.931  13.577  22.808  0.00  0.00    +0.000 F 
ATOM     19  F   UNL     1      -1.743  11.923  21.655  0.00  0.00    +0.000 F 
ENDBRANCH  16  17
ENDBRANCH  13  16
ENDBRANCH   8  10
BRANCH   1  20
ATOM     20  C   UNL     1       3.671   4.645  17.174  0.00  0.00    +0.000 C 
BRANCH  20  22
ATOM     21  C   UNL     1       5.647   3.908  15.706  0.00  0.00    +0.000 C 
ATOM     22  C   UNL     1       5.101   4.954  16.672  0.00  0.00    +0.000 C 
ATOM     23  C   UNL     1       5.119   6.328  15.986  0.00  0.00    +0.000 C 
ENDBRANCH  20  22
ENDBRANCH   1  20
BRANCH   1  24
ATOM     24  C   UNL     1       4.837   4.217  19.351  0.00  0.00    +0.000 C 
BRANCH  24  25
ATOM     25  O   UNL     1       5.390   2.908  19.494  0.00  0.00    +0.000 OA
ATOM     26  H   UNL     1       4.806   2.322  18.983  0.00  0.00    +0.000 HD
ENDBRANCH  24  25
ENDBRANCH   1  24
TORSDOF 7
ENDMDL
MODEL 3
REMARK VINA RESULT:      -6.9      3.999      5.618
REMARK  Name = 
REMARK  9 active torsions:
REMARK  status: ('A' for Active; 'I' for Inactive)
REMARK    1  A    between atoms: C_1  and  C_2
REMARK    2  A    between atoms: C_2  and  C_3
REMARK    3  A    between atoms: C_2  and  C_4
REMARK    4  A    between atoms: C_4  and  C_5
REMARK    5  A    between atoms: C_5  and  C_6
REMARK    6  A    between atoms: C_6  and  O_7
REMARK    7  A    between atoms: N_14  and  C_15
REMARK    8  A    between atoms: C_18  and  O_19
REMARK    9  A    between atoms: O_19  and  C_20
REMARK                            x       y       z     vdW  Elec       q    Type
REMARK                         _______ _______ _______ _____ _____    ______ ____
ROOT
ATOM      1  C   UNL     1       0.556  10.499  19.540  0.00  0.00    +0.000 C 
ATOM      2  C   UNL     1       0.376  10.966  21.006  0.00  0.00    +0.000 C 
ATOM      3  C   UNL     1       0.279   9.696  21.828  0.00  0.00    +0.000 C 
ATOM      4  C   UNL     1       1.133   8.699  21.067  0.00  0.00    +0.000 C 
ATOM      5  N   UNL     1       1.269   9.203  19.700  0.00  0.00    +0.000 N 
ATOM      6  C   UNL     1       1.848   8.502  18.646  0.00  0.00    +0.000 C 
ATOM      7  O   UNL     1       1.895   8.951  17.505  0.00  0.00    +0.000 OA
ATOM      8  N   UNL     1       2.346   7.267  19.005  0.00  0.00    +0.000 N 
ATOM      9  H   UNL     1       1.960   6.861  19.841  0.00  0.00    +0.000 HD
ENDROOT
BRANCH   8  10
ATOM     10  C   UNL     1       3.108   6.385  18.213  0.00  0.00    +0.000 A 
ATOM     11  C   UNL     1       2.800   5.048  17.999  0.00  0.00    +0.000 A 
ATOM     12  C   UNL     1       3.628   4.272  17.178  0.00  0.00    +0.000 A 
ATOM     13  C   UNL     1       4.756   4.853  16.612  0.00  0.00    +0.000 A 
ATOM     14  N   UNL     1       5.057   6.154  16.779  0.00  0.00    +0.000 NA
ATOM     15  C   UNL     1       4.228   6.887  17.556  0.00  0.00    +0.000 A 
BRANCH  13  16
ATOM     16  O   UNL     1       5.646   4.201  15.810  0.00  0.00    +0.000 OA
BRANCH  16  17
ATOM     17  C   UNL     1       6.906   4.823  15.744  0.00  0.00    +0.000 C 
ATOM     18  F   UNL     1       7.727   4.213  16.636  0.00  0.00    +0.000 F 
ATOM     19  F   UNL     1       7.422   4.575  14.513  0.00  0.00    +0.000 F 
ENDBRANCH  16  17
ENDBRANCH  13  16
ENDBRANCH   8  10
BRANCH   1  20
ATOM     20  C   UNL     1       1.259  11.617  18.700  0.00  0.00    +0.000 C 
BRANCH  20  22
ATOM     21  C   UNL     1       2.532  13.844  18.864  0.00  0.00    +0.000 C 
ATOM     22  C   UNL     1       1.254  13.081  19.198  0.00  0.00    +0.000 C 
ATOM     23  C   UNL     1       0.055  13.826  18.592  0.00  0.00    +0.000 C 
ENDBRANCH  20  22
ENDBRANCH   1  20
BRANCH   1  24
ATOM     24  C   UNL     1      -0.826  10.235  18.859  0.00  0.00    +0.000 C 
BRANCH  24  25
ATOM     25  O   UNL     1      -0.786  10.405  17.442  0.00  0.00    +0.000 OA
ATOM     26  H   UNL     1       0.022  10.916  17.265  0.00  0.00    +0.000 HD
ENDBRANCH  24  25
ENDBRANCH   1  24
TORSDOF 7
ENDMDL
MODEL 4
REMARK VINA RESULT:      -6.8      5.117      7.829
REMARK  Name = 
REMARK  9 active torsions:
REMARK  status: ('A' for Active; 'I' for Inactive)
REMARK    1  A    between atoms: C_1  and  C_2
REMARK    2  A    between atoms: C_2  and  C_3
REMARK    3  A    between atoms: C_2  and  C_4
REMARK    4  A    between atoms: C_4  and  C_5
REMARK    5  A    between atoms: C_5  and  C_6
REMARK    6  A    between atoms: C_6  and  O_7
REMARK    7  A    between atoms: N_14  and  C_15
REMARK    8  A    between atoms: C_18  and  O_19
REMARK    9  A    between atoms: O_19  and  C_20
REMARK                            x       y       z     vdW  Elec       q    Type
REMARK                         _______ _______ _______ _____ _____    ______ ____
ROOT
ATOM      1  C   UNL     1       3.290   3.929  18.831  0.00  0.00    +0.000 C 
ATOM      2  C   UNL     1       2.583   2.554  18.919  0.00  0.00    +0.000 C 
ATOM      3  C   UNL     1       1.847   2.558  20.245  0.00  0.00    +0.000 C 
ATOM      4  C   UNL     1       1.490   4.016  20.462  0.00  0.00    +0.000 C 
ATOM      5  N   UNL     1       2.379   4.809  19.612  0.00  0.00    +0.000 N 
ATOM      6  C   UNL     1       2.476   6.197  19.637  0.00  0.00    +0.000 C 
ATOM      7  O   UNL     1       3.274   6.813  18.936  0.00  0.00    +0.000 OA
ATOM      8  N   UNL     1       1.610   6.801  20.523  0.00  0.00    +0.000 N 
ATOM      9  H   UNL     1       1.267   6.221  21.270  0.00  0.00    +0.000 HD
ENDROOT
BRANCH   8  10
ATOM     10  C   UNL     1       1.365   8.179  20.680  0.00  0.00    +0.000 A 
ATOM     11  C   UNL     1       1.099   9.059  19.639  0.00  0.00    +0.000 A 
ATOM     12  C   UNL     1       0.856  10.409  19.920  0.00  0.00    +0.000 A 
ATOM     13  C   UNL     1       0.910  10.846  21.239  0.00  0.00    +0.000 A 
ATOM     14  N   UNL     1       1.134  10.007  22.267  0.00  0.00    +0.000 NA
ATOM     15  C   UNL     1       1.341   8.704  21.970  0.00  0.00    +0.000 A 
BRANCH  13  16
ATOM     16  O   UNL     1       0.709  12.135  21.639  0.00  0.00    +0.000 OA
BRANCH  16  17
ATOM     17  C   UNL     1       1.028  13.087  20.652  0.00  0.00    +0.000 C 
ATOM     18  F   UNL     1       0.423  14.256  20.981  0.00  0.00    +0.000 F 
ATOM     19  F   UNL     1       2.365  13.312  20.719  0.00  0.00    +0.000 F 
ENDBRANCH  16  17
ENDBRANCH  13  16
ENDBRANCH   8  10
BRANCH   1  20
ATOM     20  C   UNL     1       3.559   4.303  17.336  0.00  0.00    +0.000 C 
BRANCH  20  22
ATOM     21  C   UNL     1       5.553   3.681  15.838  0.00  0.00    +0.000 C 
ATOM     22  C   UNL     1       4.991   4.655  16.868  0.00  0.00    +0.000 C 
ATOM     23  C   UNL     1       5.005   6.072  16.277  0.00  0.00    +0.000 C 
ENDBRANCH  20  22
ENDBRANCH   1  20
BRANCH   1  24
ATOM     24  C   UNL     1       4.683   3.891  19.538  0.00  0.00    +0.000 C 
BRANCH  24  25
ATOM     25  O   UNL     1       5.217   2.570  19.641  0.00  0.00    +0.000 OA
ATOM     26  H   UNL     1       5.215   2.363  20.591  0.00  0.00    +0.000 HD
ENDBRANCH  24  25
ENDBRANCH   1  24
TORSDOF 7
ENDMDL
MODEL 5
REMARK VINA RESULT:      -6.8      0.865      1.182
REMARK  Name = 
REMARK  9 active torsions:
REMARK  status: ('A' for Active; 'I' for Inactive)
REMARK    1  A    between atoms: C_1  and  C_2
REMARK    2  A    between atoms: C_2  and  C_3
REMARK    3  A    between atoms: C_2  and  C_4
REMARK    4  A    between atoms: C_4  and  C_5
REMARK    5  A    between atoms: C_5  and  C_6
REMARK    6  A    between atoms: C_6  and  O_7
REMARK    7  A    between atoms: N_14  and  C_15
REMARK    8  A    between atoms: C_18  and  O_19
REMARK    9  A    between atoms: O_19  and  C_20
REMARK                            x       y       z     vdW  Elec       q    Type
REMARK                         _______ _______ _______ _____ _____    ______ ____
ROOT
ATOM      1  C   UNL     1       2.307   4.569  20.504  0.00  0.00    +0.000 C 
ATOM      2  C   UNL     1       2.376   3.710  21.790  0.00  0.00    +0.000 C 
ATOM      3  C   UNL     1       2.854   2.343  21.342  0.00  0.00    +0.000 C 
ATOM      4  C   UNL     1       3.737   2.638  20.144  0.00  0.00    +0.000 C 
ATOM      5  N   UNL     1       3.377   3.970  19.660  0.00  0.00    +0.000 N 
ATOM      6  C   UNL     1       3.848   4.545  18.483  0.00  0.00    +0.000 C 
ATOM      7  O   UNL     1       3.476   5.649  18.096  0.00  0.00    +0.000 OA
ATOM      8  N   UNL     1       4.750   3.757  17.800  0.00  0.00    +0.000 N 
ATOM      9  H   UNL     1       4.719   2.772  18.003  0.00  0.00    +0.000 HD
ENDROOT
BRANCH   8  10
ATOM     10  C   UNL     1       5.508   4.106  16.665  0.00  0.00    +0.000 A 
ATOM     11  C   UNL     1       5.066   3.990  15.353  0.00  0.00    +0.000 A 
ATOM     12  C   UNL     1       5.906   4.384  14.304  0.00  0.00    +0.000 A 
ATOM     13  C   UNL     1       7.177   4.863  14.598  0.00  0.00    +0.000 A 
ATOM     14  N   UNL     1       7.615   5.014  15.862  0.00  0.00    +0.000 NA
ATOM     15  C   UNL     1       6.775   4.650  16.856  0.00  0.00    +0.000 A 
BRANCH  13  16
ATOM     16  O   UNL     1       8.092   5.262  13.668  0.00  0.00    +0.000 OA
BRANCH  16  17
ATOM     17  C   UNL     1       7.541   5.464  12.388  0.00  0.00    +0.000 C 
ATOM     18  F   UNL     1       8.251   6.442  11.771  0.00  0.00    +0.000 F 
ATOM     19  F   UNL     1       7.744   4.329  11.671  0.00  0.00    +0.000 F 
ENDBRANCH  16  17
ENDBRANCH  13  16
ENDBRANCH   8  10
BRANCH   1  20
ATOM     20  C   UNL     1       2.429   6.087  20.862  0.00  0.00    +0.000 C 
BRANCH  20  22
ATOM     21  C   UNL     1       0.730   7.906  21.505  0.00  0.00    +0.000 C 
ATOM     22  C   UNL     1       1.352   7.088  20.379  0.00  0.00    +0.000 C 
ATOM     23  C   UNL     1       1.966   8.044  19.345  0.00  0.00    +0.000 C 
ENDBRANCH  20  22
ENDBRANCH   1  20
BRANCH   1  24
ATOM     24  C   UNL     1       0.934   4.391  19.780  0.00  0.00    +0.000 C 
BRANCH  24  25
ATOM     25  O   UNL     1       0.273   3.176  20.138  0.00  0.00    +0.000 OA
ATOM     26  H   UNL     1       0.697   2.885  20.964  0.00  0.00    +0.000 HD
ENDBRANCH  24  25
ENDBRANCH   1  24
TORSDOF 7
ENDMDL
MODEL 6
REMARK VINA RESULT:      -6.7      3.710      5.317
REMARK  Name = 
REMARK  9 active torsions:
REMARK  status: ('A' for Active; 'I' for Inactive)
REMARK    1  A    between atoms: C_1  and  C_2
REMARK    2  A    between atoms: C_2  and  C_3
REMARK    3  A    between atoms: C_2  and  C_4
REMARK    4  A    between atoms: C_4  and  C_5
REMARK    5  A    between atoms: C_5  and  C_6
REMARK    6  A    between atoms: C_6  and  O_7
REMARK    7  A    between atoms: N_14  and  C_15
REMARK    8  A    between atoms: C_18  and  O_19
REMARK    9  A    between atoms: O_19  and  C_20
REMARK                            x       y       z     vdW  Elec       q    Type
REMARK                         _______ _______ _______ _____ _____    ______ ____
ROOT
ATOM      1  C   UNL     1       0.686  10.126  19.452  0.00  0.00    +0.000 C 
ATOM      2  C   UNL     1       0.395  10.504  20.926  0.00  0.00    +0.000 C 
ATOM      3  C   UNL     1       0.347   9.190  21.681  0.00  0.00    +0.000 C 
ATOM      4  C   UNL     1       1.310   8.296  20.924  0.00  0.00    +0.000 C 
ATOM      5  N   UNL     1       1.482   8.876  19.592  0.00  0.00    +0.000 N 
ATOM      6  C   UNL     1       2.166   8.272  18.541  0.00  0.00    +0.000 C 
ATOM      7  O   UNL     1       2.241   8.781  17.426  0.00  0.00    +0.000 OA
ATOM      8  N   UNL     1       2.732   7.059  18.870  0.00  0.00    +0.000 N 
ATOM      9  H   UNL     1       2.333   6.585  19.662  0.00  0.00    +0.000 HD
ENDROOT
BRANCH   8  10
ATOM     10  C   UNL     1       3.598   6.274  18.082  0.00  0.00    +0.000 A 
ATOM     11  C   UNL     1       4.840   6.688  17.621  0.00  0.00    +0.000 A 
ATOM     12  C   UNL     1       5.621   5.812  16.856  0.00  0.00    +0.000 A 
ATOM     13  C   UNL     1       5.122   4.551  16.553  0.00  0.00    +0.000 A 
ATOM     14  N   UNL     1       3.935   4.116  17.016  0.00  0.00    +0.000 NA
ATOM     15  C   UNL     1       3.214   4.972  17.772  0.00  0.00    +0.000 A 
BRANCH  13  16
ATOM     16  O   UNL     1       5.777   3.615  15.806  0.00  0.00    +0.000 OA
BRANCH  16  17
ATOM     17  C   UNL     1       5.982   4.006  14.469  0.00  0.00    +0.000 C 
ATOM     18  F   UNL     1       5.046   4.935  14.151  0.00  0.00    +0.000 F 
ATOM     19  F   UNL     1       7.184   4.632  14.406  0.00  0.00    +0.000 F 
ENDBRANCH  16  17
ENDBRANCH  13  16
ENDBRANCH   8  10
BRANCH   1  20
ATOM     20  C   UNL     1       1.350  11.331  18.707  0.00  0.00    +0.000 C 
BRANCH  20  22
ATOM     21  C   UNL     1       2.432  13.622  19.140  0.00  0.00    +0.000 C 
ATOM     22  C   UNL     1       1.171  12.771  19.245  0.00  0.00    +0.000 C 
ATOM     23  C   UNL     1       0.033  13.466  18.483  0.00  0.00    +0.000 C 
ENDBRANCH  20  22
ENDBRANCH   1  20
BRANCH   1  24
ATOM     24  C   UNL     1      -0.634   9.800  18.683  0.00  0.00    +0.000 C 
BRANCH  24  25
ATOM     25  O   UNL     1      -0.562  10.129  17.295  0.00  0.00    +0.000 OA
ATOM     26  H   UNL     1       0.387  10.178  17.089  0.00  0.00    +0.000 HD
ENDBRANCH  24  25
ENDBRANCH   1  24
TORSDOF 7
ENDMDL
MODEL 7
REMARK VINA RESULT:      -6.6      4.760      7.285
REMARK  Name = 
REMARK  9 active torsions:
REMARK  status: ('A' for Active; 'I' for Inactive)
REMARK    1  A    between atoms: C_1  and  C_2
REMARK    2  A    between atoms: C_2  and  C_3
REMARK    3  A    between atoms: C_2  and  C_4
REMARK    4  A    between atoms: C_4  and  C_5
REMARK    5  A    between atoms: C_5  and  C_6
REMARK    6  A    between atoms: C_6  and  O_7
REMARK    7  A    between atoms: N_14  and  C_15
REMARK    8  A    between atoms: C_18  and  O_19
REMARK    9  A    between atoms: O_19  and  C_20
REMARK                            x       y       z     vdW  Elec       q    Type
REMARK                         _______ _______ _______ _____ _____    ______ ____
ROOT
ATOM      1  C   UNL     1       4.221   3.791  18.016  0.00  0.00    +0.000 C 
ATOM      2  C   UNL     1       3.545   2.521  17.442  0.00  0.00    +0.000 C 
ATOM      3  C   UNL     1       2.123   2.543  17.969  0.00  0.00    +0.000 C 
ATOM      4  C   UNL     1       1.803   4.020  18.098  0.00  0.00    +0.000 C 
ATOM      5  N   UNL     1       3.078   4.736  18.136  0.00  0.00    +0.000 N 
ATOM      6  C   UNL     1       3.221   6.095  18.404  0.00  0.00    +0.000 C 
ATOM      7  O   UNL     1       4.320   6.639  18.472  0.00  0.00    +0.000 OA
ATOM      8  N   UNL     1       2.026   6.754  18.595  0.00  0.00    +0.000 N 
ATOM      9  H   UNL     1       1.242   6.181  18.860  0.00  0.00    +0.000 HD
ENDROOT
BRANCH   8  10
ATOM     10  C   UNL     1       1.824   8.141  18.742  0.00  0.00    +0.000 A 
ATOM     11  C   UNL     1       2.063   9.083  17.750  0.00  0.00    +0.000 A 
ATOM     12  C   UNL     1       1.810  10.436  18.008  0.00  0.00    +0.000 A 
ATOM     13  C   UNL     1       1.347  10.811  19.264  0.00  0.00    +0.000 A 
ATOM     14  N   UNL     1       1.078   9.913  20.229  0.00  0.00    +0.000 NA
ATOM     15  C   UNL     1       1.307   8.611  19.946  0.00  0.00    +0.000 A 
BRANCH  13  16
ATOM     16  O   UNL     1       1.080  12.094  19.642  0.00  0.00    +0.000 OA
BRANCH  16  17
ATOM     17  C   UNL     1       2.128  12.992  19.367  0.00  0.00    +0.000 C 
ATOM     18  F   UNL     1       1.584  14.166  18.957  0.00  0.00    +0.000 F 
ATOM     19  F   UNL     1       2.763  13.250  20.539  0.00  0.00    +0.000 F 
ENDBRANCH  16  17
ENDBRANCH  13  16
ENDBRANCH   8  10
BRANCH   1  20
ATOM     20  C   UNL     1       5.425   4.216  17.112  0.00  0.00    +0.000 C 
BRANCH  20  22
ATOM     21  C   UNL     1       5.366   6.106  15.370  0.00  0.00    +0.000 C 
ATOM     22  C   UNL     1       5.186   4.615  15.637  0.00  0.00    +0.000 C 
ATOM     23  C   UNL     1       6.142   3.825  14.730  0.00  0.00    +0.000 C 
ENDBRANCH  20  22
ENDBRANCH   1  20
BRANCH   1  24
ATOM     24  C   UNL     1       4.806   3.523  19.440  0.00  0.00    +0.000 C 
BRANCH  24  25
ATOM     25  O   UNL     1       5.080   2.141  19.675  0.00  0.00    +0.000 OA
ATOM     26  H   UNL     1       5.485   2.103  20.558  0.00  0.00    +0.000 HD
ENDBRANCH  24  25
ENDBRANCH   1  24
TORSDOF 7
ENDMDL
MODEL 8
REMARK VINA RESULT:      -6.6      5.313      7.999
REMARK  Name = 
REMARK  9 active torsions:
REMARK  status: ('A' for Active; 'I' for Inactive)
REMARK    1  A    between atoms: C_1  and  C_2
REMARK    2  A    between atoms: C_2  and  C_3
REMARK    3  A    between atoms: C_2  and  C_4
REMARK    4  A    between atoms: C_4  and  C_5
REMARK    5  A    between atoms: C_5  and  C_6
REMARK    6  A    between atoms: C_6  and  O_7
REMARK    7  A    between atoms: N_14  and  C_15
REMARK    8  A    between atoms: C_18  and  O_19
REMARK    9  A    between atoms: O_19  and  C_20
REMARK                            x       y       z     vdW  Elec       q    Type
REMARK                         _______ _______ _______ _____ _____    ______ ____
ROOT
ATOM      1  C   UNL     1       3.936   3.650  18.466  0.00  0.00    +0.000 C 
ATOM      2  C   UNL     1       3.268   2.508  17.661  0.00  0.00    +0.000 C 
ATOM      3  C   UNL     1       1.837   2.441  18.160  0.00  0.00    +0.000 C 
ATOM      4  C   UNL     1       1.517   3.871  18.550  0.00  0.00    +0.000 C 
ATOM      5  N   UNL     1       2.792   4.563  18.738  0.00  0.00    +0.000 N 
ATOM      6  C   UNL     1       2.933   5.850  19.251  0.00  0.00    +0.000 C 
ATOM      7  O   UNL     1       4.032   6.367  19.434  0.00  0.00    +0.000 OA
ATOM      8  N   UNL     1       1.736   6.469  19.539  0.00  0.00    +0.000 N 
ATOM      9  H   UNL     1       0.948   5.861  19.683  0.00  0.00    +0.000 HD
ENDROOT
BRANCH   8  10
ATOM     10  C   UNL     1       1.534   7.807  19.932  0.00  0.00    +0.000 A 
ATOM     11  C   UNL     1       1.450   8.883  19.058  0.00  0.00    +0.000 A 
ATOM     12  C   UNL     1       1.232  10.170  19.565  0.00  0.00    +0.000 A 
ATOM     13  C   UNL     1       1.129  10.346  20.940  0.00  0.00    +0.000 A 
ATOM     14  N   UNL     1       1.175   9.315  21.804  0.00  0.00    +0.000 NA
ATOM     15  C   UNL     1       1.362   8.081  21.286  0.00  0.00    +0.000 A 
BRANCH  13  16
ATOM     16  O   UNL     1       0.933  11.548  21.556  0.00  0.00    +0.000 OA
BRANCH  16  17
ATOM     17  C   UNL     1      -0.425  11.863  21.755  0.00  0.00    +0.000 C 
ATOM     18  F   UNL     1      -0.728  11.625  23.056  0.00  0.00    +0.000 F 
ATOM     19  F   UNL     1      -0.566  13.200  21.565  0.00  0.00    +0.000 F 
ENDBRANCH  16  17
ENDBRANCH  13  16
ENDBRANCH   8  10
BRANCH   1  20
ATOM     20  C   UNL     1       5.155   4.227  17.675  0.00  0.00    +0.000 C 
BRANCH  20  22
ATOM     21  C   UNL     1       5.110   6.192  16.018  0.00  0.00    +0.000 C 
ATOM     22  C   UNL     1       4.983   4.684  16.207  0.00  0.00    +0.000 C 
ATOM     23  C   UNL     1       6.023   3.980  15.323  0.00  0.00    +0.000 C 
ENDBRANCH  20  22
ENDBRANCH   1  20
BRANCH   1  24
ATOM     24  C   UNL     1       4.497   3.125  19.828  0.00  0.00    +0.000 C 
BRANCH  24  25
ATOM     25  O   UNL     1       5.009   1.795  19.739  0.00  0.00    +0.000 OA
ATOM     26  H   UNL     1       5.799   1.783  20.306  0.00  0.00    +0.000 HD
ENDBRANCH  24  25
ENDBRANCH   1  24
TORSDOF 7
ENDMDL
MODEL 9
REMARK VINA RESULT:      -6.6      4.794      7.341
REMARK  Name = 
REMARK  9 active torsions:
REMARK  status: ('A' for Active; 'I' for Inactive)
REMARK    1  A    between atoms: C_1  and  C_2
REMARK    2  A    between atoms: C_2  and  C_3
REMARK    3  A    between atoms: C_2  and  C_4
REMARK    4  A    between atoms: C_4  and  C_5
REMARK    5  A    between atoms: C_5  and  C_6
REMARK    6  A    between atoms: C_6  and  O_7
REMARK    7  A    between atoms: N_14  and  C_15
REMARK    8  A    between atoms: C_18  and  O_19
REMARK    9  A    between atoms: O_19  and  C_20
REMARK                            x       y       z     vdW  Elec       q    Type
REMARK                         _______ _______ _______ _____ _____    ______ ____
ROOT
ATOM      1  C   UNL     1       4.201   3.772  18.055  0.00  0.00    +0.000 C 
ATOM      2  C   UNL     1       3.529   2.508  17.465  0.00  0.00    +0.000 C 
ATOM      3  C   UNL     1       2.101   2.529  17.976  0.00  0.00    +0.000 C 
ATOM      4  C   UNL     1       1.783   4.006  18.112  0.00  0.00    +0.000 C 
ATOM      5  N   UNL     1       3.058   4.719  18.170  0.00  0.00    +0.000 N 
ATOM      6  C   UNL     1       3.202   6.076  18.449  0.00  0.00    +0.000 C 
ATOM      7  O   UNL     1       4.300   6.617  18.533  0.00  0.00    +0.000 OA
ATOM      8  N   UNL     1       2.005   6.736  18.631  0.00  0.00    +0.000 N 
ATOM      9  H   UNL     1       1.218   6.163  18.883  0.00  0.00    +0.000 HD
ENDROOT
BRANCH   8  10
ATOM     10  C   UNL     1       1.805   8.122  18.785  0.00  0.00    +0.000 A 
ATOM     11  C   UNL     1       2.038   9.069  17.796  0.00  0.00    +0.000 A 
ATOM     12  C   UNL     1       1.787  10.421  18.061  0.00  0.00    +0.000 A 
ATOM     13  C   UNL     1       1.332  10.790  19.322  0.00  0.00    +0.000 A 
ATOM     14  N   UNL     1       1.070   9.888  20.285  0.00  0.00    +0.000 NA
ATOM     15  C   UNL     1       1.296   8.588  19.994  0.00  0.00    +0.000 A 
BRANCH  13  16
ATOM     16  O   UNL     1       1.068  12.072  19.707  0.00  0.00    +0.000 OA
BRANCH  16  17
ATOM     17  C   UNL     1      -0.178  12.549  19.257  0.00  0.00    +0.000 C 
ATOM     18  F   UNL     1      -0.001  13.104  18.031  0.00  0.00    +0.000 F 
ATOM     19  F   UNL     1      -0.988  11.475  19.081  0.00  0.00    +0.000 F 
ENDBRANCH  16  17
ENDBRANCH  13  16
ENDBRANCH   8  10
BRANCH   1  20
ATOM     20  C   UNL     1       5.416   4.202  17.168  0.00  0.00    +0.000 C 
BRANCH  20  22
ATOM     21  C   UNL     1       5.334   6.057  15.391  0.00  0.00    +0.000 C 
ATOM     22  C   UNL     1       5.201   4.566  15.680  0.00  0.00    +0.000 C 
ATOM     23  C   UNL     1       6.209   3.796  14.813  0.00  0.00    +0.000 C 
ENDBRANCH  20  22
ENDBRANCH   1  20
BRANCH   1  24
ATOM     24  C   UNL     1       4.769   3.493  19.484  0.00  0.00    +0.000 C 
BRANCH  24  25
ATOM     25  O   UNL     1       5.110   2.121  19.686  0.00  0.00    +0.000 OA
ATOM     26  H   UNL     1       5.895   1.965  19.132  0.00  0.00    +0.000 HD
ENDBRANCH  24  25
ENDBRANCH   1  24
TORSDOF 7
ENDMDL
