MODEL 1
REMARK VINA RESULT:      -7.9      0.000      0.000
REMARK  Name = 
REMARK  10 active torsions:
REMARK  status: ('A' for Active; 'I' for Inactive)
REMARK    1  A    between atoms: C_1  and  C_2
REMARK    2  A    between atoms: C_6  and  C_7
REMARK    3  A    between atoms: C_8  and  N_9
REMARK    4  A    between atoms: N_9  and  S_10
REMARK    5  A    between atoms: S_10  and  C_13
REMARK    6  A    between atoms: C_16  and  C_17
REMARK    7  A    between atoms: C_17  and  C_18
REMARK    8  A    between atoms: C_18  and  C_19
REMARK    9  A    between atoms: C_18  and  C_20
REMARK   10  A    between atoms: C_23  and  O_24
REMARK                            x       y       z     vdW  Elec       q    Type
REMARK                         _______ _______ _______ _____ _____    ______ ____
ROOT
ATOM      1  N   UNL     1       4.508   3.088  17.814  0.00  0.00    +0.000 N 
ATOM      2  H   UNL     1       4.831   2.135  17.642  0.00  0.00    +0.000 HD
ENDROOT
BRANCH   1  10
ATOM      3  C   UNL     1       8.790   8.795  18.593  0.00  0.00    +0.000 C 
ATOM      4  C   UNL     1       7.979   7.664  18.113  0.00  0.00    +0.000 A 
ATOM      5  N   UNL     1       7.748   7.420  16.788  0.00  0.00    +0.000 NA
ATOM      6  C   UNL     1       6.986   6.348  16.804  0.00  0.00    +0.000 A 
ATOM      7  N   UNL     1       6.470   5.647  15.757  0.00  0.00    +0.000 NA
ATOM      8  C   UNL     1       5.692   4.640  16.045  0.00  0.00    +0.000 A 
ATOM      9  C   UNL     1       5.186   3.892  14.821  0.00  0.00    +0.000 C 
ATOM     10  C   UNL     1       5.303   4.220  17.459  0.00  0.00    +0.000 A 
ATOM     11  C   UNL     1       5.936   4.892  18.456  0.00  0.00    +0.000 A 
ATOM     12  N   UNL     1       6.757   5.965  18.118  0.00  0.00    +0.000 N 
ATOM     13  N   UNL     1       7.410   6.806  18.958  0.00  0.00    +0.000 NA
BRANCH  11  14
ATOM     14  O   UNL     1       5.884   4.580  19.800  0.00  0.00    +0.000 OA
ATOM     15  H   UNL     1       5.662   3.642  19.949  0.00  0.00    +0.000 HD
ENDBRANCH  11  14
ENDBRANCH   1  10
BRANCH   1  16
ATOM     16  S   UNL     1       2.818   3.226  17.899  0.00  0.00    +0.000 S 
ATOM     17  O   UNL     1       2.366   3.352  16.521  0.00  0.00    +0.000 OA
ATOM     18  O   UNL     1       2.306   2.169  18.741  0.00  0.00    +0.000 OA
BRANCH  16  19
ATOM     19  C   UNL     1       2.509   4.771  18.688  0.00  0.00    +0.000 A 
ATOM     20  C   UNL     1       2.174   4.749  20.042  0.00  0.00    +0.000 A 
ATOM     21  C   UNL     1       1.930   5.940  20.704  0.00  0.00    +0.000 A 
ATOM     22  C   UNL     1       2.050   7.166  20.038  0.00  0.00    +0.000 A 
ATOM     23  C   UNL     1       2.443   7.182  18.690  0.00  0.00    +0.000 A 
ATOM     24  C   UNL     1       2.655   5.980  18.005  0.00  0.00    +0.000 A 
BRANCH  22  25
ATOM     25  C   UNL     1       1.702   8.458  20.752  0.00  0.00    +0.000 C 
BRANCH  25  26
ATOM     26  C   UNL     1       0.203   8.662  21.046  0.00  0.00    +0.000 C 
ATOM     27  C   UNL     1      -0.057   9.030  22.509  0.00  0.00    +0.000 C 
ATOM     28  C   UNL     1      -0.370   9.758  20.143  0.00  0.00    +0.000 C 
ENDBRANCH  25  26
ENDBRANCH  22  25
ENDBRANCH  16  19
ENDBRANCH   1  16
TORSDOF 6
ENDMDL
MODEL 2
REMARK VINA RESULT:      -7.8      1.376      1.889
REMARK  Name = 
REMARK  10 active torsions:
REMARK  status: ('A' for Active; 'I' for Inactive)
REMARK    1  A    between atoms: C_1  and  C_2
REMARK    2  A    between atoms: C_6  and  C_7
REMARK    3  A    between atoms: C_8  and  N_9
REMARK    4  A    between atoms: N_9  and  S_10
REMARK    5  A    between atoms: S_10  and  C_13
REMARK    6  A    between atoms: C_16  and  C_17
REMARK    7  A    between atoms: C_17  and  C_18
REMARK    8  A    between atoms: C_18  and  C_19
REMARK    9  A    between atoms: C_18  and  C_20
REMARK   10  A    between atoms: C_23  and  O_24
REMARK                            x       y       z     vdW  Elec       q    Type
REMARK                         _______ _______ _______ _____ _____    ______ ____
ROOT
ATOM      1  N   UNL     1       5.696   3.472  18.559  0.00  0.00    +0.000 N 
ATOM      2  H   UNL     1       6.236   2.609  18.481  0.00  0.00    +0.000 HD
ENDROOT
BRANCH   1  10
ATOM      3  C   UNL     1       9.061   9.810  18.445  0.00  0.00    +0.000 C 
ATOM      4  C   UNL     1       8.355   8.554  18.142  0.00  0.00    +0.000 A 
ATOM      5  N   UNL     1       7.866   8.252  16.901  0.00  0.00    +0.000 NA
ATOM      6  C   UNL     1       7.312   7.071  17.071  0.00  0.00    +0.000 A 
ATOM      7  N   UNL     1       6.688   6.278  16.157  0.00  0.00    +0.000 NA
ATOM      8  C   UNL     1       6.171   5.163  16.596  0.00  0.00    +0.000 A 
ATOM      9  C   UNL     1       5.523   4.322  15.507  0.00  0.00    +0.000 C 
ATOM     10  C   UNL     1       6.193   4.711  18.053  0.00  0.00    +0.000 A 
ATOM     11  C   UNL     1       6.923   5.494  18.890  0.00  0.00    +0.000 A 
ATOM     12  N   UNL     1       7.458   6.679  18.394  0.00  0.00    +0.000 N 
ATOM     13  N   UNL     1       8.144   7.631  19.077  0.00  0.00    +0.000 NA
BRANCH  11  14
ATOM     14  O   UNL     1       7.235   5.202  20.203  0.00  0.00    +0.000 OA
ATOM     15  H   UNL     1       6.456   5.274  20.788  0.00  0.00    +0.000 HD
ENDBRANCH  11  14
ENDBRANCH   1  10
BRANCH   1  16
ATOM     16  S   UNL     1       4.023   3.213  18.689  0.00  0.00    +0.000 S 
ATOM     17  O   UNL     1       3.592   2.769  17.371  0.00  0.00    +0.000 OA
ATOM     18  O   UNL     1       3.766   2.398  19.854  0.00  0.00    +0.000 OA
BRANCH  16  19
ATOM     19  C   UNL     1       3.318   4.807  18.954  0.00  0.00    +0.000 A 
ATOM     20  C   UNL     1       3.009   5.572  17.829  0.00  0.00    +0.000 A 
ATOM     21  C   UNL     1       2.447   6.827  17.991  0.00  0.00    +0.000 A 
ATOM     22  C   UNL     1       2.154   7.320  19.268  0.00  0.00    +0.000 A 
ATOM     23  C   UNL     1       2.416   6.520  20.392  0.00  0.00    +0.000 A 
ATOM     24  C   UNL     1       3.018   5.266  20.238  0.00  0.00    +0.000 A 
BRANCH  22  25
ATOM     25  C   UNL     1       1.613   8.726  19.436  0.00  0.00    +0.000 C 
BRANCH  25  26
ATOM     26  C   UNL     1       1.255   9.452  18.124  0.00  0.00    +0.000 C 
ATOM     27  C   UNL     1      -0.229   9.819  18.050  0.00  0.00    +0.000 C 
ATOM     28  C   UNL     1       2.095  10.724  17.976  0.00  0.00    +0.000 C 
ENDBRANCH  25  26
ENDBRANCH  22  25
ENDBRANCH  16  19
ENDBRANCH   1  16
TORSDOF 6
ENDMDL
MODEL 3
REMARK VINA RESULT:      -7.6      3.098      7.108
REMARK  Name = 
REMARK  10 active torsions:
REMARK  status: ('A' for Active; 'I' for Inactive)
REMARK    1  A    between atoms: C_1  and  C_2
REMARK    2  A    between atoms: C_6  and  C_7
REMARK    3  A    between atoms: C_8  and  N_9
REMARK    4  A    between atoms: N_9  and  S_10
REMARK    5  A    between atoms: S_10  and  C_13
REMARK    6  A    between atoms: C_16  and  C_17
REMARK    7  A    between atoms: C_17  and  C_18
REMARK    8  A    between atoms: C_18  and  C_19
REMARK    9  A    between atoms: C_18  and  C_20
REMARK   10  A    between atoms: C_23  and  O_24
REMARK                            x       y       z     vdW  Elec       q    Type
REMARK                         _______ _______ _______ _____ _____    ______ ____
ROOT
ATOM      1  N   UNL     1       3.493   4.784  18.780  0.00  0.00    +0.000 N 
ATOM      2  H   UNL     1       3.006   3.923  19.030  0.00  0.00    +0.000 HD
ENDROOT
BRANCH   1  10
ATOM      3  C   UNL     1      -0.134  10.102  21.954  0.00  0.00    +0.000 C 
ATOM      4  C   UNL     1       0.684   9.244  21.081  0.00  0.00    +0.000 A 
ATOM      5  N   UNL     1       1.157   9.650  19.865  0.00  0.00    +0.000 NA
ATOM      6  C   UNL     1       1.813   8.597  19.425  0.00  0.00    +0.000 A 
ATOM      7  N   UNL     1       2.510   8.444  18.266  0.00  0.00    +0.000 NA
ATOM      8  C   UNL     1       3.030   7.269  18.040  0.00  0.00    +0.000 A 
ATOM      9  C   UNL     1       3.819   7.193  16.741  0.00  0.00    +0.000 C 
ATOM     10  C   UNL     1       2.886   6.064  18.962  0.00  0.00    +0.000 A 
ATOM     11  C   UNL     1       2.273   6.314  20.148  0.00  0.00    +0.000 A 
ATOM     12  N   UNL     1       1.723   7.576  20.359  0.00  0.00    +0.000 N 
ATOM     13  N   UNL     1       1.008   8.001  21.432  0.00  0.00    +0.000 NA
BRANCH  11  14
ATOM     14  O   UNL     1       2.179   5.437  21.211  0.00  0.00    +0.000 OA
ATOM     15  H   UNL     1       1.266   5.120  21.344  0.00  0.00    +0.000 HD
ENDBRANCH  11  14
ENDBRANCH   1  10
BRANCH   1  16
ATOM     16  S   UNL     1       5.184   4.633  18.793  0.00  0.00    +0.000 S 
ATOM     17  O   UNL     1       5.688   5.910  19.277  0.00  0.00    +0.000 OA
ATOM     18  O   UNL     1       5.538   3.405  19.468  0.00  0.00    +0.000 OA
BRANCH  16  19
ATOM     19  C   UNL     1       5.659   4.498  17.101  0.00  0.00    +0.000 A 
ATOM     20  C   UNL     1       4.825   3.770  16.252  0.00  0.00    +0.000 A 
ATOM     21  C   UNL     1       5.156   3.644  14.913  0.00  0.00    +0.000 A 
ATOM     22  C   UNL     1       6.299   4.268  14.397  0.00  0.00    +0.000 A 
ATOM     23  C   UNL     1       7.102   5.047  15.247  0.00  0.00    +0.000 A 
ATOM     24  C   UNL     1       6.793   5.147  16.608  0.00  0.00    +0.000 A 
BRANCH  22  25
ATOM     25  C   UNL     1       6.693   4.057  12.949  0.00  0.00    +0.000 C 
BRANCH  25  26
ATOM     26  C   UNL     1       6.017   2.860  12.252  0.00  0.00    +0.000 C 
ATOM     27  C   UNL     1       4.735   3.263  11.519  0.00  0.00    +0.000 C 
ATOM     28  C   UNL     1       6.982   2.212  11.256  0.00  0.00    +0.000 C 
ENDBRANCH  25  26
ENDBRANCH  22  25
ENDBRANCH  16  19
ENDBRANCH   1  16
TORSDOF 6
ENDMDL
MODEL 4
REMARK VINA RESULT:      -7.5      3.354      7.572
REMARK  Name = 
REMARK  10 active torsions:
REMARK  status: ('A' for Active; 'I' for Inactive)
REMARK    1  A    between atoms: C_1  and  C_2
REMARK    2  A    between atoms: C_6  and  C_7
REMARK    3  A    between atoms: C_8  and  N_9
REMARK    4  A    between atoms: N_9  and  S_10
REMARK    5  A    between atoms: S_10  and  C_13
REMARK    6  A    between atoms: C_16  and  C_17
REMARK    7  A    between atoms: C_17  and  C_18
REMARK    8  A    between atoms: C_18  and  C_19
REMARK    9  A    between atoms: C_18  and  C_20
REMARK   10  A    between atoms: C_23  and  O_24
REMARK                            x       y       z     vdW  Elec       q    Type
REMARK                         _______ _______ _______ _____ _____    ______ ____
ROOT
ATOM      1  N   UNL     1       3.620   5.559  17.942  0.00  0.00    +0.000 N 
ATOM      2  H   UNL     1       3.261   4.641  17.678  0.00  0.00    +0.000 HD
ENDROOT
BRANCH   1  10
ATOM      3  C   UNL     1       0.185  11.415  20.271  0.00  0.00    +0.000 C 
ATOM      4  C   UNL     1       0.765  10.077  20.066  0.00  0.00    +0.000 A 
ATOM      5  N   UNL     1       0.705   9.085  21.005  0.00  0.00    +0.000 NA
ATOM      6  C   UNL     1       1.341   8.085  20.433  0.00  0.00    +0.000 A 
ATOM      7  N   UNL     1       1.566   6.829  20.908  0.00  0.00    +0.000 NA
ATOM      8  C   UNL     1       2.277   6.033  20.159  0.00  0.00    +0.000 A 
ATOM      9  C   UNL     1       2.454   4.641  20.746  0.00  0.00    +0.000 C 
ATOM     10  C   UNL     1       2.891   6.421  18.818  0.00  0.00    +0.000 A 
ATOM     11  C   UNL     1       2.539   7.649  18.355  0.00  0.00    +0.000 A 
ATOM     12  N   UNL     1       1.783   8.478  19.178  0.00  0.00    +0.000 N 
ATOM     13  N   UNL     1       1.397   9.757  18.939  0.00  0.00    +0.000 NA
BRANCH  11  14
ATOM     14  O   UNL     1       2.822   8.151  17.099  0.00  0.00    +0.000 OA
ATOM     15  H   UNL     1       2.078   8.668  16.737  0.00  0.00    +0.000 HD
ENDBRANCH  11  14
ENDBRANCH   1  10
BRANCH   1  16
ATOM     16  S   UNL     1       5.310   5.681  17.838  0.00  0.00    +0.000 S 
ATOM     17  O   UNL     1       5.602   7.107  17.845  0.00  0.00    +0.000 OA
ATOM     18  O   UNL     1       5.902   4.810  18.828  0.00  0.00    +0.000 OA
BRANCH  16  19
ATOM     19  C   UNL     1       5.730   5.075  16.238  0.00  0.00    +0.000 A 
ATOM     20  C   UNL     1       4.742   4.397  15.523  0.00  0.00    +0.000 A 
ATOM     21  C   UNL     1       5.026   3.910  14.259  0.00  0.00    +0.000 A 
ATOM     22  C   UNL     1       6.282   4.121  13.677  0.00  0.00    +0.000 A 
ATOM     23  C   UNL     1       7.253   4.854  14.379  0.00  0.00    +0.000 A 
ATOM     24  C   UNL     1       6.984   5.316  15.672  0.00  0.00    +0.000 A 
BRANCH  22  25
ATOM     25  C   UNL     1       6.607   3.515  12.326  0.00  0.00    +0.000 C 
BRANCH  25  26
ATOM     26  C   UNL     1       5.642   2.408  11.855  0.00  0.00    +0.000 C 
ATOM     27  C   UNL     1       4.444   2.970  11.087  0.00  0.00    +0.000 C 
ATOM     28  C   UNL     1       6.382   1.404  10.966  0.00  0.00    +0.000 C 
ENDBRANCH  25  26
ENDBRANCH  22  25
ENDBRANCH  16  19
ENDBRANCH   1  16
TORSDOF 6
ENDMDL
MODEL 5
REMARK VINA RESULT:      -7.4      3.516      7.658
REMARK  Name = 
REMARK  10 active torsions:
REMARK  status: ('A' for Active; 'I' for Inactive)
REMARK    1  A    between atoms: C_1  and  C_2
REMARK    2  A    between atoms: C_6  and  C_7
REMARK    3  A    between atoms: C_8  and  N_9
REMARK    4  A    between atoms: N_9  and  S_10
REMARK    5  A    between atoms: S_10  and  C_13
REMARK    6  A    between atoms: C_16  and  C_17
REMARK    7  A    between atoms: C_17  and  C_18
REMARK    8  A    between atoms: C_18  and  C_19
REMARK    9  A    between atoms: C_18  and  C_20
REMARK   10  A    between atoms: C_23  and  O_24
REMARK                            x       y       z     vdW  Elec       q    Type
REMARK                         _______ _______ _______ _____ _____    ______ ____
ROOT
ATOM      1  N   UNL     1       3.302   6.106  17.828  0.00  0.00    +0.000 N 
ATOM      2  H   UNL     1       2.852   5.297  17.397  0.00  0.00    +0.000 HD
ENDROOT
BRANCH   1  10
ATOM      3  C   UNL     1       0.072  11.753  20.858  0.00  0.00    +0.000 C 
ATOM      4  C   UNL     1       0.625  10.436  20.504  0.00  0.00    +0.000 A 
ATOM      5  N   UNL     1       0.610   9.366  21.354  0.00  0.00    +0.000 NA
ATOM      6  C   UNL     1       1.201   8.416  20.661  0.00  0.00    +0.000 A 
ATOM      7  N   UNL     1       1.441   7.123  21.010  0.00  0.00    +0.000 NA
ATOM      8  C   UNL     1       2.098   6.391  20.153  0.00  0.00    +0.000 A 
ATOM      9  C   UNL     1       2.295   4.952  20.606  0.00  0.00    +0.000 C 
ATOM     10  C   UNL     1       2.636   6.892  18.817  0.00  0.00    +0.000 A 
ATOM     11  C   UNL     1       2.269   8.157  18.484  0.00  0.00    +0.000 A 
ATOM     12  N   UNL     1       1.572   8.915  19.421  0.00  0.00    +0.000 N 
ATOM     13  N   UNL     1       1.186  10.212  19.317  0.00  0.00    +0.000 NA
BRANCH  11  14
ATOM     14  O   UNL     1       2.482   8.766  17.263  0.00  0.00    +0.000 OA
ATOM     15  H   UNL     1       3.367   9.175  17.208  0.00  0.00    +0.000 HD
ENDBRANCH  11  14
ENDBRANCH   1  10
BRANCH   1  16
ATOM     16  S   UNL     1       4.998   6.032  17.798  0.00  0.00    +0.000 S 
ATOM     17  O   UNL     1       5.449   7.412  17.692  0.00  0.00    +0.000 OA
ATOM     18  O   UNL     1       5.448   5.199  18.890  0.00  0.00    +0.000 OA
BRANCH  16  19
ATOM     19  C   UNL     1       5.410   5.236  16.281  0.00  0.00    +0.000 A 
ATOM     20  C   UNL     1       6.422   5.803  15.507  0.00  0.00    +0.000 A 
ATOM     21  C   UNL     1       6.783   5.207  14.311  0.00  0.00    +0.000 A 
ATOM     22  C   UNL     1       6.167   4.022  13.888  0.00  0.00    +0.000 A 
ATOM     23  C   UNL     1       5.189   3.426  14.701  0.00  0.00    +0.000 A 
ATOM     24  C   UNL     1       4.794   4.044  15.893  0.00  0.00    +0.000 A 
BRANCH  22  25
ATOM     25  C   UNL     1       6.514   3.422  12.540  0.00  0.00    +0.000 C 
BRANCH  25  26
ATOM     26  C   UNL     1       5.469   2.444  11.968  0.00  0.00    +0.000 C 
ATOM     27  C   UNL     1       4.355   3.166  11.205  0.00  0.00    +0.000 C 
ATOM     28  C   UNL     1       6.143   1.434  11.036  0.00  0.00    +0.000 C 
ENDBRANCH  25  26
ENDBRANCH  22  25
ENDBRANCH  16  19
ENDBRANCH   1  16
TORSDOF 6
ENDMDL
MODEL 6
REMARK VINA RESULT:      -7.4      3.951      7.025
REMARK  Name = 
REMARK  10 active torsions:
REMARK  status: ('A' for Active; 'I' for Inactive)
REMARK    1  A    between atoms: C_1  and  C_2
REMARK    2  A    between atoms: C_6  and  C_7
REMARK    3  A    between atoms: C_8  and  N_9
REMARK    4  A    between atoms: N_9  and  S_10
REMARK    5  A    between atoms: S_10  and  C_13
REMARK    6  A    between atoms: C_16  and  C_17
REMARK    7  A    between atoms: C_17  and  C_18
REMARK    8  A    between atoms: C_18  and  C_19
REMARK    9  A    between atoms: C_18  and  C_20
REMARK   10  A    between atoms: C_23  and  O_24
REMARK                            x       y       z     vdW  Elec       q    Type
REMARK                         _______ _______ _______ _____ _____    ______ ____
ROOT
ATOM      1  N   UNL     1       2.491   6.801  20.693  0.00  0.00    +0.000 N 
ATOM      2  H   UNL     1       3.466   6.911  20.976  0.00  0.00    +0.000 HD
ENDROOT
BRANCH   1  10
ATOM      3  C   UNL     1      -2.003  12.322  19.785  0.00  0.00    +0.000 C 
ATOM      4  C   UNL     1      -0.980  11.270  19.668  0.00  0.00    +0.000 A 
ATOM      5  N   UNL     1      -0.304  11.011  18.509  0.00  0.00    +0.000 NA
ATOM      6  C   UNL     1       0.488  10.012  18.834  0.00  0.00    +0.000 A 
ATOM      7  N   UNL     1       1.406   9.362  18.068  0.00  0.00    +0.000 NA
ATOM      8  C   UNL     1       2.032   8.358  18.619  0.00  0.00    +0.000 A 
ATOM      9  C   UNL     1       3.062   7.708  17.707  0.00  0.00    +0.000 C 
ATOM     10  C   UNL     1       1.783   7.853  20.036  0.00  0.00    +0.000 A 
ATOM     11  C   UNL     1       0.936   8.611  20.779  0.00  0.00    +0.000 A 
ATOM     12  N   UNL     1       0.280   9.673  20.163  0.00  0.00    +0.000 N 
ATOM     13  N   UNL     1      -0.656  10.496  20.701  0.00  0.00    +0.000 NA
BRANCH  11  14
ATOM     14  O   UNL     1       0.690   8.461  22.130  0.00  0.00    +0.000 OA
ATOM     15  H   UNL     1       0.586   9.321  22.580  0.00  0.00    +0.000 HD
ENDBRANCH  11  14
ENDBRANCH   1  10
BRANCH   1  16
ATOM     16  S   UNL     1       2.034   5.184  20.451  0.00  0.00    +0.000 S 
ATOM     17  O   UNL     1       2.489   4.467  21.633  0.00  0.00    +0.000 OA
ATOM     18  O   UNL     1       0.642   5.146  20.065  0.00  0.00    +0.000 OA
BRANCH  16  19
ATOM     19  C   UNL     1       3.007   4.616  19.096  0.00  0.00    +0.000 A 
ATOM     20  C   UNL     1       4.395   4.652  19.236  0.00  0.00    +0.000 A 
ATOM     21  C   UNL     1       5.197   4.209  18.199  0.00  0.00    +0.000 A 
ATOM     22  C   UNL     1       4.631   3.693  17.026  0.00  0.00    +0.000 A 
ATOM     23  C   UNL     1       3.233   3.607  16.916  0.00  0.00    +0.000 A 
ATOM     24  C   UNL     1       2.417   4.088  17.945  0.00  0.00    +0.000 A 
BRANCH  22  25
ATOM     25  C   UNL     1       5.519   3.286  15.867  0.00  0.00    +0.000 C 
BRANCH  25  26
ATOM     26  C   UNL     1       5.770   4.384  14.815  0.00  0.00    +0.000 C 
ATOM     27  C   UNL     1       7.033   5.195  15.112  0.00  0.00    +0.000 C 
ATOM     28  C   UNL     1       5.887   3.764  13.420  0.00  0.00    +0.000 C 
ENDBRANCH  25  26
ENDBRANCH  22  25
ENDBRANCH  16  19
ENDBRANCH   1  16
TORSDOF 6
ENDMDL
MODEL 7
REMARK VINA RESULT:      -7.4      0.932      1.184
REMARK  Name = 
REMARK  10 active torsions:
REMARK  status: ('A' for Active; 'I' for Inactive)
REMARK    1  A    between atoms: C_1  and  C_2
REMARK    2  A    between atoms: C_6  and  C_7
REMARK    3  A    between atoms: C_8  and  N_9
REMARK    4  A    between atoms: N_9  and  S_10
REMARK    5  A    between atoms: S_10  and  C_13
REMARK    6  A    between atoms: C_16  and  C_17
REMARK    7  A    between atoms: C_17  and  C_18
REMARK    8  A    between atoms: C_18  and  C_19
REMARK    9  A    between atoms: C_18  and  C_20
REMARK   10  A    between atoms: C_23  and  O_24
REMARK                            x       y       z     vdW  Elec       q    Type
REMARK                         _______ _______ _______ _____ _____    ______ ____
ROOT
ATOM      1  N   UNL     1       4.793   3.033  17.806  0.00  0.00    +0.000 N 
ATOM      2  H   UNL     1       5.118   2.128  17.463  0.00  0.00    +0.000 HD
ENDROOT
BRANCH   1  10
ATOM      3  C   UNL     1       8.682   9.003  18.667  0.00  0.00    +0.000 C 
ATOM      4  C   UNL     1       7.925   7.843  18.170  0.00  0.00    +0.000 A 
ATOM      5  N   UNL     1       7.615   7.663  16.851  0.00  0.00    +0.000 NA
ATOM      6  C   UNL     1       6.938   6.535  16.847  0.00  0.00    +0.000 A 
ATOM      7  N   UNL     1       6.400   5.861  15.794  0.00  0.00    +0.000 NA
ATOM      8  C   UNL     1       5.723   4.780  16.067  0.00  0.00    +0.000 A 
ATOM      9  C   UNL     1       5.184   4.071  14.834  0.00  0.00    +0.000 C 
ATOM     10  C   UNL     1       5.473   4.245  17.473  0.00  0.00    +0.000 A 
ATOM     11  C   UNL     1       6.126   4.902  18.466  0.00  0.00    +0.000 A 
ATOM     12  N   UNL     1       6.836   6.055  18.145  0.00  0.00    +0.000 N 
ATOM     13  N   UNL     1       7.486   6.893  18.993  0.00  0.00    +0.000 NA
BRANCH  11  14
ATOM     14  O   UNL     1       6.197   4.505  19.787  0.00  0.00    +0.000 OA
ATOM     15  H   UNL     1       7.097   4.219  20.034  0.00  0.00    +0.000 HD
ENDBRANCH  11  14
ENDBRANCH   1  10
BRANCH   1  16
ATOM     16  S   UNL     1       3.137   3.060  18.181  0.00  0.00    +0.000 S 
ATOM     17  O   UNL     1       2.447   2.765  16.934  0.00  0.00    +0.000 OA
ATOM     18  O   UNL     1       2.911   2.243  19.352  0.00  0.00    +0.000 OA
BRANCH  16  19
ATOM     19  C   UNL     1       2.772   4.736  18.589  0.00  0.00    +0.000 A 
ATOM     20  C   UNL     1       2.678   5.066  19.942  0.00  0.00    +0.000 A 
ATOM     21  C   UNL     1       2.400   6.372  20.308  0.00  0.00    +0.000 A 
ATOM     22  C   UNL     1       2.249   7.370  19.337  0.00  0.00    +0.000 A 
ATOM     23  C   UNL     1       2.403   7.040  17.980  0.00  0.00    +0.000 A 
ATOM     24  C   UNL     1       2.646   5.716  17.602  0.00  0.00    +0.000 A 
BRANCH  22  25
ATOM     25  C   UNL     1       1.866   8.778  19.746  0.00  0.00    +0.000 C 
BRANCH  25  26
ATOM     26  C   UNL     1       1.151   9.606  18.660  0.00  0.00    +0.000 C 
ATOM     27  C   UNL     1      -0.163  10.209  19.161  0.00  0.00    +0.000 C 
ATOM     28  C   UNL     1       2.064  10.732  18.166  0.00  0.00    +0.000 C 
ENDBRANCH  25  26
ENDBRANCH  22  25
ENDBRANCH  16  19
ENDBRANCH   1  16
TORSDOF 6
ENDMDL
MODEL 8
REMARK VINA RESULT:      -7.3      3.939      7.125
REMARK  Name = 
REMARK  10 active torsions:
REMARK  status: ('A' for Active; 'I' for Inactive)
REMARK    1  A    between atoms: C_1  and  C_2
REMARK    2  A    between atoms: C_6  and  C_7
REMARK    3  A    between atoms: C_8  and  N_9
REMARK    4  A    between atoms: N_9  and  S_10
REMARK    5  A    between atoms: S_10  and  C_13
REMARK    6  A    between atoms: C_16  and  C_17
REMARK    7  A    between atoms: C_17  and  C_18
REMARK    8  A    between atoms: C_18  and  C_19
REMARK    9  A    between atoms: C_18  and  C_20
REMARK   10  A    between atoms: C_23  and  O_24
REMARK                            x       y       z     vdW  Elec       q    Type
REMARK                         _______ _______ _______ _____ _____    ______ ____
ROOT
ATOM      1  N   UNL     1       2.608   6.886  20.502  0.00  0.00    +0.000 N 
ATOM      2  H   UNL     1       3.570   7.040  20.806  0.00  0.00    +0.000 HD
ENDROOT
BRANCH   1  10
ATOM      3  C   UNL     1      -2.077  12.288  19.882  0.00  0.00    +0.000 C 
ATOM      4  C   UNL     1      -1.030  11.269  19.703  0.00  0.00    +0.000 A 
ATOM      5  N   UNL     1      -0.396  11.049  18.512  0.00  0.00    +0.000 NA
ATOM      6  C   UNL     1       0.437  10.069  18.786  0.00  0.00    +0.000 A 
ATOM      7  N   UNL     1       1.340   9.458  17.970  0.00  0.00    +0.000 NA
ATOM      8  C   UNL     1       2.017   8.464  18.476  0.00  0.00    +0.000 A 
ATOM      9  C   UNL     1       3.026   7.860  17.511  0.00  0.00    +0.000 C 
ATOM     10  C   UNL     1       1.843   7.928  19.893  0.00  0.00    +0.000 A 
ATOM     11  C   UNL     1       1.006   8.649  20.685  0.00  0.00    +0.000 A 
ATOM     12  N   UNL     1       0.295   9.701  20.116  0.00  0.00    +0.000 N 
ATOM     13  N   UNL     1      -0.641  10.487  20.708  0.00  0.00    +0.000 NA
BRANCH  11  14
ATOM     14  O   UNL     1       0.822   8.468  22.042  0.00  0.00    +0.000 OA
ATOM     15  H   UNL     1       0.751   7.524  22.279  0.00  0.00    +0.000 HD
ENDBRANCH  11  14
ENDBRANCH   1  10
BRANCH   1  16
ATOM     16  S   UNL     1       2.257   5.261  20.161  0.00  0.00    +0.000 S 
ATOM     17  O   UNL     1       2.640   4.518  21.353  0.00  0.00    +0.000 OA
ATOM     18  O   UNL     1       0.909   5.172  19.648  0.00  0.00    +0.000 OA
BRANCH  16  19
ATOM     19  C   UNL     1       3.375   4.795  18.880  0.00  0.00    +0.000 A 
ATOM     20  C   UNL     1       2.837   4.209  17.734  0.00  0.00    +0.000 A 
ATOM     21  C   UNL     1       3.678   3.834  16.700  0.00  0.00    +0.000 A 
ATOM     22  C   UNL     1       5.057   4.069  16.779  0.00  0.00    +0.000 A 
ATOM     23  C   UNL     1       5.583   4.712  17.911  0.00  0.00    +0.000 A 
ATOM     24  C   UNL     1       4.743   5.059  18.975  0.00  0.00    +0.000 A 
BRANCH  22  25
ATOM     25  C   UNL     1       5.976   3.583  15.676  0.00  0.00    +0.000 C 
BRANCH  25  26
ATOM     26  C   UNL     1       5.982   4.446  14.398  0.00  0.00    +0.000 C 
ATOM     27  C   UNL     1       7.331   5.130  14.166  0.00  0.00    +0.000 C 
ATOM     28  C   UNL     1       5.637   3.588  13.178  0.00  0.00    +0.000 C 
ENDBRANCH  25  26
ENDBRANCH  22  25
ENDBRANCH  16  19
ENDBRANCH   1  16
TORSDOF 6
ENDMDL
MODEL 9
REMARK VINA RESULT:      -7.3      3.707      7.046
REMARK  Name = 
REMARK  10 active torsions:
REMARK  status: ('A' for Active; 'I' for Inactive)
REMARK    1  A    between atoms: C_1  and  C_2
REMARK    2  A    between atoms: C_6  and  C_7
REMARK    3  A    between atoms: C_8  and  N_9
REMARK    4  A    between atoms: N_9  and  S_10
REMARK    5  A    between atoms: S_10  and  C_13
REMARK    6  A    between atoms: C_16  and  C_17
REMARK    7  A    between atoms: C_17  and  C_18
REMARK    8  A    between atoms: C_18  and  C_19
REMARK    9  A    between atoms: C_18  and  C_20
REMARK   10  A    between atoms: C_23  and  O_24
REMARK                            x       y       z     vdW  Elec       q    Type
REMARK                         _______ _______ _______ _____ _____    ______ ____
ROOT
ATOM      1  N   UNL     1       2.990   6.530  20.189  0.00  0.00    +0.000 N 
ATOM      2  H   UNL     1       3.933   6.685  20.547  0.00  0.00    +0.000 HD
ENDROOT
BRANCH   1  10
ATOM      3  C   UNL     1      -1.726  11.939  20.100  0.00  0.00    +0.000 C 
ATOM      4  C   UNL     1      -0.684  10.938  19.816  0.00  0.00    +0.000 A 
ATOM      5  N   UNL     1      -0.096  10.800  18.590  0.00  0.00    +0.000 NA
ATOM      6  C   UNL     1       0.749   9.807  18.768  0.00  0.00    +0.000 A 
ATOM      7  N   UNL     1       1.622   9.255  17.881  0.00  0.00    +0.000 NA
ATOM      8  C   UNL     1       2.319   8.234  18.295  0.00  0.00    +0.000 A 
ATOM      9  C   UNL     1       3.292   7.698  17.255  0.00  0.00    +0.000 C 
ATOM     10  C   UNL     1       2.200   7.606  19.680  0.00  0.00    +0.000 A 
ATOM     11  C   UNL     1       1.392   8.269  20.548  0.00  0.00    +0.000 A 
ATOM     12  N   UNL     1       0.658   9.353  20.076  0.00  0.00    +0.000 N 
ATOM     13  N   UNL     1      -0.256  10.094  20.752  0.00  0.00    +0.000 NA
BRANCH  11  14
ATOM     14  O   UNL     1       1.260   8.000  21.896  0.00  0.00    +0.000 OA
ATOM     15  H   UNL     1       0.646   7.260  22.062  0.00  0.00    +0.000 HD
ENDBRANCH  11  14
ENDBRANCH   1  10
BRANCH   1  16
ATOM     16  S   UNL     1       2.724   4.944  19.644  0.00  0.00    +0.000 S 
ATOM     17  O   UNL     1       3.072   4.081  20.763  0.00  0.00    +0.000 OA
ATOM     18  O   UNL     1       1.411   4.871  19.045  0.00  0.00    +0.000 OA
BRANCH  16  19
ATOM     19  C   UNL     1       3.928   4.670  18.386  0.00  0.00    +0.000 A 
ATOM     20  C   UNL     1       5.249   5.021  18.668  0.00  0.00    +0.000 A 
ATOM     21  C   UNL     1       6.228   4.816  17.711  0.00  0.00    +0.000 A 
ATOM     22  C   UNL     1       5.914   4.228  16.480  0.00  0.00    +0.000 A 
ATOM     23  C   UNL     1       4.592   3.825  16.227  0.00  0.00    +0.000 A 
ATOM     24  C   UNL     1       3.591   4.063  17.174  0.00  0.00    +0.000 A 
BRANCH  22  25
ATOM     25  C   UNL     1       6.979   4.082  15.411  0.00  0.00    +0.000 C 
BRANCH  25  26
ATOM     26  C   UNL     1       6.610   4.665  14.032  0.00  0.00    +0.000 C 
ATOM     27  C   UNL     1       7.805   5.328  13.344  0.00  0.00    +0.000 C 
ATOM     28  C   UNL     1       6.054   3.564  13.124  0.00  0.00    +0.000 C 
ENDBRANCH  25  26
ENDBRANCH  22  25
ENDBRANCH  16  19
ENDBRANCH   1  16
TORSDOF 6
ENDMDL
