MODEL 1
REMARK VINA RESULT:      -7.3      0.000      0.000
REMARK  Name = 
REMARK  13 active torsions:
REMARK  status: ('A' for Active; 'I' for Inactive)
REMARK    1  A    between atoms: C_1  and  N_2
REMARK    2  A    between atoms: N_2  and  C_3
REMARK    3  A    between atoms: N_2  and  C_4
REMARK    4  A    between atoms: C_4  and  C_5
REMARK    5  A    between atoms: C_5  and  N_6
REMARK    6  A    between atoms: C_7  and  C_9
REMARK    7  A    between atoms: C_9  and  C_10
REMARK    8  A    between atoms: C_11  and  C_12
REMARK    9  A    between atoms: N_14  and  C_15
REMARK   10  A    between atoms: C_15  and  C_16
REMARK   11  A    between atoms: C_16  and  N_17
REMARK   12  A    between atoms: N_17  and  C_18
REMARK   13  A    between atoms: N_17  and  C_19
REMARK                            x       y       z     vdW  Elec       q    Type
REMARK                         _______ _______ _______ _____ _____    ______ ____
ROOT
ATOM      1  C   UNL     1       5.853   4.992  17.723  0.00  0.00    +0.000 A 
ATOM      2  C   UNL     1       5.702   4.459  16.439  0.00  0.00    +0.000 A 
ATOM      3  N   UNL     1       4.446   3.888  16.404  0.00  0.00    +0.000 N 
ATOM      4  C   UNL     1       3.785   4.046  17.599  0.00  0.00    +0.000 A 
ATOM      5  C   UNL     1       2.511   3.625  18.002  0.00  0.00    +0.000 A 
ATOM      6  C   UNL     1       2.116   3.929  19.311  0.00  0.00    +0.000 A 
ATOM      7 CL   UNL     1       0.542   3.465  19.837  0.00  0.00    +0.000 Cl
ATOM      8  C   UNL     1       2.962   4.591  20.192  0.00  0.00    +0.000 A 
ATOM      9  C   UNL     1       4.240   4.988  19.780  0.00  0.00    +0.000 A 
ATOM     10  C   UNL     1       4.656   4.713  18.456  0.00  0.00    +0.000 A 
ATOM     11  H   UNL     1       4.051   3.396  15.612  0.00  0.00    +0.000 HD
ENDROOT
BRANCH   2  12
ATOM     12  C   UNL     1       6.681   4.444  15.369  0.00  0.00    +0.000 C 
ATOM     13  O   UNL     1       7.890   4.454  15.594  0.00  0.00    +0.000 OA
ATOM     14  N   UNL     1       6.215   4.371  14.075  0.00  0.00    +0.000 N 
ATOM     15  H   UNL     1       5.249   4.551  13.840  0.00  0.00    +0.000 HD
BRANCH  14  16
ATOM     16  C   UNL     1       7.172   4.403  12.983  0.00  0.00    +0.000 C 
BRANCH  16  17
ATOM     17  C   UNL     1       6.686   3.652  11.735  0.00  0.00    +0.000 C 
BRANCH  17  18
ATOM     18  N   UNL     1       5.565   2.719  11.983  0.00  0.00    +0.000 NA
ATOM     19  C   UNL     1       4.308   3.225  11.416  0.00  0.00    +0.000 C 
ATOM     20  C   UNL     1       5.876   1.422  11.363  0.00  0.00    +0.000 C 
ENDBRANCH  17  18
ENDBRANCH  16  17
ENDBRANCH  14  16
ENDBRANCH   2  12
BRANCH   1  21
ATOM     21  C   UNL     1       7.058   5.711  18.267  0.00  0.00    +0.000 C 
BRANCH  21  23
ATOM     22  N   UNL     1       8.129   7.906  18.353  0.00  0.00    +0.000 N 
ATOM     23  C   UNL     1       7.144   7.144  17.764  0.00  0.00    +0.000 C 
ATOM     24  O   UNL     1       6.394   7.574  16.889  0.00  0.00    +0.000 OA
ATOM     25  H   UNL     1       8.831   7.419  18.910  0.00  0.00    +0.000 HD
BRANCH  22  26
ATOM     26  C   UNL     1       8.380   9.278  17.957  0.00  0.00    +0.000 C 
BRANCH  26  27
ATOM     27  C   UNL     1       9.156  10.081  19.021  0.00  0.00    +0.000 C 
BRANCH  27  29
ATOM     28  C   UNL     1       9.144  12.306  18.040  0.00  0.00    +0.000 C 
ATOM     29  N   UNL     1       9.981  11.171  18.444  0.00  0.00    +0.000 NA
ATOM     30  C   UNL     1      10.975  11.629  19.420  0.00  0.00    +0.000 C 
ENDBRANCH  27  29
ENDBRANCH  26  27
ENDBRANCH  22  26
ENDBRANCH  21  23
ENDBRANCH   1  21
TORSDOF 9
ENDMDL
MODEL 2
REMARK VINA RESULT:      -7.2      2.787      8.046
REMARK  Name = 
REMARK  13 active torsions:
REMARK  status: ('A' for Active; 'I' for Inactive)
REMARK    1  A    between atoms: C_1  and  N_2
REMARK    2  A    between atoms: N_2  and  C_3
REMARK    3  A    between atoms: N_2  and  C_4
REMARK    4  A    between atoms: C_4  and  C_5
REMARK    5  A    between atoms: C_5  and  N_6
REMARK    6  A    between atoms: C_7  and  C_9
REMARK    7  A    between atoms: C_9  and  C_10
REMARK    8  A    between atoms: C_11  and  C_12
REMARK    9  A    between atoms: N_14  and  C_15
REMARK   10  A    between atoms: C_15  and  C_16
REMARK   11  A    between atoms: C_16  and  N_17
REMARK   12  A    between atoms: N_17  and  C_18
REMARK   13  A    between atoms: N_17  and  C_19
REMARK                            x       y       z     vdW  Elec       q    Type
REMARK                         _______ _______ _______ _____ _____    ______ ____
ROOT
ATOM      1  C   UNL     1       5.871   5.610  16.571  0.00  0.00    +0.000 A 
ATOM      2  C   UNL     1       7.127   6.219  16.645  0.00  0.00    +0.000 A 
ATOM      3  N   UNL     1       7.800   5.858  15.497  0.00  0.00    +0.000 N 
ATOM      4  C   UNL     1       7.026   5.061  14.687  0.00  0.00    +0.000 A 
ATOM      5  C   UNL     1       7.307   4.470  13.448  0.00  0.00    +0.000 A 
ATOM      6  C   UNL     1       6.303   3.685  12.865  0.00  0.00    +0.000 A 
ATOM      7 CL   UNL     1       6.590   2.972  11.324  0.00  0.00    +0.000 Cl
ATOM      8  C   UNL     1       5.087   3.470  13.501  0.00  0.00    +0.000 A 
ATOM      9  C   UNL     1       4.829   4.052  14.749  0.00  0.00    +0.000 A 
ATOM     10  C   UNL     1       5.817   4.866  15.349  0.00  0.00    +0.000 A 
ATOM     11  H   UNL     1       8.751   6.123  15.270  0.00  0.00    +0.000 HD
ENDROOT
BRANCH   2  12
ATOM     12  C   UNL     1       7.656   7.020  17.734  0.00  0.00    +0.000 C 
ATOM     13  O   UNL     1       7.856   6.547  18.851  0.00  0.00    +0.000 OA
ATOM     14  N   UNL     1       7.977   8.332  17.466  0.00  0.00    +0.000 N 
ATOM     15  H   UNL     1       7.657   8.805  16.633  0.00  0.00    +0.000 HD
BRANCH  14  16
ATOM     16  C   UNL     1       8.463   9.169  18.549  0.00  0.00    +0.000 C 
BRANCH  16  17
ATOM     17  C   UNL     1       8.864  10.578  18.088  0.00  0.00    +0.000 C 
BRANCH  17  18
ATOM     18  N   UNL     1      10.175  11.037  18.598  0.00  0.00    +0.000 NA
ATOM     19  C   UNL     1      10.671  12.193  17.842  0.00  0.00    +0.000 C 
ATOM     20  C   UNL     1      10.031  11.420  20.011  0.00  0.00    +0.000 C 
ENDBRANCH  17  18
ENDBRANCH  16  17
ENDBRANCH  14  16
ENDBRANCH   2  12
BRANCH   1  21
ATOM     21  C   UNL     1       4.767   5.688  17.590  0.00  0.00    +0.000 C 
BRANCH  21  23
ATOM     22  N   UNL     1       3.648   3.565  18.054  0.00  0.00    +0.000 N 
ATOM     23  C   UNL     1       4.666   4.419  18.421  0.00  0.00    +0.000 C 
ATOM     24  O   UNL     1       5.448   4.177  19.340  0.00  0.00    +0.000 OA
ATOM     25  H   UNL     1       3.186   3.741  17.162  0.00  0.00    +0.000 HD
BRANCH  22  26
ATOM     26  C   UNL     1       3.441   2.289  18.709  0.00  0.00    +0.000 C 
BRANCH  26  27
ATOM     27  C   UNL     1       2.094   2.206  19.457  0.00  0.00    +0.000 C 
BRANCH  27  29
ATOM     28  C   UNL     1       0.955   4.206  20.243  0.00  0.00    +0.000 C 
ATOM     29  N   UNL     1       1.973   3.196  20.555  0.00  0.00    +0.000 NA
ATOM     30  C   UNL     1       1.619   2.527  21.810  0.00  0.00    +0.000 C 
ENDBRANCH  27  29
ENDBRANCH  26  27
ENDBRANCH  22  26
ENDBRANCH  21  23
ENDBRANCH   1  21
TORSDOF 9
ENDMDL
MODEL 3
REMARK VINA RESULT:      -7.1      1.083      1.131
REMARK  Name = 
REMARK  13 active torsions:
REMARK  status: ('A' for Active; 'I' for Inactive)
REMARK    1  A    between atoms: C_1  and  N_2
REMARK    2  A    between atoms: N_2  and  C_3
REMARK    3  A    between atoms: N_2  and  C_4
REMARK    4  A    between atoms: C_4  and  C_5
REMARK    5  A    between atoms: C_5  and  N_6
REMARK    6  A    between atoms: C_7  and  C_9
REMARK    7  A    between atoms: C_9  and  C_10
REMARK    8  A    between atoms: C_11  and  C_12
REMARK    9  A    between atoms: N_14  and  C_15
REMARK   10  A    between atoms: C_15  and  C_16
REMARK   11  A    between atoms: C_16  and  N_17
REMARK   12  A    between atoms: N_17  and  C_18
REMARK   13  A    between atoms: N_17  and  C_19
REMARK                            x       y       z     vdW  Elec       q    Type
REMARK                         _______ _______ _______ _____ _____    ______ ____
ROOT
ATOM      1  C   UNL     1       5.540   5.767  17.097  0.00  0.00    +0.000 A 
ATOM      2  C   UNL     1       5.926   4.756  16.212  0.00  0.00    +0.000 A 
ATOM      3  N   UNL     1       5.345   3.594  16.677  0.00  0.00    +0.000 N 
ATOM      4  C   UNL     1       4.595   3.820  17.807  0.00  0.00    +0.000 A 
ATOM      5  C   UNL     1       3.850   2.938  18.601  0.00  0.00    +0.000 A 
ATOM      6  C   UNL     1       3.194   3.474  19.717  0.00  0.00    +0.000 A 
ATOM      7 CL   UNL     1       2.235   2.435  20.700  0.00  0.00    +0.000 Cl
ATOM      8  C   UNL     1       3.302   4.819  20.048  0.00  0.00    +0.000 A 
ATOM      9  C   UNL     1       4.066   5.684  19.255  0.00  0.00    +0.000 A 
ATOM     10  C   UNL     1       4.721   5.173  18.110  0.00  0.00    +0.000 A 
ATOM     11  H   UNL     1       5.460   2.678  16.260  0.00  0.00    +0.000 HD
ENDROOT
BRANCH   2  12
ATOM     12  C   UNL     1       6.810   4.875  15.068  0.00  0.00    +0.000 C 
ATOM     13  O   UNL     1       7.879   5.479  15.132  0.00  0.00    +0.000 OA
ATOM     14  N   UNL     1       6.436   4.245  13.901  0.00  0.00    +0.000 N 
ATOM     15  H   UNL     1       5.497   3.907  13.749  0.00  0.00    +0.000 HD
BRANCH  14  16
ATOM     16  C   UNL     1       7.279   4.388  12.727  0.00  0.00    +0.000 C 
BRANCH  16  17
ATOM     17  C   UNL     1       6.843   3.490  11.560  0.00  0.00    +0.000 C 
BRANCH  17  18
ATOM     18  N   UNL     1       5.715   2.585  11.876  0.00  0.00    +0.000 NA
ATOM     19  C   UNL     1       4.439   3.126  11.390  0.00  0.00    +0.000 C 
ATOM     20  C   UNL     1       5.952   1.283  11.236  0.00  0.00    +0.000 C 
ENDBRANCH  17  18
ENDBRANCH  16  17
ENDBRANCH  14  16
ENDBRANCH   2  12
BRANCH   1  21
ATOM     21  C   UNL     1       5.925   7.220  17.032  0.00  0.00    +0.000 C 
BRANCH  21  23
ATOM     22  N   UNL     1       7.558   8.830  17.877  0.00  0.00    +0.000 N 
ATOM     23  C   UNL     1       7.240   7.496  17.743  0.00  0.00    +0.000 C 
ATOM     24  O   UNL     1       7.952   6.588  18.172  0.00  0.00    +0.000 OA
ATOM     25  H   UNL     1       6.824   9.510  17.683  0.00  0.00    +0.000 HD
BRANCH  22  26
ATOM     26  C   UNL     1       8.751   9.270  18.572  0.00  0.00    +0.000 C 
BRANCH  26  27
ATOM     27  C   UNL     1       9.243  10.656  18.108  0.00  0.00    +0.000 C 
BRANCH  27  29
ATOM     28  C   UNL     1      11.100  12.224  18.201  0.00  0.00    +0.000 C 
ATOM     29  N   UNL     1      10.362  11.184  18.927  0.00  0.00    +0.000 NA
ATOM     30  C   UNL     1       9.856  11.742  20.185  0.00  0.00    +0.000 C 
ENDBRANCH  27  29
ENDBRANCH  26  27
ENDBRANCH  22  26
ENDBRANCH  21  23
ENDBRANCH   1  21
TORSDOF 9
ENDMDL
MODEL 4
REMARK VINA RESULT:      -7.1      2.885      7.968
REMARK  Name = 
REMARK  13 active torsions:
REMARK  status: ('A' for Active; 'I' for Inactive)
REMARK    1  A    between atoms: C_1  and  N_2
REMARK    2  A    between atoms: N_2  and  C_3
REMARK    3  A    between atoms: N_2  and  C_4
REMARK    4  A    between atoms: C_4  and  C_5
REMARK    5  A    between atoms: C_5  and  N_6
REMARK    6  A    between atoms: C_7  and  C_9
REMARK    7  A    between atoms: C_9  and  C_10
REMARK    8  A    between atoms: C_11  and  C_12
REMARK    9  A    between atoms: N_14  and  C_15
REMARK   10  A    between atoms: C_15  and  C_16
REMARK   11  A    between atoms: C_16  and  N_17
REMARK   12  A    between atoms: N_17  and  C_18
REMARK   13  A    between atoms: N_17  and  C_19
REMARK                            x       y       z     vdW  Elec       q    Type
REMARK                         _______ _______ _______ _____ _____    ______ ____
ROOT
ATOM      1  C   UNL     1       6.389   5.558  17.593  0.00  0.00    +0.000 A 
ATOM      2  C   UNL     1       7.390   6.485  17.288  0.00  0.00    +0.000 A 
ATOM      3  N   UNL     1       7.684   6.309  15.951  0.00  0.00    +0.000 N 
ATOM      4  C   UNL     1       6.907   5.325  15.388  0.00  0.00    +0.000 A 
ATOM      5  C   UNL     1       6.876   4.820  14.081  0.00  0.00    +0.000 A 
ATOM      6  C   UNL     1       5.968   3.788  13.810  0.00  0.00    +0.000 A 
ATOM      7 CL   UNL     1       5.867   3.164  12.208  0.00  0.00    +0.000 Cl
ATOM      8  C   UNL     1       5.153   3.257  14.802  0.00  0.00    +0.000 A 
ATOM      9  C   UNL     1       5.209   3.759  16.108  0.00  0.00    +0.000 A 
ATOM     10  C   UNL     1       6.102   4.816  16.404  0.00  0.00    +0.000 A 
ATOM     11  H   UNL     1       8.392   6.820  15.438  0.00  0.00    +0.000 HD
ENDROOT
BRANCH   2  12
ATOM     12  C   UNL     1       8.043   7.409  18.195  0.00  0.00    +0.000 C 
ATOM     13  O   UNL     1       8.583   7.029  19.233  0.00  0.00    +0.000 OA
ATOM     14  N   UNL     1       8.084   8.739  17.837  0.00  0.00    +0.000 N 
ATOM     15  H   UNL     1       7.499   9.117  17.105  0.00  0.00    +0.000 HD
BRANCH  14  16
ATOM     16  C   UNL     1       8.689   9.692  18.750  0.00  0.00    +0.000 C 
BRANCH  16  17
ATOM     17  C   UNL     1       9.534  10.756  18.035  0.00  0.00    +0.000 C 
BRANCH  17  18
ATOM     18  N   UNL     1       9.832  11.952  18.856  0.00  0.00    +0.000 NA
ATOM     19  C   UNL     1      11.243  12.342  18.746  0.00  0.00    +0.000 C 
ATOM     20  C   UNL     1       8.993  13.069  18.397  0.00  0.00    +0.000 C 
ENDBRANCH  17  18
ENDBRANCH  16  17
ENDBRANCH  14  16
ENDBRANCH   2  12
BRANCH   1  21
ATOM     21  C   UNL     1       5.733   5.343  18.931  0.00  0.00    +0.000 C 
BRANCH  21  23
ATOM     22  N   UNL     1       3.532   5.328  19.993  0.00  0.00    +0.000 N 
ATOM     23  C   UNL     1       4.282   5.797  18.936  0.00  0.00    +0.000 C 
ATOM     24  O   UNL     1       3.827   6.537  18.065  0.00  0.00    +0.000 OA
ATOM     25  H   UNL     1       4.032   4.899  20.770  0.00  0.00    +0.000 HD
BRANCH  22  26
ATOM     26  C   UNL     1       2.144   5.703  20.177  0.00  0.00    +0.000 C 
BRANCH  26  27
ATOM     27  C   UNL     1       1.194   4.489  20.236  0.00  0.00    +0.000 C 
BRANCH  27  29
ATOM     28  C   UNL     1       1.633   2.507  21.574  0.00  0.00    +0.000 C 
ATOM     29  N   UNL     1       1.907   3.190  20.305  0.00  0.00    +0.000 NA
ATOM     30  C   UNL     1       1.501   2.324  19.195  0.00  0.00    +0.000 C 
ENDBRANCH  27  29
ENDBRANCH  26  27
ENDBRANCH  22  26
ENDBRANCH  21  23
ENDBRANCH   1  21
TORSDOF 9
ENDMDL
MODEL 5
REMARK VINA RESULT:      -7.1      2.652      5.616
REMARK  Name = 
REMARK  13 active torsions:
REMARK  status: ('A' for Active; 'I' for Inactive)
REMARK    1  A    between atoms: C_1  and  N_2
REMARK    2  A    between atoms: N_2  and  C_3
REMARK    3  A    between atoms: N_2  and  C_4
REMARK    4  A    between atoms: C_4  and  C_5
REMARK    5  A    between atoms: C_5  and  N_6
REMARK    6  A    between atoms: C_7  and  C_9
REMARK    7  A    between atoms: C_9  and  C_10
REMARK    8  A    between atoms: C_11  and  C_12
REMARK    9  A    between atoms: N_14  and  C_15
REMARK   10  A    between atoms: C_15  and  C_16
REMARK   11  A    between atoms: C_16  and  N_17
REMARK   12  A    between atoms: N_17  and  C_18
REMARK   13  A    between atoms: N_17  and  C_19
REMARK                            x       y       z     vdW  Elec       q    Type
REMARK                         _______ _______ _______ _____ _____    ______ ____
ROOT
ATOM      1  C   UNL     1       6.592   5.017  17.054  0.00  0.00    +0.000 A 
ATOM      2  C   UNL     1       5.398   4.383  17.411  0.00  0.00    +0.000 A 
ATOM      3  N   UNL     1       4.901   3.817  16.256  0.00  0.00    +0.000 N 
ATOM      4  C   UNL     1       5.730   4.048  15.183  0.00  0.00    +0.000 A 
ATOM      5  C   UNL     1       5.613   3.667  13.839  0.00  0.00    +0.000 A 
ATOM      6  C   UNL     1       6.630   4.071  12.965  0.00  0.00    +0.000 A 
ATOM      7 CL   UNL     1       6.548   3.593  11.312  0.00  0.00    +0.000 Cl
ATOM      8  C   UNL     1       7.697   4.847  13.399  0.00  0.00    +0.000 A 
ATOM      9  C   UNL     1       7.790   5.235  14.741  0.00  0.00    +0.000 A 
ATOM     10  C   UNL     1       6.787   4.823  15.650  0.00  0.00    +0.000 A 
ATOM     11  H   UNL     1       4.029   3.307  16.184  0.00  0.00    +0.000 HD
ENDROOT
BRANCH   2  12
ATOM     12  C   UNL     1       4.763   4.368  18.716  0.00  0.00    +0.000 C 
ATOM     13  O   UNL     1       5.127   3.603  19.607  0.00  0.00    +0.000 OA
ATOM     14  N   UNL     1       3.757   5.279  18.949  0.00  0.00    +0.000 N 
ATOM     15  H   UNL     1       3.305   5.786  18.201  0.00  0.00    +0.000 HD
BRANCH  14  16
ATOM     16  C   UNL     1       3.072   5.253  20.230  0.00  0.00    +0.000 C 
BRANCH  16  17
ATOM     17  C   UNL     1       1.697   4.574  20.163  0.00  0.00    +0.000 C 
BRANCH  17  18
ATOM     18  N   UNL     1       1.742   3.096  20.231  0.00  0.00    +0.000 NA
ATOM     19  C   UNL     1       1.455   2.611  21.587  0.00  0.00    +0.000 C 
ATOM     20  C   UNL     1       0.740   2.543  19.308  0.00  0.00    +0.000 C 
ENDBRANCH  17  18
ENDBRANCH  16  17
ENDBRANCH  14  16
ENDBRANCH   2  12
BRANCH   1  21
ATOM     21  C   UNL     1       7.510   5.793  17.960  0.00  0.00    +0.000 C 
BRANCH  21  23
ATOM     22  N   UNL     1       8.367   8.041  18.384  0.00  0.00    +0.000 N 
ATOM     23  C   UNL     1       7.429   7.290  17.710  0.00  0.00    +0.000 C 
ATOM     24  O   UNL     1       6.593   7.781  16.952  0.00  0.00    +0.000 OA
ATOM     25  H   UNL     1       9.142   7.544  18.821  0.00  0.00    +0.000 HD
BRANCH  22  26
ATOM     26  C   UNL     1       8.462   9.479  18.222  0.00  0.00    +0.000 C 
BRANCH  26  27
ATOM     27  C   UNL     1       9.307  10.156  19.320  0.00  0.00    +0.000 C 
BRANCH  27  29
ATOM     28  C   UNL     1       9.231  12.149  17.930  0.00  0.00    +0.000 C 
ATOM     29  N   UNL     1      10.055  11.342  18.836  0.00  0.00    +0.000 NA
ATOM     30  C   UNL     1      10.483  12.172  19.966  0.00  0.00    +0.000 C 
ENDBRANCH  27  29
ENDBRANCH  26  27
ENDBRANCH  22  26
ENDBRANCH  21  23
ENDBRANCH   1  21
TORSDOF 9
ENDMDL
MODEL 6
REMARK VINA RESULT:      -7.1      2.679      5.533
REMARK  Name = 
REMARK  13 active torsions:
REMARK  status: ('A' for Active; 'I' for Inactive)
REMARK    1  A    between atoms: C_1  and  N_2
REMARK    2  A    between atoms: N_2  and  C_3
REMARK    3  A    between atoms: N_2  and  C_4
REMARK    4  A    between atoms: C_4  and  C_5
REMARK    5  A    between atoms: C_5  and  N_6
REMARK    6  A    between atoms: C_7  and  C_9
REMARK    7  A    between atoms: C_9  and  C_10
REMARK    8  A    between atoms: C_11  and  C_12
REMARK    9  A    between atoms: N_14  and  C_15
REMARK   10  A    between atoms: C_15  and  C_16
REMARK   11  A    between atoms: C_16  and  N_17
REMARK   12  A    between atoms: N_17  and  C_18
REMARK   13  A    between atoms: N_17  and  C_19
REMARK                            x       y       z     vdW  Elec       q    Type
REMARK                         _______ _______ _______ _____ _____    ______ ____
ROOT
ATOM      1  C   UNL     1       6.747   4.915  17.263  0.00  0.00    +0.000 A 
ATOM      2  C   UNL     1       5.647   4.157  17.676  0.00  0.00    +0.000 A 
ATOM      3  N   UNL     1       5.129   3.577  16.536  0.00  0.00    +0.000 N 
ATOM      4  C   UNL     1       5.856   3.918  15.420  0.00  0.00    +0.000 A 
ATOM      5  C   UNL     1       5.684   3.565  14.075  0.00  0.00    +0.000 A 
ATOM      6  C   UNL     1       6.595   4.092  13.150  0.00  0.00    +0.000 A 
ATOM      7 CL   UNL     1       6.446   3.654  11.491  0.00  0.00    +0.000 Cl
ATOM      8  C   UNL     1       7.610   4.956  13.539  0.00  0.00    +0.000 A 
ATOM      9  C   UNL     1       7.757   5.314  14.885  0.00  0.00    +0.000 A 
ATOM     10  C   UNL     1       6.864   4.780  15.843  0.00  0.00    +0.000 A 
ATOM     11  H   UNL     1       4.307   2.986  16.505  0.00  0.00    +0.000 HD
ENDROOT
BRANCH   2  12
ATOM     12  C   UNL     1       5.108   4.043  19.018  0.00  0.00    +0.000 C 
ATOM     13  O   UNL     1       5.010   5.015  19.764  0.00  0.00    +0.000 OA
ATOM     14  N   UNL     1       4.658   2.806  19.425  0.00  0.00    +0.000 N 
ATOM     15  H   UNL     1       4.890   1.958  18.927  0.00  0.00    +0.000 HD
BRANCH  14  16
ATOM     16  C   UNL     1       4.159   2.654  20.780  0.00  0.00    +0.000 C 
BRANCH  16  17
ATOM     17  C   UNL     1       2.627   2.584  20.852  0.00  0.00    +0.000 C 
BRANCH  17  18
ATOM     18  N   UNL     1       1.930   3.400  19.832  0.00  0.00    +0.000 NA
ATOM     19  C   UNL     1       0.957   2.601  19.077  0.00  0.00    +0.000 C 
ATOM     20  C   UNL     1       1.222   4.501  20.501  0.00  0.00    +0.000 C 
ENDBRANCH  17  18
ENDBRANCH  16  17
ENDBRANCH  14  16
ENDBRANCH   2  12
BRANCH   1  21
ATOM     21  C   UNL     1       7.647   5.751  18.133  0.00  0.00    +0.000 C 
BRANCH  21  23
ATOM     22  N   UNL     1       8.447   8.039  18.442  0.00  0.00    +0.000 N 
ATOM     23  C   UNL     1       7.498   7.237  17.848  0.00  0.00    +0.000 C 
ATOM     24  O   UNL     1       6.602   7.676  17.128  0.00  0.00    +0.000 OA
ATOM     25  H   UNL     1       9.264   7.581  18.844  0.00  0.00    +0.000 HD
BRANCH  22  26
ATOM     26  C   UNL     1       8.481   9.473  18.235  0.00  0.00    +0.000 C 
BRANCH  26  27
ATOM     27  C   UNL     1       9.172  10.233  19.386  0.00  0.00    +0.000 C 
BRANCH  27  29
ATOM     28  C   UNL     1      10.007  11.908  17.834  0.00  0.00    +0.000 C 
ATOM     29  N   UNL     1      10.353  11.015  18.945  0.00  0.00    +0.000 NA
ATOM     30  C   UNL     1      10.882  11.812  20.057  0.00  0.00    +0.000 C 
ENDBRANCH  27  29
ENDBRANCH  26  27
ENDBRANCH  22  26
ENDBRANCH  21  23
ENDBRANCH   1  21
TORSDOF 9
ENDMDL
MODEL 7
REMARK VINA RESULT:      -7.1      3.601      5.742
REMARK  Name = 
REMARK  13 active torsions:
REMARK  status: ('A' for Active; 'I' for Inactive)
REMARK    1  A    between atoms: C_1  and  N_2
REMARK    2  A    between atoms: N_2  and  C_3
REMARK    3  A    between atoms: N_2  and  C_4
REMARK    4  A    between atoms: C_4  and  C_5
REMARK    5  A    between atoms: C_5  and  N_6
REMARK    6  A    between atoms: C_7  and  C_9
REMARK    7  A    between atoms: C_9  and  C_10
REMARK    8  A    between atoms: C_11  and  C_12
REMARK    9  A    between atoms: N_14  and  C_15
REMARK   10  A    between atoms: C_15  and  C_16
REMARK   11  A    between atoms: C_16  and  N_17
REMARK   12  A    between atoms: N_17  and  C_18
REMARK   13  A    between atoms: N_17  and  C_19
REMARK                            x       y       z     vdW  Elec       q    Type
REMARK                         _______ _______ _______ _____ _____    ______ ____
ROOT
ATOM      1  C   UNL     1       4.841   5.641  18.096  0.00  0.00    +0.000 A 
ATOM      2  C   UNL     1       5.116   5.985  16.769  0.00  0.00    +0.000 A 
ATOM      3  N   UNL     1       4.253   7.014  16.451  0.00  0.00    +0.000 N 
ATOM      4  C   UNL     1       3.454   7.351  17.517  0.00  0.00    +0.000 A 
ATOM      5  C   UNL     1       2.448   8.320  17.635  0.00  0.00    +0.000 A 
ATOM      6  C   UNL     1       1.788   8.417  18.867  0.00  0.00    +0.000 A 
ATOM      7 CL   UNL     1       0.572   9.620  19.070  0.00  0.00    +0.000 Cl
ATOM      8  C   UNL     1       2.091   7.567  19.923  0.00  0.00    +0.000 A 
ATOM      9  C   UNL     1       3.085   6.592  19.784  0.00  0.00    +0.000 A 
ATOM     10  C   UNL     1       3.782   6.486  18.557  0.00  0.00    +0.000 A 
ATOM     11  H   UNL     1       4.192   7.465  15.546  0.00  0.00    +0.000 HD
ENDROOT
BRANCH   2  12
ATOM     12  C   UNL     1       6.068   5.356  15.873  0.00  0.00    +0.000 C 
ATOM     13  O   UNL     1       7.272   5.600  15.928  0.00  0.00    +0.000 OA
ATOM     14  N   UNL     1       5.587   4.428  14.976  0.00  0.00    +0.000 N 
ATOM     15  H   UNL     1       4.602   4.339  14.770  0.00  0.00    +0.000 HD
BRANCH  14  16
ATOM     16  C   UNL     1       6.510   3.819  14.035  0.00  0.00    +0.000 C 
BRANCH  16  17
ATOM     17  C   UNL     1       6.036   3.915  12.578  0.00  0.00    +0.000 C 
BRANCH  17  18
ATOM     18  N   UNL     1       5.155   2.806  12.149  0.00  0.00    +0.000 NA
ATOM     19  C   UNL     1       4.088   3.281  11.259  0.00  0.00    +0.000 C 
ATOM     20  C   UNL     1       5.959   1.804  11.434  0.00  0.00    +0.000 C 
ENDBRANCH  17  18
ENDBRANCH  16  17
ENDBRANCH  14  16
ENDBRANCH   2  12
BRANCH   1  21
ATOM     21  C   UNL     1       5.507   4.562  18.906  0.00  0.00    +0.000 C 
BRANCH  21  23
ATOM     22  N   UNL     1       3.572   3.279  18.143  0.00  0.00    +0.000 N 
ATOM     23  C   UNL     1       4.656   3.304  18.993  0.00  0.00    +0.000 C 
ATOM     24  O   UNL     1       4.933   2.380  19.757  0.00  0.00    +0.000 OA
ATOM     25  H   UNL     1       3.536   3.982  17.406  0.00  0.00    +0.000 HD
BRANCH  22  26
ATOM     26  C   UNL     1       2.685   2.136  18.062  0.00  0.00    +0.000 C 
BRANCH  26  27
ATOM     27  C   UNL     1       1.520   2.202  19.070  0.00  0.00    +0.000 C 
BRANCH  27  29
ATOM     28  C   UNL     1       0.657   4.167  20.215  0.00  0.00    +0.000 C 
ATOM     29  N   UNL     1       1.744   3.184  20.160  0.00  0.00    +0.000 NA
ATOM     30  C   UNL     1       1.840   2.499  21.453  0.00  0.00    +0.000 C 
ENDBRANCH  27  29
ENDBRANCH  26  27
ENDBRANCH  22  26
ENDBRANCH  21  23
ENDBRANCH   1  21
TORSDOF 9
ENDMDL
MODEL 8
REMARK VINA RESULT:      -7.0      2.809      8.117
REMARK  Name = 
REMARK  13 active torsions:
REMARK  status: ('A' for Active; 'I' for Inactive)
REMARK    1  A    between atoms: C_1  and  N_2
REMARK    2  A    between atoms: N_2  and  C_3
REMARK    3  A    between atoms: N_2  and  C_4
REMARK    4  A    between atoms: C_4  and  C_5
REMARK    5  A    between atoms: C_5  and  N_6
REMARK    6  A    between atoms: C_7  and  C_9
REMARK    7  A    between atoms: C_9  and  C_10
REMARK    8  A    between atoms: C_11  and  C_12
REMARK    9  A    between atoms: N_14  and  C_15
REMARK   10  A    between atoms: C_15  and  C_16
REMARK   11  A    between atoms: C_16  and  N_17
REMARK   12  A    between atoms: N_17  and  C_18
REMARK   13  A    between atoms: N_17  and  C_19
REMARK                            x       y       z     vdW  Elec       q    Type
REMARK                         _______ _______ _______ _____ _____    ______ ____
ROOT
ATOM      1  C   UNL     1       5.802   6.051  16.533  0.00  0.00    +0.000 A 
ATOM      2  C   UNL     1       7.137   6.423  16.715  0.00  0.00    +0.000 A 
ATOM      3  N   UNL     1       7.846   5.827  15.692  0.00  0.00    +0.000 N 
ATOM      4  C   UNL     1       7.024   5.107  14.859  0.00  0.00    +0.000 A 
ATOM      5  C   UNL     1       7.316   4.350  13.717  0.00  0.00    +0.000 A 
ATOM      6  C   UNL     1       6.246   3.708  13.079  0.00  0.00    +0.000 A 
ATOM      7 CL   UNL     1       6.552   2.799  11.648  0.00  0.00    +0.000 Cl
ATOM      8  C   UNL     1       4.951   3.787  13.573  0.00  0.00    +0.000 A 
ATOM      9  C   UNL     1       4.678   4.532  14.727  0.00  0.00    +0.000 A 
ATOM     10  C   UNL     1       5.736   5.208  15.379  0.00  0.00    +0.000 A 
ATOM     11  H   UNL     1       8.850   5.888  15.566  0.00  0.00    +0.000 HD
ENDROOT
BRANCH   2  12
ATOM     12  C   UNL     1       7.692   7.220  17.793  0.00  0.00    +0.000 C 
ATOM     13  O   UNL     1       7.921   6.744  18.903  0.00  0.00    +0.000 OA
ATOM     14  N   UNL     1       8.004   8.535  17.522  0.00  0.00    +0.000 N 
ATOM     15  H   UNL     1       7.663   9.010  16.699  0.00  0.00    +0.000 HD
BRANCH  14  16
ATOM     16  C   UNL     1       8.515   9.368  18.595  0.00  0.00    +0.000 C 
BRANCH  16  17
ATOM     17  C   UNL     1       9.233  10.628  18.089  0.00  0.00    +0.000 C 
BRANCH  17  18
ATOM     18  N   UNL     1       9.692  11.541  19.160  0.00  0.00    +0.000 NA
ATOM     19  C   UNL     1       9.396  10.999  20.492  0.00  0.00    +0.000 C 
ATOM     20  C   UNL     1      11.145  11.731  19.038  0.00  0.00    +0.000 C 
ENDBRANCH  17  18
ENDBRANCH  16  17
ENDBRANCH  14  16
ENDBRANCH   2  12
BRANCH   1  21
ATOM     21  C   UNL     1       4.631   6.435  17.397  0.00  0.00    +0.000 C 
BRANCH  21  23
ATOM     22  N   UNL     1       2.500   5.313  17.811  0.00  0.00    +0.000 N 
ATOM     23  C   UNL     1       3.872   5.219  17.904  0.00  0.00    +0.000 C 
ATOM     24  O   UNL     1       4.450   4.227  18.347  0.00  0.00    +0.000 OA
ATOM     25  H   UNL     1       2.118   6.070  17.247  0.00  0.00    +0.000 HD
BRANCH  22  26
ATOM     26  C   UNL     1       1.627   4.225  18.204  0.00  0.00    +0.000 C 
BRANCH  26  27
ATOM     27  C   UNL     1       1.314   4.217  19.714  0.00  0.00    +0.000 C 
BRANCH  27  29
ATOM     28  C   UNL     1       1.909   1.875  19.434  0.00  0.00    +0.000 C 
ATOM     29  N   UNL     1       1.218   2.850  20.285  0.00  0.00    +0.000 NA
ATOM     30  C   UNL     1       1.803   2.816  21.629  0.00  0.00    +0.000 C 
ENDBRANCH  27  29
ENDBRANCH  26  27
ENDBRANCH  22  26
ENDBRANCH  21  23
ENDBRANCH   1  21
TORSDOF 9
ENDMDL
MODEL 9
REMARK VINA RESULT:      -7.0      4.163      6.707
REMARK  Name = 
REMARK  13 active torsions:
REMARK  status: ('A' for Active; 'I' for Inactive)
REMARK    1  A    between atoms: C_1  and  N_2
REMARK    2  A    between atoms: N_2  and  C_3
REMARK    3  A    between atoms: N_2  and  C_4
REMARK    4  A    between atoms: C_4  and  C_5
REMARK    5  A    between atoms: C_5  and  N_6
REMARK    6  A    between atoms: C_7  and  C_9
REMARK    7  A    between atoms: C_9  and  C_10
REMARK    8  A    between atoms: C_11  and  C_12
REMARK    9  A    between atoms: N_14  and  C_15
REMARK   10  A    between atoms: C_15  and  C_16
REMARK   11  A    between atoms: C_16  and  N_17
REMARK   12  A    between atoms: N_17  and  C_18
REMARK   13  A    between atoms: N_17  and  C_19
REMARK                            x       y       z     vdW  Elec       q    Type
REMARK                         _______ _______ _______ _____ _____    ______ ____
ROOT
ATOM      1  C   UNL     1       1.952   7.063  19.057  0.00  0.00    +0.000 A 
ATOM      2  C   UNL     1       1.675   6.550  20.327  0.00  0.00    +0.000 A 
ATOM      3  N   UNL     1       1.279   7.622  21.099  0.00  0.00    +0.000 N 
ATOM      4  C   UNL     1       1.276   8.792  20.377  0.00  0.00    +0.000 A 
ATOM      5  C   UNL     1       0.953  10.101  20.758  0.00  0.00    +0.000 A 
ATOM      6  C   UNL     1       1.063  11.101  19.783  0.00  0.00    +0.000 A 
ATOM      7 CL   UNL     1       0.639  12.719  20.196  0.00  0.00    +0.000 Cl
ATOM      8  C   UNL     1       1.506  10.819  18.497  0.00  0.00    +0.000 A 
ATOM      9  C   UNL     1       1.843   9.508  18.137  0.00  0.00    +0.000 A 
ATOM     10  C   UNL     1       1.721   8.475  19.096  0.00  0.00    +0.000 A 
ATOM     11  H   UNL     1       1.034   7.575  22.081  0.00  0.00    +0.000 HD
ENDROOT
BRANCH   2  12
ATOM     12  C   UNL     1       1.829   5.179  20.777  0.00  0.00    +0.000 C 
ATOM     13  O   UNL     1       2.622   4.871  21.665  0.00  0.00    +0.000 OA
ATOM     14  N   UNL     1       1.018   4.223  20.207  0.00  0.00    +0.000 N 
ATOM     15  H   UNL     1       0.499   4.394  19.357  0.00  0.00    +0.000 HD
BRANCH  14  16
ATOM     16  C   UNL     1       1.184   2.836  20.604  0.00  0.00    +0.000 C 
BRANCH  16  17
ATOM     17  C   UNL     1       1.817   1.968  19.507  0.00  0.00    +0.000 C 
BRANCH  17  18
ATOM     18  N   UNL     1       3.108   2.479  18.993  0.00  0.00    +0.000 NA
ATOM     19  C   UNL     1       4.180   2.329  19.984  0.00  0.00    +0.000 C 
ATOM     20  C   UNL     1       3.472   1.729  17.782  0.00  0.00    +0.000 C 
ENDBRANCH  17  18
ENDBRANCH  16  17
ENDBRANCH  14  16
ENDBRANCH   2  12
BRANCH   1  21
ATOM     21  C   UNL     1       2.433   6.295  17.856  0.00  0.00    +0.000 C 
BRANCH  21  23
ATOM     22  N   UNL     1       4.340   5.040  16.984  0.00  0.00    +0.000 N 
ATOM     23  C   UNL     1       3.862   5.805  18.025  0.00  0.00    +0.000 C 
ATOM     24  O   UNL     1       4.536   6.089  19.015  0.00  0.00    +0.000 OA
ATOM     25  H   UNL     1       3.797   5.028  16.121  0.00  0.00    +0.000 HD
BRANCH  22  26
ATOM     26  C   UNL     1       5.698   4.533  16.961  0.00  0.00    +0.000 C 
BRANCH  26  27
ATOM     27  C   UNL     1       6.685   5.484  16.254  0.00  0.00    +0.000 C 
BRANCH  27  29
ATOM     28  C   UNL     1       7.400   7.461  17.476  0.00  0.00    +0.000 C 
ATOM     29  N   UNL     1       7.701   6.059  17.170  0.00  0.00    +0.000 NA
ATOM     30  C   UNL     1       7.753   5.294  18.420  0.00  0.00    +0.000 C 
ENDBRANCH  27  29
ENDBRANCH  26  27
ENDBRANCH  22  26
ENDBRANCH  21  23
ENDBRANCH   1  21
TORSDOF 9
ENDMDL
