MODEL 1
REMARK VINA RESULT:      -7.5      0.000      0.000
REMARK  Name = 
REMARK  9 active torsions:
REMARK  status: ('A' for Active; 'I' for Inactive)
REMARK    1  A    between atoms: C_2  and  C_3
REMARK    2  A    between atoms: C_3  and  C_4
REMARK    3  A    between atoms: C_5  and  S_6
REMARK    4  A    between atoms: S_6  and  C_7
REMARK    5  A    between atoms: N_19  and  C_20
REMARK    6  A    between atoms: C_20  and  C_21
REMARK    7  A    between atoms: N_27  and  C_28
REMARK    8  A    between atoms: C_28  and  C_29
REMARK    9  A    between atoms: C_29  and  O_30
REMARK                            x       y       z     vdW  Elec       q    Type
REMARK                         _______ _______ _______ _____ _____    ______ ____
ROOT
ATOM      1  C   UNL     1       5.052   6.278  16.838  0.00  0.00    +0.000 A 
ATOM      2  C   UNL     1       3.734   6.526  17.199  0.00  0.00    +0.000 A 
ATOM      3  C   UNL     1       3.104   5.290  17.509  0.00  0.00    +0.000 A 
ATOM      4  C   UNL     1       1.805   4.929  17.932  0.00  0.00    +0.000 A 
ATOM      5  C   UNL     1       1.498   3.588  18.173  0.00  0.00    +0.000 A 
ATOM      6  C   UNL     1       2.474   2.610  18.033  0.00  0.00    +0.000 A 
ATOM      7  C   UNL     1       3.769   2.939  17.618  0.00  0.00    +0.000 A 
ATOM      8  C   UNL     1       4.057   4.286  17.330  0.00  0.00    +0.000 A 
ATOM      9  N   UNL     1       5.205   4.894  16.841  0.00  0.00    +0.000 N 
ENDROOT
BRANCH   1  10
ATOM     10  C   UNL     1       6.154   7.232  16.456  0.00  0.00    +0.000 C 
BRANCH  10  12
ATOM     11  O   UNL     1       7.453   6.657  18.444  0.00  0.00    +0.000 OA
ATOM     12  C   UNL     1       7.182   7.457  17.563  0.00  0.00    +0.000 C 
ATOM     13  N   UNL     1       7.797   8.694  17.519  0.00  0.00    +0.000 N 
ATOM     14  H   UNL     1       7.532   9.375  16.816  0.00  0.00    +0.000 HD
BRANCH  13  15
ATOM     15  C   UNL     1       8.712   9.114  18.572  0.00  0.00    +0.000 C 
BRANCH  15  16
ATOM     16  C   UNL     1       8.915  10.629  18.616  0.00  0.00    +0.000 C 
BRANCH  16  17
ATOM     17  O   UNL     1      10.091  10.981  17.889  0.00  0.00    +0.000 OA
ATOM     18  H   UNL     1      10.651  11.466  18.524  0.00  0.00    +0.000 HD
ENDBRANCH  16  17
ENDBRANCH  15  16
ENDBRANCH  13  15
ENDBRANCH  10  12
ENDBRANCH   1  10
BRANCH   2  19
ATOM     19  S   UNL     1       2.946   8.082  17.388  0.00  0.00    +0.000 S 
BRANCH  19  20
ATOM     20  C   UNL     1       2.140   8.061  18.974  0.00  0.00    +0.000 A 
ATOM     21  C   UNL     1       2.329   7.064  19.937  0.00  0.00    +0.000 A 
ATOM     22  C   UNL     1       1.659   7.125  21.162  0.00  0.00    +0.000 A 
ATOM     23  C   UNL     1       0.796   8.182  21.440  0.00  0.00    +0.000 A 
ATOM     24  C   UNL     1       0.620   9.198  20.504  0.00  0.00    +0.000 A 
ATOM     25  C   UNL     1       1.292   9.135  19.281  0.00  0.00    +0.000 A 
ENDBRANCH  19  20
ENDBRANCH   2  19
BRANCH   9  26
ATOM     26  C   UNL     1       6.344   4.148  16.292  0.00  0.00    +0.000 C 
BRANCH  26  27
ATOM     27  C   UNL     1       6.494   4.201  14.788  0.00  0.00    +0.000 A 
ATOM     28  C   UNL     1       5.683   3.475  13.904  0.00  0.00    +0.000 A 
ATOM     29  C   UNL     1       5.932   3.492  12.531  0.00  0.00    +0.000 A 
ATOM     30  C   UNL     1       6.977   4.253  12.015  0.00  0.00    +0.000 A 
ATOM     31  C   UNL     1       7.753   5.033  12.869  0.00  0.00    +0.000 A 
ATOM     32  C   UNL     1       7.510   5.011  14.245  0.00  0.00    +0.000 A 
ENDBRANCH  26  27
ENDBRANCH   9  26
TORSDOF 9
ENDMDL
MODEL 2
REMARK VINA RESULT:      -7.4      8.470     12.096
REMARK  Name = 
REMARK  9 active torsions:
REMARK  status: ('A' for Active; 'I' for Inactive)
REMARK    1  A    between atoms: C_2  and  C_3
REMARK    2  A    between atoms: C_3  and  C_4
REMARK    3  A    between atoms: C_5  and  S_6
REMARK    4  A    between atoms: S_6  and  C_7
REMARK    5  A    between atoms: N_19  and  C_20
REMARK    6  A    between atoms: C_20  and  C_21
REMARK    7  A    between atoms: N_27  and  C_28
REMARK    8  A    between atoms: C_28  and  C_29
REMARK    9  A    between atoms: C_29  and  O_30
REMARK                            x       y       z     vdW  Elec       q    Type
REMARK                         _______ _______ _______ _____ _____    ______ ____
ROOT
ATOM      1  C   UNL     1      -3.675  12.567  19.862  0.00  0.00    +0.000 A 
ATOM      2  C   UNL     1      -5.037  12.384  20.057  0.00  0.00    +0.000 A 
ATOM      3  C   UNL     1      -5.326  12.531  21.441  0.00  0.00    +0.000 A 
ATOM      4  C   UNL     1      -6.509  12.461  22.210  0.00  0.00    +0.000 A 
ATOM      5  C   UNL     1      -6.459  12.674  23.589  0.00  0.00    +0.000 A 
ATOM      6  C   UNL     1      -5.254  12.991  24.204  0.00  0.00    +0.000 A 
ATOM      7  C   UNL     1      -4.067  13.069  23.467  0.00  0.00    +0.000 A 
ATOM      8  C   UNL     1      -4.119  12.804  22.086  0.00  0.00    +0.000 A 
ATOM      9  N   UNL     1      -3.118  12.737  21.127  0.00  0.00    +0.000 N 
ENDROOT
BRANCH   1  10
ATOM     10  C   UNL     1      -2.860  12.554  18.594  0.00  0.00    +0.000 C 
BRANCH  10  12
ATOM     11  O   UNL     1      -3.288  10.166  18.301  0.00  0.00    +0.000 OA
ATOM     12  C   UNL     1      -2.940  11.236  17.826  0.00  0.00    +0.000 C 
ATOM     13  N   UNL     1      -2.550  11.328  16.504  0.00  0.00    +0.000 N 
ATOM     14  H   UNL     1      -2.213  12.207  16.129  0.00  0.00    +0.000 HD
BRANCH  13  15
ATOM     15  C   UNL     1      -2.451  10.139  15.668  0.00  0.00    +0.000 C 
BRANCH  15  16
ATOM     16  C   UNL     1      -3.317  10.222  14.410  0.00  0.00    +0.000 C 
BRANCH  16  17
ATOM     17  O   UNL     1      -2.548   9.850  13.268  0.00  0.00    +0.000 OA
ATOM     18  H   UNL     1      -3.169   9.380  12.681  0.00  0.00    +0.000 HD
ENDBRANCH  16  17
ENDBRANCH  15  16
ENDBRANCH  13  15
ENDBRANCH  10  12
ENDBRANCH   1  10
BRANCH   2  19
ATOM     19  S   UNL     1      -6.274  12.138  18.837  0.00  0.00    +0.000 S 
BRANCH  19  20
ATOM     20  C   UNL     1      -6.602  13.727  18.108  0.00  0.00    +0.000 A 
ATOM     21  C   UNL     1      -6.883  13.926  16.752  0.00  0.00    +0.000 A 
ATOM     22  C   UNL     1      -7.133  15.210  16.259  0.00  0.00    +0.000 A 
ATOM     23  C   UNL     1      -7.108  16.309  17.115  0.00  0.00    +0.000 A 
ATOM     24  C   UNL     1      -6.859  16.124  18.473  0.00  0.00    +0.000 A 
ATOM     25  C   UNL     1      -6.610  14.840  18.961  0.00  0.00    +0.000 A 
ENDBRANCH  19  20
ENDBRANCH   2  19
BRANCH   9  26
ATOM     26  C   UNL     1      -1.687  12.719  21.452  0.00  0.00    +0.000 C 
BRANCH  26  27
ATOM     27  C   UNL     1      -1.097  11.353  21.722  0.00  0.00    +0.000 A 
ATOM     28  C   UNL     1      -1.033  10.778  23.000  0.00  0.00    +0.000 A 
ATOM     29  C   UNL     1      -0.391   9.554  23.199  0.00  0.00    +0.000 A 
ATOM     30  C   UNL     1       0.174   8.873  22.123  0.00  0.00    +0.000 A 
ATOM     31  C   UNL     1       0.063   9.396  20.838  0.00  0.00    +0.000 A 
ATOM     32  C   UNL     1      -0.572  10.624  20.638  0.00  0.00    +0.000 A 
ENDBRANCH  26  27
ENDBRANCH   9  26
TORSDOF 9
ENDMDL
MODEL 3
REMARK VINA RESULT:      -7.4      2.642      5.910
REMARK  Name = 
REMARK  9 active torsions:
REMARK  status: ('A' for Active; 'I' for Inactive)
REMARK    1  A    between atoms: C_2  and  C_3
REMARK    2  A    between atoms: C_3  and  C_4
REMARK    3  A    between atoms: C_5  and  S_6
REMARK    4  A    between atoms: S_6  and  C_7
REMARK    5  A    between atoms: N_19  and  C_20
REMARK    6  A    between atoms: C_20  and  C_21
REMARK    7  A    between atoms: N_27  and  C_28
REMARK    8  A    between atoms: C_28  and  C_29
REMARK    9  A    between atoms: C_29  and  O_30
REMARK                            x       y       z     vdW  Elec       q    Type
REMARK                         _______ _______ _______ _____ _____    ______ ____
ROOT
ATOM      1  C   UNL     1       5.397   4.728  16.521  0.00  0.00    +0.000 A 
ATOM      2  C   UNL     1       4.291   4.310  17.249  0.00  0.00    +0.000 A 
ATOM      3  C   UNL     1       3.547   5.453  17.649  0.00  0.00    +0.000 A 
ATOM      4  C   UNL     1       2.356   5.641  18.386  0.00  0.00    +0.000 A 
ATOM      5  C   UNL     1       1.864   6.930  18.600  0.00  0.00    +0.000 A 
ATOM      6  C   UNL     1       2.522   8.029  18.059  0.00  0.00    +0.000 A 
ATOM      7  C   UNL     1       3.701   7.872  17.324  0.00  0.00    +0.000 A 
ATOM      8  C   UNL     1       4.217   6.573  17.155  0.00  0.00    +0.000 A 
ATOM      9  N   UNL     1       5.380   6.120  16.549  0.00  0.00    +0.000 N 
ENDROOT
BRANCH   1  10
ATOM     10  C   UNL     1       6.479   3.927  15.843  0.00  0.00    +0.000 C 
BRANCH  10  12
ATOM     11  O   UNL     1       7.071   5.155  13.815  0.00  0.00    +0.000 OA
ATOM     12  C   UNL     1       6.571   4.171  14.338  0.00  0.00    +0.000 C 
ATOM     13  N   UNL     1       6.003   3.173  13.569  0.00  0.00    +0.000 N 
ATOM     14  H   UNL     1       5.544   2.384  14.008  0.00  0.00    +0.000 HD
BRANCH  13  15
ATOM     15  C   UNL     1       5.900   3.311  12.122  0.00  0.00    +0.000 C 
BRANCH  15  16
ATOM     16  C   UNL     1       5.649   1.979  11.413  0.00  0.00    +0.000 C 
BRANCH  16  17
ATOM     17  O   UNL     1       6.869   1.244  11.321  0.00  0.00    +0.000 OA
ATOM     18  H   UNL     1       7.233   1.236  12.226  0.00  0.00    +0.000 HD
ENDBRANCH  16  17
ENDBRANCH  15  16
ENDBRANCH  13  15
ENDBRANCH  10  12
ENDBRANCH   1  10
BRANCH   2  19
ATOM     19  S   UNL     1       3.766   2.664  17.556  0.00  0.00    +0.000 S 
BRANCH  19  20
ATOM     20  C   UNL     1       2.876   2.687  19.096  0.00  0.00    +0.000 A 
ATOM     21  C   UNL     1       3.486   2.736  20.354  0.00  0.00    +0.000 A 
ATOM     22  C   UNL     1       2.712   2.754  21.517  0.00  0.00    +0.000 A 
ATOM     23  C   UNL     1       1.322   2.725  21.439  0.00  0.00    +0.000 A 
ATOM     24  C   UNL     1       0.699   2.707  20.193  0.00  0.00    +0.000 A 
ATOM     25  C   UNL     1       1.475   2.689  19.032  0.00  0.00    +0.000 A 
ENDBRANCH  19  20
ENDBRANCH   2  19
BRANCH   9  26
ATOM     26  C   UNL     1       6.472   7.008  16.130  0.00  0.00    +0.000 C 
BRANCH  26  27
ATOM     27  C   UNL     1       7.357   7.522  17.242  0.00  0.00    +0.000 A 
ATOM     28  C   UNL     1       7.825   6.719  18.292  0.00  0.00    +0.000 A 
ATOM     29  C   UNL     1       8.561   7.273  19.341  0.00  0.00    +0.000 A 
ATOM     30  C   UNL     1       8.863   8.633  19.345  0.00  0.00    +0.000 A 
ATOM     31  C   UNL     1       8.465   9.434  18.280  0.00  0.00    +0.000 A 
ATOM     32  C   UNL     1       7.722   8.882  17.233  0.00  0.00    +0.000 A 
ENDBRANCH  26  27
ENDBRANCH   9  26
TORSDOF 9
ENDMDL
MODEL 4
REMARK VINA RESULT:      -7.4      5.814     10.162
REMARK  Name = 
REMARK  9 active torsions:
REMARK  status: ('A' for Active; 'I' for Inactive)
REMARK    1  A    between atoms: C_2  and  C_3
REMARK    2  A    between atoms: C_3  and  C_4
REMARK    3  A    between atoms: C_5  and  S_6
REMARK    4  A    between atoms: S_6  and  C_7
REMARK    5  A    between atoms: N_19  and  C_20
REMARK    6  A    between atoms: C_20  and  C_21
REMARK    7  A    between atoms: N_27  and  C_28
REMARK    8  A    between atoms: C_28  and  C_29
REMARK    9  A    between atoms: C_29  and  O_30
REMARK                            x       y       z     vdW  Elec       q    Type
REMARK                         _______ _______ _______ _____ _____    ______ ____
ROOT
ATOM      1  C   UNL     1      -0.116  12.601  19.385  0.00  0.00    +0.000 A 
ATOM      2  C   UNL     1       0.029  11.425  18.661  0.00  0.00    +0.000 A 
ATOM      3  C   UNL     1      -1.257  10.981  18.246  0.00  0.00    +0.000 A 
ATOM      4  C   UNL     1      -1.720   9.877  17.496  0.00  0.00    +0.000 A 
ATOM      5  C   UNL     1      -3.085   9.729  17.242  0.00  0.00    +0.000 A 
ATOM      6  C   UNL     1      -3.988  10.684  17.693  0.00  0.00    +0.000 A 
ATOM      7  C   UNL     1      -3.558  11.789  18.435  0.00  0.00    +0.000 A 
ATOM      8  C   UNL     1      -2.186  11.904  18.729  0.00  0.00    +0.000 A 
ATOM      9  N   UNL     1      -1.485  12.831  19.489  0.00  0.00    +0.000 N 
ENDROOT
BRANCH   1  10
ATOM     10  C   UNL     1       0.923  13.494  20.013  0.00  0.00    +0.000 C 
BRANCH  10  12
ATOM     11  O   UNL     1       0.772  15.537  18.682  0.00  0.00    +0.000 OA
ATOM     12  C   UNL     1       1.433  14.592  19.082  0.00  0.00    +0.000 C 
ATOM     13  N   UNL     1       2.745  14.427  18.680  0.00  0.00    +0.000 N 
ATOM     14  H   UNL     1       3.273  13.613  18.973  0.00  0.00    +0.000 HD
BRANCH  13  15
ATOM     15  C   UNL     1       3.345  15.319  17.696  0.00  0.00    +0.000 C 
BRANCH  15  16
ATOM     16  C   UNL     1       4.115  16.477  18.333  0.00  0.00    +0.000 C 
BRANCH  16  17
ATOM     17  O   UNL     1       3.200  17.471  18.791  0.00  0.00    +0.000 OA
ATOM     18  H   UNL     1       2.366  16.994  18.963  0.00  0.00    +0.000 HD
ENDBRANCH  16  17
ENDBRANCH  15  16
ENDBRANCH  13  15
ENDBRANCH  10  12
ENDBRANCH   1  10
BRANCH   2  19
ATOM     19  S   UNL     1       1.520  10.630  18.189  0.00  0.00    +0.000 S 
BRANCH  19  20
ATOM     20  C   UNL     1       1.622   9.125  19.132  0.00  0.00    +0.000 A 
ATOM     21  C   UNL     1       1.053   8.953  20.398  0.00  0.00    +0.000 A 
ATOM     22  C   UNL     1       1.176   7.735  21.073  0.00  0.00    +0.000 A 
ATOM     23  C   UNL     1       1.867   6.675  20.489  0.00  0.00    +0.000 A 
ATOM     24  C   UNL     1       2.413   6.821  19.217  0.00  0.00    +0.000 A 
ATOM     25  C   UNL     1       2.287   8.039  18.546  0.00  0.00    +0.000 A 
ENDBRANCH  19  20
ENDBRANCH   2  19
BRANCH   9  26
ATOM     26  C   UNL     1      -2.134  13.812  20.366  0.00  0.00    +0.000 C 
BRANCH  26  27
ATOM     27  C   UNL     1      -2.807  13.244  21.595  0.00  0.00    +0.000 A 
ATOM     28  C   UNL     1      -4.123  13.552  21.968  0.00  0.00    +0.000 A 
ATOM     29  C   UNL     1      -4.656  13.070  23.165  0.00  0.00    +0.000 A 
ATOM     30  C   UNL     1      -3.894  12.254  23.996  0.00  0.00    +0.000 A 
ATOM     31  C   UNL     1      -2.608  11.883  23.612  0.00  0.00    +0.000 A 
ATOM     32  C   UNL     1      -2.070  12.371  22.419  0.00  0.00    +0.000 A 
ENDBRANCH  26  27
ENDBRANCH   9  26
TORSDOF 9
ENDMDL
MODEL 5
REMARK VINA RESULT:      -7.3      7.016     11.592
REMARK  Name = 
REMARK  9 active torsions:
REMARK  status: ('A' for Active; 'I' for Inactive)
REMARK    1  A    between atoms: C_2  and  C_3
REMARK    2  A    between atoms: C_3  and  C_4
REMARK    3  A    between atoms: C_5  and  S_6
REMARK    4  A    between atoms: S_6  and  C_7
REMARK    5  A    between atoms: N_19  and  C_20
REMARK    6  A    between atoms: C_20  and  C_21
REMARK    7  A    between atoms: N_27  and  C_28
REMARK    8  A    between atoms: C_28  and  C_29
REMARK    9  A    between atoms: C_29  and  O_30
REMARK                            x       y       z     vdW  Elec       q    Type
REMARK                         _______ _______ _______ _____ _____    ______ ____
ROOT
ATOM      1  C   UNL     1      -2.847  10.833  17.978  0.00  0.00    +0.000 A 
ATOM      2  C   UNL     1      -1.663  11.307  18.528  0.00  0.00    +0.000 A 
ATOM      3  C   UNL     1      -1.976  12.267  19.529  0.00  0.00    +0.000 A 
ATOM      4  C   UNL     1      -1.201  13.059  20.406  0.00  0.00    +0.000 A 
ATOM      5  C   UNL     1      -1.830  13.919  21.308  0.00  0.00    +0.000 A 
ATOM      6  C   UNL     1      -3.217  13.973  21.373  0.00  0.00    +0.000 A 
ATOM      7  C   UNL     1      -4.009  13.198  20.519  0.00  0.00    +0.000 A 
ATOM      8  C   UNL     1      -3.366  12.372  19.579  0.00  0.00    +0.000 A 
ATOM      9  N   UNL     1      -3.874  11.560  18.574  0.00  0.00    +0.000 N 
ENDROOT
BRANCH   1  10
ATOM     10  C   UNL     1      -3.079   9.789  16.917  0.00  0.00    +0.000 C 
BRANCH  10  12
ATOM     11  O   UNL     1      -3.262  11.515  15.198  0.00  0.00    +0.000 OA
ATOM     12  C   UNL     1      -3.075  10.346  15.495  0.00  0.00    +0.000 C 
ATOM     13  N   UNL     1      -2.861   9.394  14.516  0.00  0.00    +0.000 N 
ATOM     14  H   UNL     1      -2.757   8.417  14.764  0.00  0.00    +0.000 HD
BRANCH  13  15
ATOM     15  C   UNL     1      -2.949   9.739  13.103  0.00  0.00    +0.000 C 
BRANCH  15  16
ATOM     16  C   UNL     1      -4.391   9.872  12.610  0.00  0.00    +0.000 C 
BRANCH  16  17
ATOM     17  O   UNL     1      -4.398  10.309  11.252  0.00  0.00    +0.000 OA
ATOM     18  H   UNL     1      -3.483  10.185  10.937  0.00  0.00    +0.000 HD
ENDBRANCH  16  17
ENDBRANCH  15  16
ENDBRANCH  13  15
ENDBRANCH  10  12
ENDBRANCH   1  10
BRANCH   2  19
ATOM     19  S   UNL     1      -0.028  10.769  18.188  0.00  0.00    +0.000 S 
BRANCH  19  20
ATOM     20  C   UNL     1       0.422   9.638  19.486  0.00  0.00    +0.000 A 
ATOM     21  C   UNL     1      -0.259   9.530  20.703  0.00  0.00    +0.000 A 
ATOM     22  C   UNL     1       0.159   8.612  21.670  0.00  0.00    +0.000 A 
ATOM     23  C   UNL     1       1.257   7.789  21.432  0.00  0.00    +0.000 A 
ATOM     24  C   UNL     1       1.926   7.863  20.213  0.00  0.00    +0.000 A 
ATOM     25  C   UNL     1       1.506   8.782  19.249  0.00  0.00    +0.000 A 
ENDBRANCH  19  20
ENDBRANCH   2  19
BRANCH   9  26
ATOM     26  C   UNL     1      -5.277  11.589  18.142  0.00  0.00    +0.000 C 
BRANCH  26  27
ATOM     27  C   UNL     1      -6.254  10.879  19.051  0.00  0.00    +0.000 A 
ATOM     28  C   UNL     1      -7.027  11.536  20.019  0.00  0.00    +0.000 A 
ATOM     29  C   UNL     1      -7.842  10.813  20.891  0.00  0.00    +0.000 A 
ATOM     30  C   UNL     1      -7.916   9.426  20.797  0.00  0.00    +0.000 A 
ATOM     31  C   UNL     1      -7.207   8.760  19.801  0.00  0.00    +0.000 A 
ATOM     32  C   UNL     1      -6.386   9.482  18.931  0.00  0.00    +0.000 A 
ENDBRANCH  26  27
ENDBRANCH   9  26
TORSDOF 9
ENDMDL
MODEL 6
REMARK VINA RESULT:      -7.3      5.609      8.588
REMARK  Name = 
REMARK  9 active torsions:
REMARK  status: ('A' for Active; 'I' for Inactive)
REMARK    1  A    between atoms: C_2  and  C_3
REMARK    2  A    between atoms: C_3  and  C_4
REMARK    3  A    between atoms: C_5  and  S_6
REMARK    4  A    between atoms: S_6  and  C_7
REMARK    5  A    between atoms: N_19  and  C_20
REMARK    6  A    between atoms: C_20  and  C_21
REMARK    7  A    between atoms: N_27  and  C_28
REMARK    8  A    between atoms: C_28  and  C_29
REMARK    9  A    between atoms: C_29  and  O_30
REMARK                            x       y       z     vdW  Elec       q    Type
REMARK                         _______ _______ _______ _____ _____    ______ ____
ROOT
ATOM      1  C   UNL     1       0.164  12.291  19.516  0.00  0.00    +0.000 A 
ATOM      2  C   UNL     1      -1.131  12.782  19.613  0.00  0.00    +0.000 A 
ATOM      3  C   UNL     1      -2.008  11.901  18.923  0.00  0.00    +0.000 A 
ATOM      4  C   UNL     1      -3.402  11.884  18.694  0.00  0.00    +0.000 A 
ATOM      5  C   UNL     1      -3.976  10.840  17.966  0.00  0.00    +0.000 A 
ATOM      6  C   UNL     1      -3.187   9.797  17.498  0.00  0.00    +0.000 A 
ATOM      7  C   UNL     1      -1.805   9.786  17.712  0.00  0.00    +0.000 A 
ATOM      8  C   UNL     1      -1.227  10.868  18.403  0.00  0.00    +0.000 A 
ATOM      9  N   UNL     1       0.096  11.166  18.699  0.00  0.00    +0.000 N 
ENDROOT
BRANCH   1  10
ATOM     10  C   UNL     1       1.452  12.816  20.095  0.00  0.00    +0.000 C 
BRANCH  10  12
ATOM     11  O   UNL     1       3.234  13.462  18.552  0.00  0.00    +0.000 OA
ATOM     12  C   UNL     1       2.212  13.751  19.155  0.00  0.00    +0.000 C 
ATOM     13  N   UNL     1       1.658  15.012  19.044  0.00  0.00    +0.000 N 
ATOM     14  H   UNL     1       0.840  15.263  19.586  0.00  0.00    +0.000 HD
BRANCH  13  15
ATOM     15  C   UNL     1       2.328  16.060  18.285  0.00  0.00    +0.000 C 
BRANCH  15  16
ATOM     16  C   UNL     1       1.603  17.404  18.357  0.00  0.00    +0.000 C 
BRANCH  16  17
ATOM     17  O   UNL     1       1.902  18.177  17.196  0.00  0.00    +0.000 OA
ATOM     18  H   UNL     1       2.707  18.680  17.421  0.00  0.00    +0.000 HD
ENDBRANCH  16  17
ENDBRANCH  15  16
ENDBRANCH  13  15
ENDBRANCH  10  12
ENDBRANCH   1  10
BRANCH   2  19
ATOM     19  S   UNL     1      -1.687  14.175  20.523  0.00  0.00    +0.000 S 
BRANCH  19  20
ATOM     20  C   UNL     1      -2.748  13.559  21.811  0.00  0.00    +0.000 A 
ATOM     21  C   UNL     1      -2.337  12.668  22.808  0.00  0.00    +0.000 A 
ATOM     22  C   UNL     1      -3.235  12.234  23.787  0.00  0.00    +0.000 A 
ATOM     23  C   UNL     1      -4.552  12.687  23.784  0.00  0.00    +0.000 A 
ATOM     24  C   UNL     1      -4.970  13.596  22.816  0.00  0.00    +0.000 A 
ATOM     25  C   UNL     1      -4.070  14.028  21.839  0.00  0.00    +0.000 A 
ENDBRANCH  19  20
ENDBRANCH   2  19
BRANCH   9  26
ATOM     26  C   UNL     1       1.236  10.454  18.109  0.00  0.00    +0.000 C 
BRANCH  26  27
ATOM     27  C   UNL     1       1.603   9.147  18.773  0.00  0.00    +0.000 A 
ATOM     28  C   UNL     1       2.277   8.107  18.115  0.00  0.00    +0.000 A 
ATOM     29  C   UNL     1       2.504   6.888  18.756  0.00  0.00    +0.000 A 
ATOM     30  C   UNL     1       2.085   6.694  20.069  0.00  0.00    +0.000 A 
ATOM     31  C   UNL     1       1.474   7.735  20.761  0.00  0.00    +0.000 A 
ATOM     32  C   UNL     1       1.239   8.954  20.120  0.00  0.00    +0.000 A 
ENDBRANCH  26  27
ENDBRANCH   9  26
TORSDOF 9
ENDMDL
MODEL 7
REMARK VINA RESULT:      -7.3      5.726     10.150
REMARK  Name = 
REMARK  9 active torsions:
REMARK  status: ('A' for Active; 'I' for Inactive)
REMARK    1  A    between atoms: C_2  and  C_3
REMARK    2  A    between atoms: C_3  and  C_4
REMARK    3  A    between atoms: C_5  and  S_6
REMARK    4  A    between atoms: S_6  and  C_7
REMARK    5  A    between atoms: N_19  and  C_20
REMARK    6  A    between atoms: C_20  and  C_21
REMARK    7  A    between atoms: N_27  and  C_28
REMARK    8  A    between atoms: C_28  and  C_29
REMARK    9  A    between atoms: C_29  and  O_30
REMARK                            x       y       z     vdW  Elec       q    Type
REMARK                         _______ _______ _______ _____ _____    ______ ____
ROOT
ATOM      1  C   UNL     1       0.128  12.435  19.308  0.00  0.00    +0.000 A 
ATOM      2  C   UNL     1       0.206  11.262  18.569  0.00  0.00    +0.000 A 
ATOM      3  C   UNL     1      -1.102  10.895  18.152  0.00  0.00    +0.000 A 
ATOM      4  C   UNL     1      -1.627   9.827  17.391  0.00  0.00    +0.000 A 
ATOM      5  C   UNL     1      -2.998   9.758  17.138  0.00  0.00    +0.000 A 
ATOM      6  C   UNL     1      -3.846  10.756  17.603  0.00  0.00    +0.000 A 
ATOM      7  C   UNL     1      -3.355  11.826  18.357  0.00  0.00    +0.000 A 
ATOM      8  C   UNL     1      -1.978  11.861  18.649  0.00  0.00    +0.000 A 
ATOM      9  N   UNL     1      -1.226  12.739  19.418  0.00  0.00    +0.000 N 
ENDROOT
BRANCH   1  10
ATOM     10  C   UNL     1       1.216  13.262  19.944  0.00  0.00    +0.000 C 
BRANCH  10  12
ATOM     11  O   UNL     1       2.429  14.033  17.968  0.00  0.00    +0.000 OA
ATOM     12  C   UNL     1       1.834  14.293  19.003  0.00  0.00    +0.000 C 
ATOM     13  N   UNL     1       1.696  15.600  19.428  0.00  0.00    +0.000 N 
ATOM     14  H   UNL     1       1.248  15.808  20.313  0.00  0.00    +0.000 HD
BRANCH  13  15
ATOM     15  C   UNL     1       2.335  16.694  18.708  0.00  0.00    +0.000 C 
BRANCH  15  16
ATOM     16  C   UNL     1       1.343  17.546  17.915  0.00  0.00    +0.000 C 
BRANCH  16  17
ATOM     17  O   UNL     1       1.981  18.077  16.755  0.00  0.00    +0.000 OA
ATOM     18  H   UNL     1       1.537  17.650  15.998  0.00  0.00    +0.000 HD
ENDBRANCH  16  17
ENDBRANCH  15  16
ENDBRANCH  13  15
ENDBRANCH  10  12
ENDBRANCH   1  10
BRANCH   2  19
ATOM     19  S   UNL     1       1.650  10.392  18.083  0.00  0.00    +0.000 S 
BRANCH  19  20
ATOM     20  C   UNL     1       1.709   8.906  19.060  0.00  0.00    +0.000 A 
ATOM     21  C   UNL     1       2.338   7.725  18.654  0.00  0.00    +0.000 A 
ATOM     22  C   UNL     1       2.341   6.601  19.484  0.00  0.00    +0.000 A 
ATOM     23  C   UNL     1       1.719   6.644  20.730  0.00  0.00    +0.000 A 
ATOM     24  C   UNL     1       1.114   7.822  21.161  0.00  0.00    +0.000 A 
ATOM     25  C   UNL     1       1.113   8.944  20.329  0.00  0.00    +0.000 A 
ENDBRANCH  19  20
ENDBRANCH   2  19
BRANCH   9  26
ATOM     26  C   UNL     1      -1.818  13.744  20.309  0.00  0.00    +0.000 C 
BRANCH  26  27
ATOM     27  C   UNL     1      -2.532  13.198  21.525  0.00  0.00    +0.000 A 
ATOM     28  C   UNL     1      -3.838  13.563  21.883  0.00  0.00    +0.000 A 
ATOM     29  C   UNL     1      -4.409  13.096  23.069  0.00  0.00    +0.000 A 
ATOM     30  C   UNL     1      -3.695  12.240  23.903  0.00  0.00    +0.000 A 
ATOM     31  C   UNL     1      -2.423  11.814  23.533  0.00  0.00    +0.000 A 
ATOM     32  C   UNL     1      -1.848  12.285  22.350  0.00  0.00    +0.000 A 
ENDBRANCH  26  27
ENDBRANCH   9  26
TORSDOF 9
ENDMDL
MODEL 8
REMARK VINA RESULT:      -7.3      7.908      9.941
REMARK  Name = 
REMARK  9 active torsions:
REMARK  status: ('A' for Active; 'I' for Inactive)
REMARK    1  A    between atoms: C_2  and  C_3
REMARK    2  A    between atoms: C_3  and  C_4
REMARK    3  A    between atoms: C_5  and  S_6
REMARK    4  A    between atoms: S_6  and  C_7
REMARK    5  A    between atoms: N_19  and  C_20
REMARK    6  A    between atoms: C_20  and  C_21
REMARK    7  A    between atoms: N_27  and  C_28
REMARK    8  A    between atoms: C_28  and  C_29
REMARK    9  A    between atoms: C_29  and  O_30
REMARK                            x       y       z     vdW  Elec       q    Type
REMARK                         _______ _______ _______ _____ _____    ______ ____
ROOT
ATOM      1  C   UNL     1      -0.875  13.186  20.686  0.00  0.00    +0.000 A 
ATOM      2  C   UNL     1      -1.062  12.788  22.003  0.00  0.00    +0.000 A 
ATOM      3  C   UNL     1      -0.800  11.395  22.103  0.00  0.00    +0.000 A 
ATOM      4  C   UNL     1      -0.822  10.465  23.166  0.00  0.00    +0.000 A 
ATOM      5  C   UNL     1      -0.491   9.129  22.932  0.00  0.00    +0.000 A 
ATOM      6  C   UNL     1      -0.103   8.717  21.664  0.00  0.00    +0.000 A 
ATOM      7  C   UNL     1      -0.069   9.615  20.592  0.00  0.00    +0.000 A 
ATOM      8  C   UNL     1      -0.453  10.949  20.827  0.00  0.00    +0.000 A 
ATOM      9  N   UNL     1      -0.587  12.029  19.965  0.00  0.00    +0.000 N 
ENDROOT
BRANCH   1  10
ATOM     10  C   UNL     1      -0.985  14.549  20.053  0.00  0.00    +0.000 C 
BRANCH  10  12
ATOM     11  O   UNL     1       0.626  16.167  20.922  0.00  0.00    +0.000 OA
ATOM     12  C   UNL     1       0.320  15.343  20.075  0.00  0.00    +0.000 C 
ATOM     13  N   UNL     1       1.161  15.077  19.011  0.00  0.00    +0.000 N 
ATOM     14  H   UNL     1       0.879  14.431  18.283  0.00  0.00    +0.000 HD
BRANCH  13  15
ATOM     15  C   UNL     1       2.388  15.839  18.818  0.00  0.00    +0.000 C 
BRANCH  15  16
ATOM     16  C   UNL     1       3.325  15.207  17.787  0.00  0.00    +0.000 C 
BRANCH  16  17
ATOM     17  O   UNL     1       3.009  13.825  17.631  0.00  0.00    +0.000 OA
ATOM     18  H   UNL     1       2.511  13.768  16.794  0.00  0.00    +0.000 HD
ENDBRANCH  16  17
ENDBRANCH  15  16
ENDBRANCH  13  15
ENDBRANCH  10  12
ENDBRANCH   1  10
BRANCH   2  19
ATOM     19  S   UNL     1      -1.432  13.799  23.388  0.00  0.00    +0.000 S 
BRANCH  19  20
ATOM     20  C   UNL     1      -3.195  13.733  23.617  0.00  0.00    +0.000 A 
ATOM     21  C   UNL     1      -3.878  12.630  24.139  0.00  0.00    +0.000 A 
ATOM     22  C   UNL     1      -5.267  12.661  24.289  0.00  0.00    +0.000 A 
ATOM     23  C   UNL     1      -5.989  13.794  23.923  0.00  0.00    +0.000 A 
ATOM     24  C   UNL     1      -5.322  14.911  23.429  0.00  0.00    +0.000 A 
ATOM     25  C   UNL     1      -3.933  14.878  23.281  0.00  0.00    +0.000 A 
ENDBRANCH  19  20
ENDBRANCH   2  19
BRANCH   9  26
ATOM     26  C   UNL     1      -0.555  11.906  18.503  0.00  0.00    +0.000 C 
BRANCH  26  27
ATOM     27  C   UNL     1      -1.793  11.311  17.871  0.00  0.00    +0.000 A 
ATOM     28  C   UNL     1      -1.761  10.239  16.968  0.00  0.00    +0.000 A 
ATOM     29  C   UNL     1      -2.929   9.796  16.346  0.00  0.00    +0.000 A 
ATOM     30  C   UNL     1      -4.151  10.399  16.633  0.00  0.00    +0.000 A 
ATOM     31  C   UNL     1      -4.214  11.422  17.575  0.00  0.00    +0.000 A 
ATOM     32  C   UNL     1      -3.044  11.871  18.194  0.00  0.00    +0.000 A 
ENDBRANCH  26  27
ENDBRANCH   9  26
TORSDOF 9
ENDMDL
MODEL 9
REMARK VINA RESULT:      -7.2      8.805     12.516
REMARK  Name = 
REMARK  9 active torsions:
REMARK  status: ('A' for Active; 'I' for Inactive)
REMARK    1  A    between atoms: C_2  and  C_3
REMARK    2  A    between atoms: C_3  and  C_4
REMARK    3  A    between atoms: C_5  and  S_6
REMARK    4  A    between atoms: S_6  and  C_7
REMARK    5  A    between atoms: N_19  and  C_20
REMARK    6  A    between atoms: C_20  and  C_21
REMARK    7  A    between atoms: N_27  and  C_28
REMARK    8  A    between atoms: C_28  and  C_29
REMARK    9  A    between atoms: C_29  and  O_30
REMARK                            x       y       z     vdW  Elec       q    Type
REMARK                         _______ _______ _______ _____ _____    ______ ____
ROOT
ATOM      1  C   UNL     1      -3.891  12.557  20.097  0.00  0.00    +0.000 A 
ATOM      2  C   UNL     1      -4.838  12.377  19.097  0.00  0.00    +0.000 A 
ATOM      3  C   UNL     1      -4.215  11.746  17.985  0.00  0.00    +0.000 A 
ATOM      4  C   UNL     1      -4.669  11.320  16.717  0.00  0.00    +0.000 A 
ATOM      5  C   UNL     1      -3.785  10.702  15.831  0.00  0.00    +0.000 A 
ATOM      6  C   UNL     1      -2.467  10.470  16.206  0.00  0.00    +0.000 A 
ATOM      7  C   UNL     1      -1.991  10.878  17.456  0.00  0.00    +0.000 A 
ATOM      8  C   UNL     1      -2.876  11.546  18.323  0.00  0.00    +0.000 A 
ATOM      9  N   UNL     1      -2.678  12.120  19.571  0.00  0.00    +0.000 N 
ENDROOT
BRANCH   1  10
ATOM     10  C   UNL     1      -4.032  13.138  21.480  0.00  0.00    +0.000 C 
BRANCH  10  12
ATOM     11  O   UNL     1      -3.660  15.506  21.007  0.00  0.00    +0.000 OA
ATOM     12  C   UNL     1      -4.361  14.630  21.488  0.00  0.00    +0.000 C 
ATOM     13  N   UNL     1      -5.544  14.944  22.128  0.00  0.00    +0.000 N 
ATOM     14  H   UNL     1      -6.097  14.219  22.571  0.00  0.00    +0.000 HD
BRANCH  13  15
ATOM     15  C   UNL     1      -5.941  16.331  22.331  0.00  0.00    +0.000 C 
BRANCH  15  16
ATOM     16  C   UNL     1      -5.925  16.747  23.803  0.00  0.00    +0.000 C 
BRANCH  16  17
ATOM     17  O   UNL     1      -6.360  18.099  23.928  0.00  0.00    +0.000 OA
ATOM     18  H   UNL     1      -7.309  18.087  23.699  0.00  0.00    +0.000 HD
ENDBRANCH  16  17
ENDBRANCH  15  16
ENDBRANCH  13  15
ENDBRANCH  10  12
ENDBRANCH   1  10
BRANCH   2  19
ATOM     19  S   UNL     1      -6.555  12.727  19.166  0.00  0.00    +0.000 S 
BRANCH  19  20
ATOM     20  C   UNL     1      -6.823  14.190  18.190  0.00  0.00    +0.000 A 
ATOM     21  C   UNL     1      -6.567  15.490  18.638  0.00  0.00    +0.000 A 
ATOM     22  C   UNL     1      -6.802  16.587  17.804  0.00  0.00    +0.000 A 
ATOM     23  C   UNL     1      -7.292  16.398  16.514  0.00  0.00    +0.000 A 
ATOM     24  C   UNL     1      -7.524  15.108  16.043  0.00  0.00    +0.000 A 
ATOM     25  C   UNL     1      -7.287  14.014  16.878  0.00  0.00    +0.000 A 
ENDBRANCH  19  20
ENDBRANCH   2  19
BRANCH   9  26
ATOM     26  C   UNL     1      -1.351  12.337  20.160  0.00  0.00    +0.000 C 
BRANCH  26  27
ATOM     27  C   UNL     1      -0.821  11.203  21.008  0.00  0.00    +0.000 A 
ATOM     28  C   UNL     1      -0.133  10.100  20.480  0.00  0.00    +0.000 A 
ATOM     29  C   UNL     1       0.249   9.039  21.303  0.00  0.00    +0.000 A 
ATOM     30  C   UNL     1      -0.026   9.072  22.667  0.00  0.00    +0.000 A 
ATOM     31  C   UNL     1      -0.649  10.187  23.221  0.00  0.00    +0.000 A 
ATOM     32  C   UNL     1      -1.039  11.247  22.398  0.00  0.00    +0.000 A 
ENDBRANCH  26  27
ENDBRANCH   9  26
TORSDOF 9
ENDMDL
