MODEL 1
REMARK VINA RESULT:      -7.4      0.000      0.000
REMARK  Name = 
REMARK  6 active torsions:
REMARK  status: ('A' for Active; 'I' for Inactive)
REMARK    1  A    between atoms: C_1  and  C_2
REMARK    2  A    between atoms: C_7  and  O_8
REMARK    3  A    between atoms: O_8  and  C_9
REMARK    4  A    between atoms: C_9  and  C_10
REMARK    5  A    between atoms: N_12  and  N_13
REMARK    6  A    between atoms: C_14  and  C_15
REMARK                            x       y       z     vdW  Elec       q    Type
REMARK                         _______ _______ _______ _____ _____    ______ ____
ROOT
ATOM      1  C   UNL     1       7.444   6.782  17.788  0.00  0.00    +0.000 C 
ATOM      2  O   UNL     1       7.970   6.177  18.720  0.00  0.00    +0.000 OA
ATOM      3  N   UNL     1       7.655   8.126  17.487  0.00  0.00    +0.000 N 
ATOM      4  H   UNL     1       7.128   8.593  16.758  0.00  0.00    +0.000 HD
ENDROOT
BRANCH   3   5
ATOM      5  N   UNL     1       8.519   8.835  18.263  0.00  0.00    +0.000 NA
ATOM      6  C   UNL     1       8.715  10.077  17.954  0.00  0.00    +0.000 C 
BRANCH   6   7
ATOM      7  C   UNL     1       9.608  10.925  18.773  0.00  0.00    +0.000 A 
ATOM      8  C   UNL     1       9.455  10.980  20.153  0.00  0.00    +0.000 A 
ATOM      9  C   UNL     1      10.278  11.838  20.873  0.00  0.00    +0.000 A 
ATOM     10  C   UNL     1      11.220  12.603  20.192  0.00  0.00    +0.000 A 
ATOM     11  C   UNL     1      11.307  12.469  18.812  0.00  0.00    +0.000 A 
ATOM     12  N   UNL     1      10.523  11.646  18.079  0.00  0.00    +0.000 NA
ENDBRANCH   6   7
ENDBRANCH   3   5
BRANCH   1  13
ATOM     13  C   UNL     1       6.520   6.079  16.800  0.00  0.00    +0.000 C 
BRANCH  13  14
ATOM     14  O   UNL     1       5.220   6.622  16.881  0.00  0.00    +0.000 OA
BRANCH  14  21
ATOM     15  C   UNL     1       2.533   7.554  18.295  0.00  0.00    +0.000 C 
ATOM     16  C   UNL     1       2.954   6.172  17.882  0.00  0.00    +0.000 A 
ATOM     17  C   UNL     1       2.039   5.136  18.177  0.00  0.00    +0.000 A 
ATOM     18  C   UNL     1       2.295   3.807  17.845  0.00  0.00    +0.000 A 
ATOM     19  C   UNL     1       3.474   3.481  17.195  0.00  0.00    +0.000 A 
ATOM     20  C   UNL     1       4.393   4.488  16.896  0.00  0.00    +0.000 A 
ATOM     21  C   UNL     1       4.158   5.834  17.237  0.00  0.00    +0.000 A 
ENDBRANCH  14  21
ENDBRANCH  13  14
ENDBRANCH   1  13
TORSDOF 5
ENDMDL
MODEL 2
REMARK VINA RESULT:      -7.1      1.115      1.493
REMARK  Name = 
REMARK  6 active torsions:
REMARK  status: ('A' for Active; 'I' for Inactive)
REMARK    1  A    between atoms: C_1  and  C_2
REMARK    2  A    between atoms: C_7  and  O_8
REMARK    3  A    between atoms: O_8  and  C_9
REMARK    4  A    between atoms: C_9  and  C_10
REMARK    5  A    between atoms: N_12  and  N_13
REMARK    6  A    between atoms: C_14  and  C_15
REMARK                            x       y       z     vdW  Elec       q    Type
REMARK                         _______ _______ _______ _____ _____    ______ ____
ROOT
ATOM      1  C   UNL     1       7.334   6.268  18.301  0.00  0.00    +0.000 C 
ATOM      2  O   UNL     1       7.892   5.850  19.313  0.00  0.00    +0.000 OA
ATOM      3  N   UNL     1       7.568   7.509  17.714  0.00  0.00    +0.000 N 
ATOM      4  H   UNL     1       7.016   7.834  16.928  0.00  0.00    +0.000 HD
ENDROOT
BRANCH   3   5
ATOM      5  N   UNL     1       8.496   8.327  18.280  0.00  0.00    +0.000 NA
ATOM      6  C   UNL     1       8.375   9.599  18.069  0.00  0.00    +0.000 C 
BRANCH   6   7
ATOM      7  C   UNL     1       9.318  10.558  18.684  0.00  0.00    +0.000 A 
ATOM      8  C   UNL     1      10.234  11.246  17.896  0.00  0.00    +0.000 A 
ATOM      9  C   UNL     1      11.140  12.092  18.527  0.00  0.00    +0.000 A 
ATOM     10  C   UNL     1      11.096  12.219  19.912  0.00  0.00    +0.000 A 
ATOM     11  C   UNL     1      10.136  11.500  20.612  0.00  0.00    +0.000 A 
ATOM     12  N   UNL     1       9.239  10.668  20.032  0.00  0.00    +0.000 NA
ENDBRANCH   6   7
ENDBRANCH   3   5
BRANCH   1  13
ATOM     13  C   UNL     1       6.335   5.412  17.529  0.00  0.00    +0.000 C 
BRANCH  13  14
ATOM     14  O   UNL     1       5.547   4.658  18.425  0.00  0.00    +0.000 OA
BRANCH  14  21
ATOM     15  C   UNL     1       3.247   6.838  18.217  0.00  0.00    +0.000 C 
ATOM     16  C   UNL     1       3.149   5.345  18.084  0.00  0.00    +0.000 A 
ATOM     17  C   UNL     1       1.853   4.831  17.852  0.00  0.00    +0.000 A 
ATOM     18  C   UNL     1       1.615   3.466  17.701  0.00  0.00    +0.000 A 
ATOM     19  C   UNL     1       2.676   2.578  17.768  0.00  0.00    +0.000 A 
ATOM     20  C   UNL     1       3.963   3.063  17.999  0.00  0.00    +0.000 A 
ATOM     21  C   UNL     1       4.221   4.437  18.168  0.00  0.00    +0.000 A 
ENDBRANCH  14  21
ENDBRANCH  13  14
ENDBRANCH   1  13
TORSDOF 5
ENDMDL
MODEL 3
REMARK VINA RESULT:      -7.1      5.141      8.140
REMARK  Name = 
REMARK  6 active torsions:
REMARK  status: ('A' for Active; 'I' for Inactive)
REMARK    1  A    between atoms: C_1  and  C_2
REMARK    2  A    between atoms: C_7  and  O_8
REMARK    3  A    between atoms: O_8  and  C_9
REMARK    4  A    between atoms: C_9  and  C_10
REMARK    5  A    between atoms: N_12  and  N_13
REMARK    6  A    between atoms: C_14  and  C_15
REMARK                            x       y       z     vdW  Elec       q    Type
REMARK                         _______ _______ _______ _____ _____    ______ ____
ROOT
ATOM      1  C   UNL     1       6.419   5.136  17.540  0.00  0.00    +0.000 C 
ATOM      2  O   UNL     1       5.576   6.030  17.529  0.00  0.00    +0.000 OA
ATOM      3  N   UNL     1       6.401   4.033  18.391  0.00  0.00    +0.000 N 
ATOM      4  H   UNL     1       7.169   3.371  18.413  0.00  0.00    +0.000 HD
ENDROOT
BRANCH   3   5
ATOM      5  N   UNL     1       5.372   3.910  19.271  0.00  0.00    +0.000 NA
ATOM      6  C   UNL     1       4.260   3.422  18.822  0.00  0.00    +0.000 C 
BRANCH   6   7
ATOM      7  C   UNL     1       3.106   3.218  19.725  0.00  0.00    +0.000 A 
ATOM      8  C   UNL     1       1.847   3.691  19.375  0.00  0.00    +0.000 A 
ATOM      9  C   UNL     1       0.807   3.529  20.283  0.00  0.00    +0.000 A 
ATOM     10  C   UNL     1       1.062   2.902  21.499  0.00  0.00    +0.000 A 
ATOM     11  C   UNL     1       2.350   2.451  21.753  0.00  0.00    +0.000 A 
ATOM     12  N   UNL     1       3.386   2.592  20.894  0.00  0.00    +0.000 NA
ENDBRANCH   6   7
ENDBRANCH   3   5
BRANCH   1  13
ATOM     13  C   UNL     1       7.576   5.117  16.548  0.00  0.00    +0.000 C 
BRANCH  13  14
ATOM     14  O   UNL     1       7.204   5.774  15.356  0.00  0.00    +0.000 OA
BRANCH  14  21
ATOM     15  C   UNL     1       8.870   5.990  12.661  0.00  0.00    +0.000 C 
ATOM     16  C   UNL     1       7.684   5.121  12.972  0.00  0.00    +0.000 A 
ATOM     17  C   UNL     1       7.231   4.297  11.917  0.00  0.00    +0.000 A 
ATOM     18  C   UNL     1       6.145   3.436  12.067  0.00  0.00    +0.000 A 
ATOM     19  C   UNL     1       5.490   3.370  13.285  0.00  0.00    +0.000 A 
ATOM     20  C   UNL     1       5.919   4.176  14.339  0.00  0.00    +0.000 A 
ATOM     21  C   UNL     1       7.005   5.063  14.203  0.00  0.00    +0.000 A 
ENDBRANCH  14  21
ENDBRANCH  13  14
ENDBRANCH   1  13
TORSDOF 5
ENDMDL
MODEL 4
REMARK VINA RESULT:      -7.1      5.234      6.761
REMARK  Name = 
REMARK  6 active torsions:
REMARK  status: ('A' for Active; 'I' for Inactive)
REMARK    1  A    between atoms: C_1  and  C_2
REMARK    2  A    between atoms: C_7  and  O_8
REMARK    3  A    between atoms: O_8  and  C_9
REMARK    4  A    between atoms: C_9  and  C_10
REMARK    5  A    between atoms: N_12  and  N_13
REMARK    6  A    between atoms: C_14  and  C_15
REMARK                            x       y       z     vdW  Elec       q    Type
REMARK                         _______ _______ _______ _____ _____    ______ ____
ROOT
ATOM      1  C   UNL     1       5.441   5.340  18.285  0.00  0.00    +0.000 C 
ATOM      2  O   UNL     1       5.017   6.285  17.622  0.00  0.00    +0.000 OA
ATOM      3  N   UNL     1       6.366   4.400  17.836  0.00  0.00    +0.000 N 
ATOM      4  H   UNL     1       6.614   3.594  18.398  0.00  0.00    +0.000 HD
ENDROOT
BRANCH   3   5
ATOM      5  N   UNL     1       6.863   4.532  16.577  0.00  0.00    +0.000 NA
ATOM      6  C   UNL     1       6.096   4.179  15.594  0.00  0.00    +0.000 C 
BRANCH   6   7
ATOM      7  C   UNL     1       6.547   4.330  14.194  0.00  0.00    +0.000 A 
ATOM      8  C   UNL     1       6.010   3.530  13.192  0.00  0.00    +0.000 A 
ATOM      9  C   UNL     1       6.509   3.668  11.902  0.00  0.00    +0.000 A 
ATOM     10  C   UNL     1       7.517   4.596  11.662  0.00  0.00    +0.000 A 
ATOM     11  C   UNL     1       7.981   5.359  12.725  0.00  0.00    +0.000 A 
ATOM     12  N   UNL     1       7.520   5.252  13.993  0.00  0.00    +0.000 NA
ENDBRANCH   6   7
ENDBRANCH   3   5
BRANCH   1  13
ATOM     13  C   UNL     1       5.022   5.132  19.736  0.00  0.00    +0.000 C 
BRANCH  13  14
ATOM     14  O   UNL     1       4.628   3.792  19.940  0.00  0.00    +0.000 OA
BRANCH  14  21
ATOM     15  C   UNL     1       3.558   1.601  17.906  0.00  0.00    +0.000 C 
ATOM     16  C   UNL     1       2.781   2.472  18.852  0.00  0.00    +0.000 A 
ATOM     17  C   UNL     1       1.377   2.311  18.824  0.00  0.00    +0.000 A 
ATOM     18  C   UNL     1       0.533   3.048  19.652  0.00  0.00    +0.000 A 
ATOM     19  C   UNL     1       1.076   3.961  20.541  0.00  0.00    +0.000 A 
ATOM     20  C   UNL     1       2.459   4.137  20.583  0.00  0.00    +0.000 A 
ATOM     21  C   UNL     1       3.327   3.413  19.745  0.00  0.00    +0.000 A 
ENDBRANCH  14  21
ENDBRANCH  13  14
ENDBRANCH   1  13
TORSDOF 5
ENDMDL
MODEL 5
REMARK VINA RESULT:      -7.0      1.527      1.872
REMARK  Name = 
REMARK  6 active torsions:
REMARK  status: ('A' for Active; 'I' for Inactive)
REMARK    1  A    between atoms: C_1  and  C_2
REMARK    2  A    between atoms: C_7  and  O_8
REMARK    3  A    between atoms: O_8  and  C_9
REMARK    4  A    between atoms: C_9  and  C_10
REMARK    5  A    between atoms: N_12  and  N_13
REMARK    6  A    between atoms: C_14  and  C_15
REMARK                            x       y       z     vdW  Elec       q    Type
REMARK                         _______ _______ _______ _____ _____    ______ ____
ROOT
ATOM      1  C   UNL     1       7.523   6.416  17.510  0.00  0.00    +0.000 C 
ATOM      2  O   UNL     1       7.399   6.601  16.301  0.00  0.00    +0.000 OA
ATOM      3  N   UNL     1       7.972   7.368  18.422  0.00  0.00    +0.000 N 
ATOM      4  H   UNL     1       8.135   7.132  19.394  0.00  0.00    +0.000 HD
ENDROOT
BRANCH   3   5
ATOM      5  N   UNL     1       8.286   8.609  17.961  0.00  0.00    +0.000 NA
ATOM      6  C   UNL     1       8.848   9.428  18.791  0.00  0.00    +0.000 C 
BRANCH   6   7
ATOM      7  C   UNL     1       9.257  10.781  18.355  0.00  0.00    +0.000 A 
ATOM      8  C   UNL     1      10.562  11.218  18.552  0.00  0.00    +0.000 A 
ATOM      9  C   UNL     1      10.883  12.519  18.180  0.00  0.00    +0.000 A 
ATOM     10  C   UNL     1       9.896  13.327  17.625  0.00  0.00    +0.000 A 
ATOM     11  C   UNL     1       8.625  12.797  17.455  0.00  0.00    +0.000 A 
ATOM     12  N   UNL     1       8.275  11.537  17.806  0.00  0.00    +0.000 NA
ENDBRANCH   6   7
ENDBRANCH   3   5
BRANCH   1  13
ATOM     13  C   UNL     1       7.127   5.095  18.160  0.00  0.00    +0.000 C 
BRANCH  13  14
ATOM     14  O   UNL     1       6.033   5.291  19.030  0.00  0.00    +0.000 OA
BRANCH  14  21
ATOM     15  C   UNL     1       3.809   7.078  17.635  0.00  0.00    +0.000 C 
ATOM     16  C   UNL     1       3.735   5.640  18.064  0.00  0.00    +0.000 A 
ATOM     17  C   UNL     1       2.499   4.993  17.835  0.00  0.00    +0.000 A 
ATOM     18  C   UNL     1       2.290   3.658  18.176  0.00  0.00    +0.000 A 
ATOM     19  C   UNL     1       3.321   2.931  18.749  0.00  0.00    +0.000 A 
ATOM     20  C   UNL     1       4.547   3.551  18.986  0.00  0.00    +0.000 A 
ATOM     21  C   UNL     1       4.773   4.902  18.662  0.00  0.00    +0.000 A 
ENDBRANCH  14  21
ENDBRANCH  13  14
ENDBRANCH   1  13
TORSDOF 5
ENDMDL
MODEL 6
REMARK VINA RESULT:      -7.0      4.960      7.408
REMARK  Name = 
REMARK  6 active torsions:
REMARK  status: ('A' for Active; 'I' for Inactive)
REMARK    1  A    between atoms: C_1  and  C_2
REMARK    2  A    between atoms: C_7  and  O_8
REMARK    3  A    between atoms: O_8  and  C_9
REMARK    4  A    between atoms: C_9  and  C_10
REMARK    5  A    between atoms: N_12  and  N_13
REMARK    6  A    between atoms: C_14  and  C_15
REMARK                            x       y       z     vdW  Elec       q    Type
REMARK                         _______ _______ _______ _____ _____    ______ ____
ROOT
ATOM      1  C   UNL     1       2.526   6.567  19.677  0.00  0.00    +0.000 C 
ATOM      2  O   UNL     1       2.545   7.362  18.740  0.00  0.00    +0.000 OA
ATOM      3  N   UNL     1       1.788   6.729  20.848  0.00  0.00    +0.000 N 
ATOM      4  H   UNL     1       1.878   6.082  21.622  0.00  0.00    +0.000 HD
ENDROOT
BRANCH   3   5
ATOM      5  N   UNL     1       1.009   7.837  20.973  0.00  0.00    +0.000 NA
ATOM      6  C   UNL     1       1.323   8.684  21.901  0.00  0.00    +0.000 C 
BRANCH   6   7
ATOM      7  C   UNL     1       0.551   9.933  22.074  0.00  0.00    +0.000 A 
ATOM      8  C   UNL     1      -0.554   9.965  22.916  0.00  0.00    +0.000 A 
ATOM      9  C   UNL     1      -1.284  11.146  22.999  0.00  0.00    +0.000 A 
ATOM     10  C   UNL     1      -0.882  12.245  22.246  0.00  0.00    +0.000 A 
ATOM     11  C   UNL     1       0.245  12.120  21.444  0.00  0.00    +0.000 A 
ATOM     12  N   UNL     1       0.978  10.988  21.337  0.00  0.00    +0.000 NA
ENDBRANCH   6   7
ENDBRANCH   3   5
BRANCH   1  13
ATOM     13  C   UNL     1       3.292   5.250  19.623  0.00  0.00    +0.000 C 
BRANCH  13  14
ATOM     14  O   UNL     1       4.679   5.499  19.533  0.00  0.00    +0.000 OA
BRANCH  14  21
ATOM     15  C   UNL     1       7.796   5.844  19.032  0.00  0.00    +0.000 C 
ATOM     16  C   UNL     1       6.757   5.229  18.138  0.00  0.00    +0.000 A 
ATOM     17  C   UNL     1       7.223   4.753  16.891  0.00  0.00    +0.000 A 
ATOM     18  C   UNL     1       6.371   4.153  15.964  0.00  0.00    +0.000 A 
ATOM     19  C   UNL     1       5.029   4.005  16.269  0.00  0.00    +0.000 A 
ATOM     20  C   UNL     1       4.547   4.469  17.493  0.00  0.00    +0.000 A 
ATOM     21  C   UNL     1       5.389   5.091  18.436  0.00  0.00    +0.000 A 
ENDBRANCH  14  21
ENDBRANCH  13  14
ENDBRANCH   1  13
TORSDOF 5
ENDMDL
MODEL 7
REMARK VINA RESULT:      -7.0      1.997      2.749
REMARK  Name = 
REMARK  6 active torsions:
REMARK  status: ('A' for Active; 'I' for Inactive)
REMARK    1  A    between atoms: C_1  and  C_2
REMARK    2  A    between atoms: C_7  and  O_8
REMARK    3  A    between atoms: O_8  and  C_9
REMARK    4  A    between atoms: C_9  and  C_10
REMARK    5  A    between atoms: N_12  and  N_13
REMARK    6  A    between atoms: C_14  and  C_15
REMARK                            x       y       z     vdW  Elec       q    Type
REMARK                         _______ _______ _______ _____ _____    ______ ____
ROOT
ATOM      1  C   UNL     1       6.838   5.610  18.787  0.00  0.00    +0.000 C 
ATOM      2  O   UNL     1       7.230   5.633  19.952  0.00  0.00    +0.000 OA
ATOM      3  N   UNL     1       7.170   6.550  17.814  0.00  0.00    +0.000 N 
ATOM      4  H   UNL     1       6.749   6.526  16.892  0.00  0.00    +0.000 HD
ENDROOT
BRANCH   3   5
ATOM      5  N   UNL     1       8.003   7.569  18.156  0.00  0.00    +0.000 NA
ATOM      6  C   UNL     1       7.645   8.768  17.825  0.00  0.00    +0.000 C 
BRANCH   6   7
ATOM      7  C   UNL     1       8.476   9.934  18.197  0.00  0.00    +0.000 A 
ATOM      8  C   UNL     1       9.396   9.838  19.235  0.00  0.00    +0.000 A 
ATOM      9  C   UNL     1      10.111  10.977  19.587  0.00  0.00    +0.000 A 
ATOM     10  C   UNL     1       9.883  12.161  18.893  0.00  0.00    +0.000 A 
ATOM     11  C   UNL     1       8.952  12.155  17.862  0.00  0.00    +0.000 A 
ATOM     12  N   UNL     1       8.238  11.066  17.492  0.00  0.00    +0.000 NA
ENDBRANCH   6   7
ENDBRANCH   3   5
BRANCH   1  13
ATOM     13  C   UNL     1       5.966   4.476  18.261  0.00  0.00    +0.000 C 
BRANCH  13  14
ATOM     14  O   UNL     1       5.350   3.799  19.335  0.00  0.00    +0.000 OA
BRANCH  14  21
ATOM     15  C   UNL     1       3.531   1.397  18.332  0.00  0.00    +0.000 C 
ATOM     16  C   UNL     1       3.118   2.693  18.969  0.00  0.00    +0.000 A 
ATOM     17  C   UNL     1       1.726   2.884  19.130  0.00  0.00    +0.000 A 
ATOM     18  C   UNL     1       1.201   4.037  19.712  0.00  0.00    +0.000 A 
ATOM     19  C   UNL     1       2.060   5.027  20.160  0.00  0.00    +0.000 A 
ATOM     20  C   UNL     1       3.437   4.860  20.008  0.00  0.00    +0.000 A 
ATOM     21  C   UNL     1       3.986   3.710  19.410  0.00  0.00    +0.000 A 
ENDBRANCH  14  21
ENDBRANCH  13  14
ENDBRANCH   1  13
TORSDOF 5
ENDMDL
MODEL 8
REMARK VINA RESULT:      -7.0      1.392      1.747
REMARK  Name = 
REMARK  6 active torsions:
REMARK  status: ('A' for Active; 'I' for Inactive)
REMARK    1  A    between atoms: C_1  and  C_2
REMARK    2  A    between atoms: C_7  and  O_8
REMARK    3  A    between atoms: O_8  and  C_9
REMARK    4  A    between atoms: C_9  and  C_10
REMARK    5  A    between atoms: N_12  and  N_13
REMARK    6  A    between atoms: C_14  and  C_15
REMARK                            x       y       z     vdW  Elec       q    Type
REMARK                         _______ _______ _______ _____ _____    ______ ____
ROOT
ATOM      1  C   UNL     1       7.374   6.839  17.826  0.00  0.00    +0.000 C 
ATOM      2  O   UNL     1       6.859   7.208  16.772  0.00  0.00    +0.000 OA
ATOM      3  N   UNL     1       8.236   7.606  18.605  0.00  0.00    +0.000 N 
ATOM      4  H   UNL     1       8.697   7.218  19.420  0.00  0.00    +0.000 HD
ENDROOT
BRANCH   3   5
ATOM      5  N   UNL     1       8.528   8.870  18.195  0.00  0.00    +0.000 NA
ATOM      6  C   UNL     1       9.135   9.644  19.037  0.00  0.00    +0.000 C 
BRANCH   6   7
ATOM      7  C   UNL     1       9.524  11.018  18.652  0.00  0.00    +0.000 A 
ATOM      8  C   UNL     1       8.645  11.824  17.938  0.00  0.00    +0.000 A 
ATOM      9  C   UNL     1       9.079  13.086  17.547  0.00  0.00    +0.000 A 
ATOM     10  C   UNL     1      10.365  13.494  17.885  0.00  0.00    +0.000 A 
ATOM     11  C   UNL     1      11.166  12.623  18.613  0.00  0.00    +0.000 A 
ATOM     12  N   UNL     1      10.778  11.389  19.009  0.00  0.00    +0.000 NA
ENDBRANCH   6   7
ENDBRANCH   3   5
BRANCH   1  13
ATOM     13  C   UNL     1       7.061   5.476  18.432  0.00  0.00    +0.000 C 
BRANCH  13  14
ATOM     14  O   UNL     1       5.880   5.546  19.201  0.00  0.00    +0.000 OA
BRANCH  14  21
ATOM     15  C   UNL     1       3.464   7.116  17.864  0.00  0.00    +0.000 C 
ATOM     16  C   UNL     1       3.595   5.646  18.150  0.00  0.00    +0.000 A 
ATOM     17  C   UNL     1       2.483   4.849  17.793  0.00  0.00    +0.000 A 
ATOM     18  C   UNL     1       2.468   3.470  17.994  0.00  0.00    +0.000 A 
ATOM     19  C   UNL     1       3.575   2.850  18.550  0.00  0.00    +0.000 A 
ATOM     20  C   UNL     1       4.681   3.618  18.912  0.00  0.00    +0.000 A 
ATOM     21  C   UNL     1       4.710   5.014  18.730  0.00  0.00    +0.000 A 
ENDBRANCH  14  21
ENDBRANCH  13  14
ENDBRANCH   1  13
TORSDOF 5
ENDMDL
MODEL 9
REMARK VINA RESULT:      -7.0      1.337      1.546
REMARK  Name = 
REMARK  6 active torsions:
REMARK  status: ('A' for Active; 'I' for Inactive)
REMARK    1  A    between atoms: C_1  and  C_2
REMARK    2  A    between atoms: C_7  and  O_8
REMARK    3  A    between atoms: O_8  and  C_9
REMARK    4  A    between atoms: C_9  and  C_10
REMARK    5  A    between atoms: N_12  and  N_13
REMARK    6  A    between atoms: C_14  and  C_15
REMARK                            x       y       z     vdW  Elec       q    Type
REMARK                         _______ _______ _______ _____ _____    ______ ____
ROOT
ATOM      1  C   UNL     1       6.875   5.608  18.584  0.00  0.00    +0.000 C 
ATOM      2  O   UNL     1       6.957   5.608  19.811  0.00  0.00    +0.000 OA
ATOM      3  N   UNL     1       7.416   6.582  17.747  0.00  0.00    +0.000 N 
ATOM      4  H   UNL     1       7.243   6.574  16.748  0.00  0.00    +0.000 HD
ENDROOT
BRANCH   3   5
ATOM      5  N   UNL     1       8.105   7.609  18.311  0.00  0.00    +0.000 NA
ATOM      6  C   UNL     1       7.971   8.781  17.777  0.00  0.00    +0.000 C 
BRANCH   6   7
ATOM      7  C   UNL     1       8.655   9.957  18.357  0.00  0.00    +0.000 A 
ATOM      8  C   UNL     1       9.253   9.876  19.609  0.00  0.00    +0.000 A 
ATOM      9  C   UNL     1       9.830  11.025  20.138  0.00  0.00    +0.000 A 
ATOM     10  C   UNL     1       9.792  12.203  19.399  0.00  0.00    +0.000 A 
ATOM     11  C   UNL     1       9.183  12.182  18.151  0.00  0.00    +0.000 A 
ATOM     12  N   UNL     1       8.611  11.084  17.605  0.00  0.00    +0.000 NA
ENDBRANCH   6   7
ENDBRANCH   3   5
BRANCH   1  13
ATOM     13  C   UNL     1       6.198   4.469  17.829  0.00  0.00    +0.000 C 
BRANCH  13  14
ATOM     14  O   UNL     1       5.007   4.927  17.226  0.00  0.00    +0.000 OA
BRANCH  14  21
ATOM     15  C   UNL     1       2.845   6.548  18.895  0.00  0.00    +0.000 C 
ATOM     16  C   UNL     1       2.798   5.125  18.417  0.00  0.00    +0.000 A 
ATOM     17  C   UNL     1       1.640   4.395  18.772  0.00  0.00    +0.000 A 
ATOM     18  C   UNL     1       1.458   3.067  18.391  0.00  0.00    +0.000 A 
ATOM     19  C   UNL     1       2.430   2.436  17.631  0.00  0.00    +0.000 A 
ATOM     20  C   UNL     1       3.581   3.137  17.272  0.00  0.00    +0.000 A 
ATOM     21  C   UNL     1       3.790   4.475  17.660  0.00  0.00    +0.000 A 
ENDBRANCH  14  21
ENDBRANCH  13  14
ENDBRANCH   1  13
TORSDOF 5
ENDMDL
