MODEL 1
REMARK VINA RESULT:      -7.3      0.000      0.000
REMARK  Name = 
REMARK  6 active torsions:
REMARK  status: ('A' for Active; 'I' for Inactive)
REMARK    1  A    between atoms: C_1  and  C_2
REMARK    2  A    between atoms: C_2  and  C_3
REMARK    3  A    between atoms: C_6  and  C_7
REMARK    4  A    between atoms: C_8  and  C_9
REMARK    5  A    between atoms: N_11  and  N_12
REMARK    6  A    between atoms: C_13  and  C_15
REMARK                            x       y       z     vdW  Elec       q    Type
REMARK                         _______ _______ _______ _____ _____    ______ ____
ROOT
ATOM      1  C   UNL     1       2.591   5.617  20.003  0.00  0.00    +0.000 C 
ATOM      2  O   UNL     1       1.941   5.158  20.943  0.00  0.00    +0.000 OA
ATOM      3  N   UNL     1       2.638   6.981  19.782  0.00  0.00    +0.000 N 
ATOM      4  H   UNL     1       3.152   7.440  19.043  0.00  0.00    +0.000 HD
ENDROOT
BRANCH   1  10
ATOM      5  C   UNL     1       2.790   3.780  18.202  0.00  0.00    +0.000 A 
ATOM      6  N   UNL     1       3.751   3.172  17.492  0.00  0.00    +0.000 NA
ATOM      7  O   UNL     1       4.934   3.740  17.898  0.00  0.00    +0.000 OA
ATOM      8  C   UNL     1       4.698   4.689  18.843  0.00  0.00    +0.000 A 
ATOM      9  C   UNL     1       5.910   5.365  19.345  0.00  0.00    +0.000 C 
ATOM     10  C   UNL     1       3.336   4.766  19.088  0.00  0.00    +0.000 A 
BRANCH   5  12
ATOM     11  C   UNL     1       0.835   2.353  18.927  0.00  0.00    +0.000 C 
ATOM     12  C   UNL     1       1.362   3.409  17.967  0.00  0.00    +0.000 C 
ENDBRANCH   5  12
ENDBRANCH   1  10
BRANCH   3  13
ATOM     13  N   UNL     1       1.923   7.825  20.641  0.00  0.00    +0.000 N 
ATOM     14  C   UNL     1       1.241   8.896  20.112  0.00  0.00    +0.000 C 
ATOM     15  O   UNL     1       1.221   9.125  18.901  0.00  0.00    +0.000 OA
ATOM     16  H   UNL     1       2.032   7.660  21.643  0.00  0.00    +0.000 HD
BRANCH  14  17
ATOM     17  C   UNL     1       0.464   9.750  21.059  0.00  0.00    +0.000 A 
ATOM     18  C   UNL     1      -0.007   9.127  22.230  0.00  0.00    +0.000 A 
ATOM     19  C   UNL     1      -0.714   9.858  23.192  0.00  0.00    +0.000 A 
ATOM     20  C   UNL     1      -0.966  11.210  22.990  0.00  0.00    +0.000 A 
ATOM     21  C   UNL     1      -0.522  11.832  21.822  0.00  0.00    +0.000 A 
ATOM     22  C   UNL     1       0.185  11.108  20.854  0.00  0.00    +0.000 A 
ATOM     23 CL   UNL     1       0.616  11.973  19.420  0.00  0.00    +0.000 Cl
ENDBRANCH  14  17
ENDBRANCH   3  13
TORSDOF 4
ENDMDL
MODEL 2
REMARK VINA RESULT:      -7.1      1.662      2.028
REMARK  Name = 
REMARK  6 active torsions:
REMARK  status: ('A' for Active; 'I' for Inactive)
REMARK    1  A    between atoms: C_1  and  C_2
REMARK    2  A    between atoms: C_2  and  C_3
REMARK    3  A    between atoms: C_6  and  C_7
REMARK    4  A    between atoms: C_8  and  C_9
REMARK    5  A    between atoms: N_11  and  N_12
REMARK    6  A    between atoms: C_13  and  C_15
REMARK                            x       y       z     vdW  Elec       q    Type
REMARK                         _______ _______ _______ _____ _____    ______ ____
ROOT
ATOM      1  C   UNL     1       2.357   7.209  19.408  0.00  0.00    +0.000 C 
ATOM      2  O   UNL     1       2.129   7.920  18.428  0.00  0.00    +0.000 OA
ATOM      3  N   UNL     1       1.979   7.618  20.673  0.00  0.00    +0.000 N 
ATOM      4  H   UNL     1       2.118   7.094  21.526  0.00  0.00    +0.000 HD
ENDROOT
BRANCH   1  10
ATOM      5  C   UNL     1       2.588   4.681  19.872  0.00  0.00    +0.000 A 
ATOM      6  N   UNL     1       3.425   3.680  19.570  0.00  0.00    +0.000 NA
ATOM      7  O   UNL     1       4.414   4.237  18.796  0.00  0.00    +0.000 OA
ATOM      8  C   UNL     1       4.181   5.566  18.623  0.00  0.00    +0.000 A 
ATOM      9  C   UNL     1       5.190   6.260  17.799  0.00  0.00    +0.000 C 
ATOM     10  C   UNL     1       3.020   5.920  19.292  0.00  0.00    +0.000 A 
BRANCH   5  12
ATOM     11  C   UNL     1       1.281   2.958  21.179  0.00  0.00    +0.000 C 
ATOM     12  C   UNL     1       1.368   4.395  20.686  0.00  0.00    +0.000 C 
ENDBRANCH   5  12
ENDBRANCH   1  10
BRANCH   3  13
ATOM     13  N   UNL     1       1.346   8.858  20.817  0.00  0.00    +0.000 N 
ATOM     14  C   UNL     1       0.061   8.901  21.307  0.00  0.00    +0.000 C 
ATOM     15  O   UNL     1      -0.545   7.882  21.644  0.00  0.00    +0.000 OA
ATOM     16  H   UNL     1       1.840   9.672  20.447  0.00  0.00    +0.000 HD
BRANCH  14  17
ATOM     17  C   UNL     1      -0.564  10.247  21.477  0.00  0.00    +0.000 A 
ATOM     18  C   UNL     1      -0.798  10.672  22.798  0.00  0.00    +0.000 A 
ATOM     19  C   UNL     1      -1.347  11.934  23.055  0.00  0.00    +0.000 A 
ATOM     20  C   UNL     1      -1.675  12.776  21.999  0.00  0.00    +0.000 A 
ATOM     21  C   UNL     1      -1.468  12.355  20.684  0.00  0.00    +0.000 A 
ATOM     22  C   UNL     1      -0.921  11.094  20.419  0.00  0.00    +0.000 A 
ATOM     23 CL   UNL     1      -0.782  10.660  18.750  0.00  0.00    +0.000 Cl
ENDBRANCH  14  17
ENDBRANCH   3  13
TORSDOF 4
ENDMDL
MODEL 3
REMARK VINA RESULT:      -7.1      6.449      9.767
REMARK  Name = 
REMARK  6 active torsions:
REMARK  status: ('A' for Active; 'I' for Inactive)
REMARK    1  A    between atoms: C_1  and  C_2
REMARK    2  A    between atoms: C_2  and  C_3
REMARK    3  A    between atoms: C_6  and  C_7
REMARK    4  A    between atoms: C_8  and  C_9
REMARK    5  A    between atoms: N_11  and  N_12
REMARK    6  A    between atoms: C_13  and  C_15
REMARK                            x       y       z     vdW  Elec       q    Type
REMARK                         _______ _______ _______ _____ _____    ______ ____
ROOT
ATOM      1  C   UNL     1       8.824  10.164  18.557  0.00  0.00    +0.000 C 
ATOM      2  O   UNL     1       8.167  10.668  17.644  0.00  0.00    +0.000 OA
ATOM      3  N   UNL     1       8.774   8.802  18.787  0.00  0.00    +0.000 N 
ATOM      4  H   UNL     1       9.287   8.308  19.504  0.00  0.00    +0.000 HD
ENDROOT
BRANCH   1  10
ATOM      5  C   UNL     1      10.903  11.608  19.058  0.00  0.00    +0.000 A 
ATOM      6  N   UNL     1      11.442  12.261  20.096  0.00  0.00    +0.000 NA
ATOM      7  O   UNL     1      10.591  12.053  21.154  0.00  0.00    +0.000 OA
ATOM      8  C   UNL     1       9.540  11.283  20.765  0.00  0.00    +0.000 A 
ATOM      9  C   UNL     1       8.561  11.003  21.834  0.00  0.00    +0.000 C 
ATOM     10  C   UNL     1       9.678  10.958  19.426  0.00  0.00    +0.000 A 
BRANCH   5  12
ATOM     11  C   UNL     1      11.308  12.953  16.958  0.00  0.00    +0.000 C 
ATOM     12  C   UNL     1      11.577  11.667  17.726  0.00  0.00    +0.000 C 
ENDBRANCH   5  12
ENDBRANCH   1  10
BRANCH   3  13
ATOM     13  N   UNL     1       7.954   8.013  17.971  0.00  0.00    +0.000 N 
ATOM     14  C   UNL     1       7.739   6.697  18.311  0.00  0.00    +0.000 C 
ATOM     15  O   UNL     1       8.230   6.195  19.325  0.00  0.00    +0.000 OA
ATOM     16  H   UNL     1       7.636   8.432  17.096  0.00  0.00    +0.000 HD
BRANCH  14  17
ATOM     17  C   UNL     1       6.831   5.901  17.434  0.00  0.00    +0.000 A 
ATOM     18  C   UNL     1       7.227   5.742  16.093  0.00  0.00    +0.000 A 
ATOM     19  C   UNL     1       6.456   4.981  15.206  0.00  0.00    +0.000 A 
ATOM     20  C   UNL     1       5.281   4.382  15.646  0.00  0.00    +0.000 A 
ATOM     21  C   UNL     1       4.867   4.553  16.968  0.00  0.00    +0.000 A 
ATOM     22  C   UNL     1       5.632   5.313  17.861  0.00  0.00    +0.000 A 
ATOM     23 CL   UNL     1       4.977   5.509  19.450  0.00  0.00    +0.000 Cl
ENDBRANCH  14  17
ENDBRANCH   3  13
TORSDOF 4
ENDMDL
MODEL 4
REMARK VINA RESULT:      -7.0      1.944      2.348
REMARK  Name = 
REMARK  6 active torsions:
REMARK  status: ('A' for Active; 'I' for Inactive)
REMARK    1  A    between atoms: C_1  and  C_2
REMARK    2  A    between atoms: C_2  and  C_3
REMARK    3  A    between atoms: C_6  and  C_7
REMARK    4  A    between atoms: C_8  and  C_9
REMARK    5  A    between atoms: N_11  and  N_12
REMARK    6  A    between atoms: C_13  and  C_15
REMARK                            x       y       z     vdW  Elec       q    Type
REMARK                         _______ _______ _______ _____ _____    ______ ____
ROOT
ATOM      1  C   UNL     1       2.752   5.988  19.054  0.00  0.00    +0.000 C 
ATOM      2  O   UNL     1       2.230   6.151  17.950  0.00  0.00    +0.000 OA
ATOM      3  N   UNL     1       2.588   6.928  20.053  0.00  0.00    +0.000 N 
ATOM      4  H   UNL     1       2.972   6.869  20.986  0.00  0.00    +0.000 HD
ENDROOT
BRANCH   1  10
ATOM      5  C   UNL     1       3.075   3.565  19.880  0.00  0.00    +0.000 A 
ATOM      6  N   UNL     1       4.075   2.690  20.053  0.00  0.00    +0.000 NA
ATOM      7  O   UNL     1       5.218   3.344  19.661  0.00  0.00    +0.000 OA
ATOM      8  C   UNL     1       4.919   4.605  19.249  0.00  0.00    +0.000 A 
ATOM      9  C   UNL     1       6.084   5.393  18.802  0.00  0.00    +0.000 C 
ATOM     10  C   UNL     1       3.554   4.815  19.365  0.00  0.00    +0.000 A 
BRANCH   5  12
ATOM     11  C   UNL     1       1.467   2.695  21.624  0.00  0.00    +0.000 C 
ATOM     12  C   UNL     1       1.674   3.144  20.185  0.00  0.00    +0.000 C 
ENDBRANCH   5  12
ENDBRANCH   1  10
BRANCH   3  13
ATOM     13  N   UNL     1       1.828   8.072  19.780  0.00  0.00    +0.000 N 
ATOM     14  C   UNL     1       1.106   8.655  20.796  0.00  0.00    +0.000 C 
ATOM     15  O   UNL     1       1.123   8.213  21.947  0.00  0.00    +0.000 OA
ATOM     16  H   UNL     1       1.766   8.361  18.802  0.00  0.00    +0.000 HD
BRANCH  14  17
ATOM     17  C   UNL     1       0.338   9.893  20.470  0.00  0.00    +0.000 A 
ATOM     18  C   UNL     1       0.432  10.364  19.147  0.00  0.00    +0.000 A 
ATOM     19  C   UNL     1      -0.282  11.497  18.741  0.00  0.00    +0.000 A 
ATOM     20  C   UNL     1      -1.087  12.174  19.650  0.00  0.00    +0.000 A 
ATOM     21  C   UNL     1      -1.170  11.728  20.971  0.00  0.00    +0.000 A 
ATOM     22  C   UNL     1      -0.458  10.596  21.385  0.00  0.00    +0.000 A 
ATOM     23 CL   UNL     1      -0.585  10.187  23.061  0.00  0.00    +0.000 Cl
ENDBRANCH  14  17
ENDBRANCH   3  13
TORSDOF 4
ENDMDL
MODEL 5
REMARK VINA RESULT:      -7.0      1.546      2.753
REMARK  Name = 
REMARK  6 active torsions:
REMARK  status: ('A' for Active; 'I' for Inactive)
REMARK    1  A    between atoms: C_1  and  C_2
REMARK    2  A    between atoms: C_2  and  C_3
REMARK    3  A    between atoms: C_6  and  C_7
REMARK    4  A    between atoms: C_8  and  C_9
REMARK    5  A    between atoms: N_11  and  N_12
REMARK    6  A    between atoms: C_13  and  C_15
REMARK                            x       y       z     vdW  Elec       q    Type
REMARK                         _______ _______ _______ _____ _____    ______ ____
ROOT
ATOM      1  C   UNL     1       2.447   6.592  19.762  0.00  0.00    +0.000 C 
ATOM      2  O   UNL     1       2.476   7.330  18.777  0.00  0.00    +0.000 OA
ATOM      3  N   UNL     1       1.961   7.055  20.971  0.00  0.00    +0.000 N 
ATOM      4  H   UNL     1       1.892   6.516  21.823  0.00  0.00    +0.000 HD
ENDROOT
BRANCH   1  10
ATOM      5  C   UNL     1       4.234   4.768  19.391  0.00  0.00    +0.000 A 
ATOM      6  N   UNL     1       4.327   3.432  19.437  0.00  0.00    +0.000 NA
ATOM      7  O   UNL     1       3.076   2.980  19.782  0.00  0.00    +0.000 OA
ATOM      8  C   UNL     1       2.229   4.031  19.950  0.00  0.00    +0.000 A 
ATOM      9  C   UNL     1       0.853   3.650  20.328  0.00  0.00    +0.000 C 
ATOM     10  C   UNL     1       2.909   5.214  19.712  0.00  0.00    +0.000 A 
BRANCH   5  12
ATOM     11  C   UNL     1       6.472   4.839  18.218  0.00  0.00    +0.000 C 
ATOM     12  C   UNL     1       5.451   5.575  19.074  0.00  0.00    +0.000 C 
ENDBRANCH   5  12
ENDBRANCH   1  10
BRANCH   3  13
ATOM     13  N   UNL     1       1.517   8.380  21.052  0.00  0.00    +0.000 N 
ATOM     14  C   UNL     1       0.193   8.627  21.335  0.00  0.00    +0.000 C 
ATOM     15  O   UNL     1      -0.612   7.716  21.541  0.00  0.00    +0.000 OA
ATOM     16  H   UNL     1       2.186   9.107  20.790  0.00  0.00    +0.000 HD
BRANCH  14  17
ATOM     17  C   UNL     1      -0.231  10.054  21.447  0.00  0.00    +0.000 A 
ATOM     18  C   UNL     1      -0.664  10.487  22.715  0.00  0.00    +0.000 A 
ATOM     19  C   UNL     1      -1.045  11.817  22.923  0.00  0.00    +0.000 A 
ATOM     20  C   UNL     1      -1.009  12.723  21.869  0.00  0.00    +0.000 A 
ATOM     21  C   UNL     1      -0.602  12.298  20.602  0.00  0.00    +0.000 A 
ATOM     22  C   UNL     1      -0.220  10.969  20.386  0.00  0.00    +0.000 A 
ATOM     23 CL   UNL     1       0.192  10.550  18.759  0.00  0.00    +0.000 Cl
ENDBRANCH  14  17
ENDBRANCH   3  13
TORSDOF 4
ENDMDL
MODEL 6
REMARK VINA RESULT:      -6.9      3.204      7.749
REMARK  Name = 
REMARK  6 active torsions:
REMARK  status: ('A' for Active; 'I' for Inactive)
REMARK    1  A    between atoms: C_1  and  C_2
REMARK    2  A    between atoms: C_2  and  C_3
REMARK    3  A    between atoms: C_6  and  C_7
REMARK    4  A    between atoms: C_8  and  C_9
REMARK    5  A    between atoms: N_11  and  N_12
REMARK    6  A    between atoms: C_13  and  C_15
REMARK                            x       y       z     vdW  Elec       q    Type
REMARK                         _______ _______ _______ _____ _____    ______ ____
ROOT
ATOM      1  C   UNL     1       1.613   9.092  18.574  0.00  0.00    +0.000 C 
ATOM      2  O   UNL     1       2.049   9.703  17.597  0.00  0.00    +0.000 OA
ATOM      3  N   UNL     1       2.048   7.810  18.850  0.00  0.00    +0.000 N 
ATOM      4  H   UNL     1       1.752   7.244  19.633  0.00  0.00    +0.000 HD
ENDROOT
BRANCH   1  10
ATOM      5  C   UNL     1      -0.561  10.374  19.112  0.00  0.00    +0.000 A 
ATOM      6  N   UNL     1      -1.241  10.784  20.191  0.00  0.00    +0.000 NA
ATOM      7  O   UNL     1      -0.508  10.371  21.277  0.00  0.00    +0.000 OA
ATOM      8  C   UNL     1       0.608   9.711  20.865  0.00  0.00    +0.000 A 
ATOM      9  C   UNL     1       1.466   9.220  21.961  0.00  0.00    +0.000 C 
ATOM     10  C   UNL     1       0.637   9.677  19.480  0.00  0.00    +0.000 A 
BRANCH   5  12
ATOM     11  C   UNL     1      -2.407   9.884  17.458  0.00  0.00    +0.000 C 
ATOM     12  C   UNL     1      -1.118  10.639  17.751  0.00  0.00    +0.000 C 
ENDBRANCH   5  12
ENDBRANCH   1  10
BRANCH   3  13
ATOM     13  N   UNL     1       2.981   7.218  17.990  0.00  0.00    +0.000 N 
ATOM     14  C   UNL     1       3.787   6.210  18.468  0.00  0.00    +0.000 C 
ATOM     15  O   UNL     1       3.699   5.795  19.625  0.00  0.00    +0.000 OA
ATOM     16  H   UNL     1       3.090   7.642  17.067  0.00  0.00    +0.000 HD
BRANCH  14  17
ATOM     17  C   UNL     1       4.743   5.582  17.508  0.00  0.00    +0.000 A 
ATOM     18  C   UNL     1       5.941   6.281  17.262  0.00  0.00    +0.000 A 
ATOM     19  C   UNL     1       6.912   5.751  16.405  0.00  0.00    +0.000 A 
ATOM     20  C   UNL     1       6.695   4.529  15.779  0.00  0.00    +0.000 A 
ATOM     21  C   UNL     1       5.501   3.840  15.999  0.00  0.00    +0.000 A 
ATOM     22  C   UNL     1       4.524   4.362  16.854  0.00  0.00    +0.000 A 
ATOM     23 CL   UNL     1       3.060   3.450  16.986  0.00  0.00    +0.000 Cl
ENDBRANCH  14  17
ENDBRANCH   3  13
TORSDOF 4
ENDMDL
MODEL 7
REMARK VINA RESULT:      -6.9      1.393      1.487
REMARK  Name = 
REMARK  6 active torsions:
REMARK  status: ('A' for Active; 'I' for Inactive)
REMARK    1  A    between atoms: C_1  and  C_2
REMARK    2  A    between atoms: C_2  and  C_3
REMARK    3  A    between atoms: C_6  and  C_7
REMARK    4  A    between atoms: C_8  and  C_9
REMARK    5  A    between atoms: N_11  and  N_12
REMARK    6  A    between atoms: C_13  and  C_15
REMARK                            x       y       z     vdW  Elec       q    Type
REMARK                         _______ _______ _______ _____ _____    ______ ____
ROOT
ATOM      1  C   UNL     1       3.480   6.021  18.866  0.00  0.00    +0.000 C 
ATOM      2  O   UNL     1       3.503   5.531  19.996  0.00  0.00    +0.000 OA
ATOM      3  N   UNL     1       2.770   7.182  18.619  0.00  0.00    +0.000 N 
ATOM      4  H   UNL     1       2.706   7.654  17.728  0.00  0.00    +0.000 HD
ENDROOT
BRANCH   1  10
ATOM      5  C   UNL     1       3.836   4.212  17.061  0.00  0.00    +0.000 A 
ATOM      6  N   UNL     1       4.699   3.940  16.072  0.00  0.00    +0.000 NA
ATOM      7  O   UNL     1       5.626   4.953  16.092  0.00  0.00    +0.000 OA
ATOM      8  C   UNL     1       5.330   5.838  17.081  0.00  0.00    +0.000 A 
ATOM      9  C   UNL     1       6.270   6.973  17.184  0.00  0.00    +0.000 C 
ATOM     10  C   UNL     1       4.189   5.421  17.747  0.00  0.00    +0.000 A 
BRANCH   5  12
ATOM     11  C   UNL     1       3.023   2.015  18.008  0.00  0.00    +0.000 C 
ATOM     12  C   UNL     1       2.669   3.306  17.284  0.00  0.00    +0.000 C 
ENDBRANCH   5  12
ENDBRANCH   1  10
BRANCH   3  13
ATOM     13  N   UNL     1       2.070   7.778  19.676  0.00  0.00    +0.000 N 
ATOM     14  C   UNL     1       1.419   8.970  19.459  0.00  0.00    +0.000 C 
ATOM     15  O   UNL     1       1.414   9.522  18.356  0.00  0.00    +0.000 OA
ATOM     16  H   UNL     1       2.167   7.342  20.595  0.00  0.00    +0.000 HD
BRANCH  14  17
ATOM     17  C   UNL     1       0.656   9.553  20.602  0.00  0.00    +0.000 A 
ATOM     18  C   UNL     1       0.150   8.646  21.552  0.00  0.00    +0.000 A 
ATOM     19  C   UNL     1      -0.546   9.104  22.677  0.00  0.00    +0.000 A 
ATOM     20  C   UNL     1      -0.753  10.467  22.858  0.00  0.00    +0.000 A 
ATOM     21  C   UNL     1      -0.274  11.374  21.910  0.00  0.00    +0.000 A 
ATOM     22  C   UNL     1       0.422  10.924  20.782  0.00  0.00    +0.000 A 
ATOM     23 CL   UNL     1       0.898  12.138  19.646  0.00  0.00    +0.000 Cl
ENDBRANCH  14  17
ENDBRANCH   3  13
TORSDOF 4
ENDMDL
MODEL 8
REMARK VINA RESULT:      -6.8      2.040      3.018
REMARK  Name = 
REMARK  6 active torsions:
REMARK  status: ('A' for Active; 'I' for Inactive)
REMARK    1  A    between atoms: C_1  and  C_2
REMARK    2  A    between atoms: C_2  and  C_3
REMARK    3  A    between atoms: C_6  and  C_7
REMARK    4  A    between atoms: C_8  and  C_9
REMARK    5  A    between atoms: N_11  and  N_12
REMARK    6  A    between atoms: C_13  and  C_15
REMARK                            x       y       z     vdW  Elec       q    Type
REMARK                         _______ _______ _______ _____ _____    ______ ____
ROOT
ATOM      1  C   UNL     1       2.619   5.739  19.365  0.00  0.00    +0.000 C 
ATOM      2  O   UNL     1       2.199   5.983  18.233  0.00  0.00    +0.000 OA
ATOM      3  N   UNL     1       2.516   6.682  20.370  0.00  0.00    +0.000 N 
ATOM      4  H   UNL     1       2.824   6.561  21.324  0.00  0.00    +0.000 HD
ENDROOT
BRANCH   1  10
ATOM      5  C   UNL     1       4.518   3.992  19.274  0.00  0.00    +0.000 A 
ATOM      6  N   UNL     1       4.785   2.777  19.769  0.00  0.00    +0.000 NA
ATOM      7  O   UNL     1       3.691   2.430  20.524  0.00  0.00    +0.000 OA
ATOM      8  C   UNL     1       2.766   3.426  20.494  0.00  0.00    +0.000 A 
ATOM      9  C   UNL     1       1.547   3.151  21.281  0.00  0.00    +0.000 C 
ATOM     10  C   UNL     1       3.233   4.464  19.704  0.00  0.00    +0.000 A 
BRANCH   5  12
ATOM     11  C   UNL     1       5.256   4.593  16.933  0.00  0.00    +0.000 C 
ATOM     12  C   UNL     1       5.539   4.678  18.426  0.00  0.00    +0.000 C 
ENDBRANCH   5  12
ENDBRANCH   1  10
BRANCH   3  13
ATOM     13  N   UNL     1       1.937   7.921  20.070  0.00  0.00    +0.000 N 
ATOM     14  C   UNL     1       0.818   8.323  20.763  0.00  0.00    +0.000 C 
ATOM     15  O   UNL     1       0.320   7.634  21.657  0.00  0.00    +0.000 OA
ATOM     16  H   UNL     1       2.320   8.426  19.268  0.00  0.00    +0.000 HD
BRANCH  14  17
ATOM     17  C   UNL     1       0.254   9.666  20.437  0.00  0.00    +0.000 A 
ATOM     18  C   UNL     1       0.354  10.084  19.097  0.00  0.00    +0.000 A 
ATOM     19  C   UNL     1      -0.179  11.313  18.691  0.00  0.00    +0.000 A 
ATOM     20  C   UNL     1      -0.807  12.138  19.617  0.00  0.00    +0.000 A 
ATOM     21  C   UNL     1      -0.891  11.742  20.954  0.00  0.00    +0.000 A 
ATOM     22  C   UNL     1      -0.360  10.515  21.368  0.00  0.00    +0.000 A 
ATOM     23 CL   UNL     1      -0.463  10.172  23.060  0.00  0.00    +0.000 Cl
ENDBRANCH  14  17
ENDBRANCH   3  13
TORSDOF 4
ENDMDL
MODEL 9
REMARK VINA RESULT:      -6.8      1.626      1.806
REMARK  Name = 
REMARK  6 active torsions:
REMARK  status: ('A' for Active; 'I' for Inactive)
REMARK    1  A    between atoms: C_1  and  C_2
REMARK    2  A    between atoms: C_2  and  C_3
REMARK    3  A    between atoms: C_6  and  C_7
REMARK    4  A    between atoms: C_8  and  C_9
REMARK    5  A    between atoms: N_11  and  N_12
REMARK    6  A    between atoms: C_13  and  C_15
REMARK                            x       y       z     vdW  Elec       q    Type
REMARK                         _______ _______ _______ _____ _____    ______ ____
ROOT
ATOM      1  C   UNL     1       2.533   6.009  19.453  0.00  0.00    +0.000 C 
ATOM      2  O   UNL     1       1.856   5.827  20.466  0.00  0.00    +0.000 OA
ATOM      3  N   UNL     1       2.538   7.239  18.824  0.00  0.00    +0.000 N 
ATOM      4  H   UNL     1       3.070   7.476  17.998  0.00  0.00    +0.000 HD
ENDROOT
BRANCH   1  10
ATOM      5  C   UNL     1       2.889   3.778  18.206  0.00  0.00    +0.000 A 
ATOM      6  N   UNL     1       3.908   3.016  17.787  0.00  0.00    +0.000 NA
ATOM      7  O   UNL     1       5.051   3.673  18.171  0.00  0.00    +0.000 OA
ATOM      8  C   UNL     1       4.734   4.828  18.815  0.00  0.00    +0.000 A 
ATOM      9  C   UNL     1       5.898   5.615  19.267  0.00  0.00    +0.000 C 
ATOM     10  C   UNL     1       3.356   4.958  18.874  0.00  0.00    +0.000 A 
BRANCH   5  12
ATOM     11  C   UNL     1       0.822   2.589  19.045  0.00  0.00    +0.000 C 
ATOM     12  C   UNL     1       1.487   3.353  17.908  0.00  0.00    +0.000 C 
ENDBRANCH   5  12
ENDBRANCH   1  10
BRANCH   3  13
ATOM     13  N   UNL     1       1.749   8.267  19.354  0.00  0.00    +0.000 N 
ATOM     14  C   UNL     1       1.441   9.351  18.564  0.00  0.00    +0.000 C 
ATOM     15  O   UNL     1       1.820   9.435  17.394  0.00  0.00    +0.000 OA
ATOM     16  H   UNL     1       1.526   8.209  20.350  0.00  0.00    +0.000 HD
BRANCH  14  17
ATOM     17  C   UNL     1       0.568  10.407  19.157  0.00  0.00    +0.000 A 
ATOM     18  C   UNL     1       1.075  11.086  20.281  0.00  0.00    +0.000 A 
ATOM     19  C   UNL     1       0.342  12.117  20.881  0.00  0.00    +0.000 A 
ATOM     20  C   UNL     1      -0.902  12.472  20.374  0.00  0.00    +0.000 A 
ATOM     21  C   UNL     1      -1.423  11.789  19.273  0.00  0.00    +0.000 A 
ATOM     22  C   UNL     1      -0.698  10.756  18.667  0.00  0.00    +0.000 A 
ATOM     23 CL   UNL     1      -1.481   9.940  17.359  0.00  0.00    +0.000 Cl
ENDBRANCH  14  17
ENDBRANCH   3  13
TORSDOF 4
ENDMDL
