MODEL 1
REMARK VINA RESULT:      -8.3      0.000      0.000
REMARK  Name = 
REMARK  7 active torsions:
REMARK  status: ('A' for Active; 'I' for Inactive)
REMARK    1  A    between atoms: C_1  and  C_2
REMARK    2  A    between atoms: C_2  and  C_3
REMARK    3  A    between atoms: C_2  and  C_4
REMARK    4  A    between atoms: C_2  and  C_5
REMARK    5  A    between atoms: C_8  and  C_9
REMARK    6  A    between atoms: C_15  and  C_16
REMARK    7  A    between atoms: C_20  and  N_21
REMARK                            x       y       z     vdW  Elec       q    Type
REMARK                         _______ _______ _______ _____ _____    ______ ____
ROOT
ATOM      1  C   UNL     1       6.753   5.414  17.552  0.00  0.00    +0.000 A 
ATOM      2  C   UNL     1       7.110   4.653  16.424  0.00  0.00    +0.000 A 
ATOM      3  C   UNL     1       6.156   3.904  15.730  0.00  0.00    +0.000 A 
ATOM      4  C   UNL     1       4.810   4.019  16.067  0.00  0.00    +0.000 A 
ATOM      5  C   UNL     1       4.458   4.694  17.240  0.00  0.00    +0.000 A 
ATOM      6  C   UNL     1       3.138   5.046  17.566  0.00  0.00    +0.000 A 
ATOM      7  C   UNL     1       2.906   5.720  18.774  0.00  0.00    +0.000 A 
ATOM      8  C   UNL     1       3.792   5.418  19.800  0.00  0.00    +0.000 A 
ATOM      9  C   UNL     1       5.120   5.295  19.444  0.00  0.00    +0.000 A 
ATOM     10  C   UNL     1       5.472   5.138  18.094  0.00  0.00    +0.000 A 
ENDROOT
BRANCH   1  14
ATOM     11  C   UNL     1       8.542   9.380  18.332  0.00  0.00    +0.000 A 
ATOM     12  C   UNL     1       7.653   9.131  17.286  0.00  0.00    +0.000 A 
ATOM     13  C   UNL     1       7.133   7.847  17.050  0.00  0.00    +0.000 A 
ATOM     14  C   UNL     1       7.475   6.716  17.822  0.00  0.00    +0.000 A 
ATOM     15  C   UNL     1       8.352   6.979  18.885  0.00  0.00    +0.000 A 
ATOM     16  C   UNL     1       8.873   8.274  19.135  0.00  0.00    +0.000 A 
BRANCH  11  18
ATOM     17  C   UNL     1      10.525  11.002  17.979  0.00  0.00    +0.000 C 
ATOM     18  C   UNL     1       9.122  10.781  18.600  0.00  0.00    +0.000 C 
ATOM     19  C   UNL     1       9.266  11.005  20.120  0.00  0.00    +0.000 C 
ATOM     20  C   UNL     1       8.198  11.875  18.015  0.00  0.00    +0.000 C 
ENDBRANCH  11  18
ENDBRANCH   1  14
BRANCH   7  21
ATOM     21  C   UNL     1       2.248   7.059  18.824  0.00  0.00    +0.000 A 
ATOM     22  C   UNL     1       2.362   7.964  17.750  0.00  0.00    +0.000 A 
ATOM     23  C   UNL     1       2.003   9.308  17.888  0.00  0.00    +0.000 A 
ATOM     24  C   UNL     1       1.509   9.780  19.103  0.00  0.00    +0.000 A 
ATOM     25  C   UNL     1       1.359   8.915  20.183  0.00  0.00    +0.000 A 
ATOM     26  C   UNL     1       1.770   7.587  20.041  0.00  0.00    +0.000 A 
BRANCH  25  27
ATOM     27  N   UNL     1       1.057   9.414  21.458  0.00  0.00    +0.000 N 
ATOM     28  H   UNL     1       1.866   9.480  22.066  0.00  0.00    +0.000 HD
ATOM     29  H   UNL     1       0.513  10.271  21.442  0.00  0.00    +0.000 HD
ENDBRANCH  25  27
ENDBRANCH   7  21
TORSDOF 4
ENDMDL
MODEL 2
REMARK VINA RESULT:      -8.2      4.465      7.906
REMARK  Name = 
REMARK  7 active torsions:
REMARK  status: ('A' for Active; 'I' for Inactive)
REMARK    1  A    between atoms: C_1  and  C_2
REMARK    2  A    between atoms: C_2  and  C_3
REMARK    3  A    between atoms: C_2  and  C_4
REMARK    4  A    between atoms: C_2  and  C_5
REMARK    5  A    between atoms: C_8  and  C_9
REMARK    6  A    between atoms: C_15  and  C_16
REMARK    7  A    between atoms: C_20  and  N_21
REMARK                            x       y       z     vdW  Elec       q    Type
REMARK                         _______ _______ _______ _____ _____    ______ ____
ROOT
ATOM      1  C   UNL     1       1.129   9.159  21.361  0.00  0.00    +0.000 A 
ATOM      2  C   UNL     1       1.007   9.045  22.758  0.00  0.00    +0.000 A 
ATOM      3  C   UNL     1       0.081   9.818  23.464  0.00  0.00    +0.000 A 
ATOM      4  C   UNL     1      -0.832  10.607  22.770  0.00  0.00    +0.000 A 
ATOM      5  C   UNL     1      -0.657  10.799  21.396  0.00  0.00    +0.000 A 
ATOM      6  C   UNL     1      -1.621  11.399  20.568  0.00  0.00    +0.000 A 
ATOM      7  C   UNL     1      -1.332  11.540  19.203  0.00  0.00    +0.000 A 
ATOM      8  C   UNL     1       0.012  11.708  18.896  0.00  0.00    +0.000 A 
ATOM      9  C   UNL     1       0.902  10.926  19.604  0.00  0.00    +0.000 A 
ATOM     10  C   UNL     1       0.488  10.283  20.781  0.00  0.00    +0.000 A 
ENDROOT
BRANCH   1  14
ATOM     11  C   UNL     1       2.496   5.723  18.940  0.00  0.00    +0.000 A 
ATOM     12  C   UNL     1       2.603   7.050  18.520  0.00  0.00    +0.000 A 
ATOM     13  C   UNL     1       2.124   8.112  19.304  0.00  0.00    +0.000 A 
ATOM     14  C   UNL     1       1.486   7.933  20.550  0.00  0.00    +0.000 A 
ATOM     15  C   UNL     1       1.403   6.598  20.975  0.00  0.00    +0.000 A 
ATOM     16  C   UNL     1       1.893   5.522  20.193  0.00  0.00    +0.000 A 
BRANCH  11  18
ATOM     17  C   UNL     1       4.026   4.976  16.993  0.00  0.00    +0.000 C 
ATOM     18  C   UNL     1       3.014   4.549  18.088  0.00  0.00    +0.000 C 
ATOM     19  C   UNL     1       1.833   3.869  17.364  0.00  0.00    +0.000 C 
ATOM     20  C   UNL     1       3.731   3.505  18.975  0.00  0.00    +0.000 C 
ENDBRANCH  11  18
ENDBRANCH   1  14
BRANCH   7  21
ATOM     21  C   UNL     1      -2.197  10.945  18.141  0.00  0.00    +0.000 A 
ATOM     22  C   UNL     1      -1.646  10.142  17.122  0.00  0.00    +0.000 A 
ATOM     23  C   UNL     1      -2.377   9.815  15.976  0.00  0.00    +0.000 A 
ATOM     24  C   UNL     1      -3.684  10.276  15.824  0.00  0.00    +0.000 A 
ATOM     25  C   UNL     1      -4.274  11.054  16.816  0.00  0.00    +0.000 A 
ATOM     26  C   UNL     1      -3.511  11.411  17.931  0.00  0.00    +0.000 A 
BRANCH  25  27
ATOM     27  N   UNL     1      -5.504  11.686  16.587  0.00  0.00    +0.000 N 
ATOM     28  H   UNL     1      -6.288  11.211  17.020  0.00  0.00    +0.000 HD
ATOM     29  H   UNL     1      -5.494  12.681  16.789  0.00  0.00    +0.000 HD
ENDBRANCH  25  27
ENDBRANCH   7  21
TORSDOF 4
ENDMDL
MODEL 3
REMARK VINA RESULT:      -8.2      3.377      6.320
REMARK  Name = 
REMARK  7 active torsions:
REMARK  status: ('A' for Active; 'I' for Inactive)
REMARK    1  A    between atoms: C_1  and  C_2
REMARK    2  A    between atoms: C_2  and  C_3
REMARK    3  A    between atoms: C_2  and  C_4
REMARK    4  A    between atoms: C_2  and  C_5
REMARK    5  A    between atoms: C_8  and  C_9
REMARK    6  A    between atoms: C_15  and  C_16
REMARK    7  A    between atoms: C_20  and  N_21
REMARK                            x       y       z     vdW  Elec       q    Type
REMARK                         _______ _______ _______ _____ _____    ______ ____
ROOT
ATOM      1  C   UNL     1       1.778   4.872  20.194  0.00  0.00    +0.000 A 
ATOM      2  C   UNL     1       1.860   4.298  21.476  0.00  0.00    +0.000 A 
ATOM      3  C   UNL     1       2.603   3.135  21.697  0.00  0.00    +0.000 A 
ATOM      4  C   UNL     1       3.388   2.612  20.673  0.00  0.00    +0.000 A 
ATOM      5  C   UNL     1       3.240   3.117  19.378  0.00  0.00    +0.000 A 
ATOM      6  C   UNL     1       4.115   2.813  18.322  0.00  0.00    +0.000 A 
ATOM      7  C   UNL     1       3.863   3.377  17.063  0.00  0.00    +0.000 A 
ATOM      8  C   UNL     1       2.525   3.613  16.777  0.00  0.00    +0.000 A 
ATOM      9  C   UNL     1       1.760   4.118  17.808  0.00  0.00    +0.000 A 
ATOM     10  C   UNL     1       2.233   4.053  19.128  0.00  0.00    +0.000 A 
ENDROOT
BRANCH   1  14
ATOM     11  C   UNL     1       1.336   9.214  19.497  0.00  0.00    +0.000 A 
ATOM     12  C   UNL     1       1.916   8.343  18.573  0.00  0.00    +0.000 A 
ATOM     13  C   UNL     1       2.070   6.974  18.848  0.00  0.00    +0.000 A 
ATOM     14  C   UNL     1       1.680   6.376  20.065  0.00  0.00    +0.000 A 
ATOM     15  C   UNL     1       1.078   7.254  20.979  0.00  0.00    +0.000 A 
ATOM     16  C   UNL     1       0.911   8.635  20.705  0.00  0.00    +0.000 A 
BRANCH  11  18
ATOM     17  C   UNL     1       2.228  11.289  18.237  0.00  0.00    +0.000 C 
ATOM     18  C   UNL     1       1.165  10.717  19.210  0.00  0.00    +0.000 C 
ATOM     19  C   UNL     1       1.287  11.517  20.525  0.00  0.00    +0.000 C 
ATOM     20  C   UNL     1      -0.217  10.998  18.577  0.00  0.00    +0.000 C 
ENDBRANCH  11  18
ENDBRANCH   1  14
BRANCH   7  21
ATOM     21  C   UNL     1       4.865   4.235  16.361  0.00  0.00    +0.000 A 
ATOM     22  C   UNL     1       5.661   3.716  15.321  0.00  0.00    +0.000 A 
ATOM     23  C   UNL     1       6.784   4.404  14.850  0.00  0.00    +0.000 A 
ATOM     24  C   UNL     1       7.133   5.635  15.402  0.00  0.00    +0.000 A 
ATOM     25  C   UNL     1       6.361   6.194  16.417  0.00  0.00    +0.000 A 
ATOM     26  C   UNL     1       5.272   5.469  16.908  0.00  0.00    +0.000 A 
BRANCH  25  27
ATOM     27  N   UNL     1       6.811   7.324  17.113  0.00  0.00    +0.000 N 
ATOM     28  H   UNL     1       7.757   7.598  16.870  0.00  0.00    +0.000 HD
ATOM     29  H   UNL     1       6.163   8.105  17.086  0.00  0.00    +0.000 HD
ENDBRANCH  25  27
ENDBRANCH   7  21
TORSDOF 4
ENDMDL
MODEL 4
REMARK VINA RESULT:      -8.1      0.544      1.059
REMARK  Name = 
REMARK  7 active torsions:
REMARK  status: ('A' for Active; 'I' for Inactive)
REMARK    1  A    between atoms: C_1  and  C_2
REMARK    2  A    between atoms: C_2  and  C_3
REMARK    3  A    between atoms: C_2  and  C_4
REMARK    4  A    between atoms: C_2  and  C_5
REMARK    5  A    between atoms: C_8  and  C_9
REMARK    6  A    between atoms: C_15  and  C_16
REMARK    7  A    between atoms: C_20  and  N_21
REMARK                            x       y       z     vdW  Elec       q    Type
REMARK                         _______ _______ _______ _____ _____    ______ ____
ROOT
ATOM      1  C   UNL     1       6.899   5.926  17.397  0.00  0.00    +0.000 A 
ATOM      2  C   UNL     1       7.311   5.345  16.183  0.00  0.00    +0.000 A 
ATOM      3  C   UNL     1       6.440   4.547  15.436  0.00  0.00    +0.000 A 
ATOM      4  C   UNL     1       5.106   4.436  15.817  0.00  0.00    +0.000 A 
ATOM      5  C   UNL     1       4.714   4.928  17.066  0.00  0.00    +0.000 A 
ATOM      6  C   UNL     1       3.371   5.054  17.463  0.00  0.00    +0.000 A 
ATOM      7  C   UNL     1       3.099   5.558  18.742  0.00  0.00    +0.000 A 
ATOM      8  C   UNL     1       4.059   5.277  19.706  0.00  0.00    +0.000 A 
ATOM      9  C   UNL     1       5.375   5.379  19.305  0.00  0.00    +0.000 A 
ATOM     10  C   UNL     1       5.690   5.417  17.938  0.00  0.00    +0.000 A 
ENDROOT
BRANCH   1  14
ATOM     11  C   UNL     1       8.826   9.735  18.541  0.00  0.00    +0.000 A 
ATOM     12  C   UNL     1       9.059   8.528  19.201  0.00  0.00    +0.000 A 
ATOM     13  C   UNL     1       8.399   7.345  18.829  0.00  0.00    +0.000 A 
ATOM     14  C   UNL     1       7.446   7.280  17.790  0.00  0.00    +0.000 A 
ATOM     15  C   UNL     1       7.234   8.493  17.117  0.00  0.00    +0.000 A 
ATOM     16  C   UNL     1       7.904   9.688  17.481  0.00  0.00    +0.000 A 
BRANCH  11  18
ATOM     17  C   UNL     1      10.997  11.136  18.417  0.00  0.00    +0.000 C 
ATOM     18  C   UNL     1       9.540  11.039  18.941  0.00  0.00    +0.000 C 
ATOM     19  C   UNL     1       9.611  11.144  20.479  0.00  0.00    +0.000 C 
ATOM     20  C   UNL     1       8.784  12.269  18.386  0.00  0.00    +0.000 C 
ENDBRANCH  11  18
ENDBRANCH   1  14
BRANCH   7  21
ATOM     21  C   UNL     1       2.266   6.779  18.956  0.00  0.00    +0.000 A 
ATOM     22  C   UNL     1       2.125   7.747  17.942  0.00  0.00    +0.000 A 
ATOM     23  C   UNL     1       1.595   9.013  18.212  0.00  0.00    +0.000 A 
ATOM     24  C   UNL     1       1.184   9.340  19.502  0.00  0.00    +0.000 A 
ATOM     25  C   UNL     1       1.285   8.406  20.529  0.00  0.00    +0.000 A 
ATOM     26  C   UNL     1       1.863   7.163  20.251  0.00  0.00    +0.000 A 
BRANCH  25  27
ATOM     27  N   UNL     1       1.066   8.785  21.860  0.00  0.00    +0.000 N 
ATOM     28  H   UNL     1       1.021   8.000  22.501  0.00  0.00    +0.000 HD
ATOM     29  H   UNL     1       1.693   9.514  22.185  0.00  0.00    +0.000 HD
ENDBRANCH  25  27
ENDBRANCH   7  21
TORSDOF 4
ENDMDL
MODEL 5
REMARK VINA RESULT:      -8.0      0.914      1.309
REMARK  Name = 
REMARK  7 active torsions:
REMARK  status: ('A' for Active; 'I' for Inactive)
REMARK    1  A    between atoms: C_1  and  C_2
REMARK    2  A    between atoms: C_2  and  C_3
REMARK    3  A    between atoms: C_2  and  C_4
REMARK    4  A    between atoms: C_2  and  C_5
REMARK    5  A    between atoms: C_8  and  C_9
REMARK    6  A    between atoms: C_15  and  C_16
REMARK    7  A    between atoms: C_20  and  N_21
REMARK                            x       y       z     vdW  Elec       q    Type
REMARK                         _______ _______ _______ _____ _____    ______ ____
ROOT
ATOM      1  C   UNL     1       6.749   5.740  17.313  0.00  0.00    +0.000 A 
ATOM      2  C   UNL     1       6.957   5.207  16.027  0.00  0.00    +0.000 A 
ATOM      3  C   UNL     1       5.910   4.606  15.321  0.00  0.00    +0.000 A 
ATOM      4  C   UNL     1       4.615   4.659  15.828  0.00  0.00    +0.000 A 
ATOM      5  C   UNL     1       4.417   5.099  17.140  0.00  0.00    +0.000 A 
ATOM      6  C   UNL     1       3.151   5.385  17.679  0.00  0.00    +0.000 A 
ATOM      7  C   UNL     1       3.076   5.818  19.011  0.00  0.00    +0.000 A 
ATOM      8  C   UNL     1       4.066   5.324  19.851  0.00  0.00    +0.000 A 
ATOM      9  C   UNL     1       5.340   5.267  19.325  0.00  0.00    +0.000 A 
ATOM     10  C   UNL     1       5.532   5.369  17.939  0.00  0.00    +0.000 A 
ENDROOT
BRANCH   1  14
ATOM     11  C   UNL     1       8.720   9.501  18.540  0.00  0.00    +0.000 A 
ATOM     12  C   UNL     1       7.886   9.399  17.425  0.00  0.00    +0.000 A 
ATOM     13  C   UNL     1       7.307   8.176  17.048  0.00  0.00    +0.000 A 
ATOM     14  C   UNL     1       7.529   6.965  17.737  0.00  0.00    +0.000 A 
ATOM     15  C   UNL     1       8.351   7.081  18.869  0.00  0.00    +0.000 A 
ATOM     16  C   UNL     1       8.931   8.313  19.261  0.00  0.00    +0.000 A 
BRANCH  11  18
ATOM     17  C   UNL     1      10.853  10.964  18.548  0.00  0.00    +0.000 C 
ATOM     18  C   UNL     1       9.364  10.835  18.962  0.00  0.00    +0.000 C 
ATOM     19  C   UNL     1       9.314  10.975  20.498  0.00  0.00    +0.000 C 
ATOM     20  C   UNL     1       8.618  12.029  18.323  0.00  0.00    +0.000 C 
ENDBRANCH  11  18
ENDBRANCH   1  14
BRANCH   7  21
ATOM     21  C   UNL     1       2.461   7.125  19.389  0.00  0.00    +0.000 A 
ATOM     22  C   UNL     1       1.784   7.280  20.615  0.00  0.00    +0.000 A 
ATOM     23  C   UNL     1       0.968   8.389  20.862  0.00  0.00    +0.000 A 
ATOM     24  C   UNL     1       0.816   9.376  19.891  0.00  0.00    +0.000 A 
ATOM     25  C   UNL     1       1.484   9.274  18.674  0.00  0.00    +0.000 A 
ATOM     26  C   UNL     1       2.255   8.134  18.426  0.00  0.00    +0.000 A 
BRANCH  25  27
ATOM     27  N   UNL     1       1.183  10.149  17.621  0.00  0.00    +0.000 N 
ATOM     28  H   UNL     1       0.480   9.789  16.986  0.00  0.00    +0.000 HD
ATOM     29  H   UNL     1       0.983  11.097  17.924  0.00  0.00    +0.000 HD
ENDBRANCH  25  27
ENDBRANCH   7  21
TORSDOF 4
ENDMDL
MODEL 6
REMARK VINA RESULT:      -8.0      4.614      8.041
REMARK  Name = 
REMARK  7 active torsions:
REMARK  status: ('A' for Active; 'I' for Inactive)
REMARK    1  A    between atoms: C_1  and  C_2
REMARK    2  A    between atoms: C_2  and  C_3
REMARK    3  A    between atoms: C_2  and  C_4
REMARK    4  A    between atoms: C_2  and  C_5
REMARK    5  A    between atoms: C_8  and  C_9
REMARK    6  A    between atoms: C_15  and  C_16
REMARK    7  A    between atoms: C_20  and  N_21
REMARK                            x       y       z     vdW  Elec       q    Type
REMARK                         _______ _______ _______ _____ _____    ______ ____
ROOT
ATOM      1  C   UNL     1       1.194   9.290  21.430  0.00  0.00    +0.000 A 
ATOM      2  C   UNL     1       1.064   9.096  22.817  0.00  0.00    +0.000 A 
ATOM      3  C   UNL     1       0.073   9.759  23.547  0.00  0.00    +0.000 A 
ATOM      4  C   UNL     1      -0.888  10.512  22.879  0.00  0.00    +0.000 A 
ATOM      5  C   UNL     1      -0.712  10.787  21.519  0.00  0.00    +0.000 A 
ATOM      6  C   UNL     1      -1.709  11.354  20.707  0.00  0.00    +0.000 A 
ATOM      7  C   UNL     1      -1.416  11.586  19.356  0.00  0.00    +0.000 A 
ATOM      8  C   UNL     1      -0.085  11.870  19.079  0.00  0.00    +0.000 A 
ATOM      9  C   UNL     1       0.854  11.123  19.761  0.00  0.00    +0.000 A 
ATOM     10  C   UNL     1       0.475  10.391  20.898  0.00  0.00    +0.000 A 
ENDROOT
BRANCH   1  14
ATOM     11  C   UNL     1       2.238   5.748  19.001  0.00  0.00    +0.000 A 
ATOM     12  C   UNL     1       1.885   5.678  20.349  0.00  0.00    +0.000 A 
ATOM     13  C   UNL     1       1.593   6.832  21.096  0.00  0.00    +0.000 A 
ATOM     14  C   UNL     1       1.653   8.137  20.564  0.00  0.00    +0.000 A 
ATOM     15  C   UNL     1       1.988   8.198  19.203  0.00  0.00    +0.000 A 
ATOM     16  C   UNL     1       2.274   7.037  18.441  0.00  0.00    +0.000 A 
BRANCH  11  18
ATOM     17  C   UNL     1       2.998   3.276  19.031  0.00  0.00    +0.000 C 
ATOM     18  C   UNL     1       2.563   4.492  18.172  0.00  0.00    +0.000 C 
ATOM     19  C   UNL     1       3.726   4.792  17.203  0.00  0.00    +0.000 C 
ATOM     20  C   UNL     1       1.330   4.042  17.355  0.00  0.00    +0.000 C 
ENDBRANCH  11  18
ENDBRANCH   1  14
BRANCH   7  21
ATOM     21  C   UNL     1      -2.220  10.983  18.252  0.00  0.00    +0.000 A 
ATOM     22  C   UNL     1      -1.609  10.193  17.257  0.00  0.00    +0.000 A 
ATOM     23  C   UNL     1      -2.280   9.861  16.076  0.00  0.00    +0.000 A 
ATOM     24  C   UNL     1      -3.585  10.302  15.864  0.00  0.00    +0.000 A 
ATOM     25  C   UNL     1      -4.234  11.066  16.830  0.00  0.00    +0.000 A 
ATOM     26  C   UNL     1      -3.530  11.430  17.982  0.00  0.00    +0.000 A 
BRANCH  25  27
ATOM     27  N   UNL     1      -5.461  11.681  16.546  0.00  0.00    +0.000 N 
ATOM     28  H   UNL     1      -6.175  11.497  17.242  0.00  0.00    +0.000 HD
ATOM     29  H   UNL     1      -5.380  12.669  16.325  0.00  0.00    +0.000 HD
ENDBRANCH  25  27
ENDBRANCH   7  21
TORSDOF 4
ENDMDL
MODEL 7
REMARK VINA RESULT:      -7.8      4.078      6.578
REMARK  Name = 
REMARK  7 active torsions:
REMARK  status: ('A' for Active; 'I' for Inactive)
REMARK    1  A    between atoms: C_1  and  C_2
REMARK    2  A    between atoms: C_2  and  C_3
REMARK    3  A    between atoms: C_2  and  C_4
REMARK    4  A    between atoms: C_2  and  C_5
REMARK    5  A    between atoms: C_8  and  C_9
REMARK    6  A    between atoms: C_15  and  C_16
REMARK    7  A    between atoms: C_20  and  N_21
REMARK                            x       y       z     vdW  Elec       q    Type
REMARK                         _______ _______ _______ _____ _____    ______ ____
ROOT
ATOM      1  C   UNL     1       1.727   4.774  20.294  0.00  0.00    +0.000 A 
ATOM      2  C   UNL     1       1.808   4.237  21.592  0.00  0.00    +0.000 A 
ATOM      3  C   UNL     1       2.534   3.069  21.843  0.00  0.00    +0.000 A 
ATOM      4  C   UNL     1       3.304   2.503  20.831  0.00  0.00    +0.000 A 
ATOM      5  C   UNL     1       3.154   2.971  19.522  0.00  0.00    +0.000 A 
ATOM      6  C   UNL     1       4.017   2.621  18.470  0.00  0.00    +0.000 A 
ATOM      7  C   UNL     1       3.766   3.151  17.197  0.00  0.00    +0.000 A 
ATOM      8  C   UNL     1       2.429   3.400  16.912  0.00  0.00    +0.000 A 
ATOM      9  C   UNL     1       1.680   3.948  17.933  0.00  0.00    +0.000 A 
ATOM     10  C   UNL     1       2.161   3.916  19.251  0.00  0.00    +0.000 A 
ENDROOT
BRANCH   1  14
ATOM     11  C   UNL     1       1.356   9.099  19.467  0.00  0.00    +0.000 A 
ATOM     12  C   UNL     1       1.930   8.193  18.574  0.00  0.00    +0.000 A 
ATOM     13  C   UNL     1       2.062   6.830  18.890  0.00  0.00    +0.000 A 
ATOM     14  C   UNL     1       1.652   6.274  20.120  0.00  0.00    +0.000 A 
ATOM     15  C   UNL     1       1.056   7.188  21.003  0.00  0.00    +0.000 A 
ATOM     16  C   UNL     1       0.911   8.562  20.687  0.00  0.00    +0.000 A 
BRANCH  11  18
ATOM     17  C   UNL     1       2.289  11.123  18.155  0.00  0.00    +0.000 C 
ATOM     18  C   UNL     1       1.209  10.596  19.134  0.00  0.00    +0.000 C 
ATOM     19  C   UNL     1       1.331  11.431  20.426  0.00  0.00    +0.000 C 
ATOM     20  C   UNL     1      -0.163  10.878  18.479  0.00  0.00    +0.000 C 
ENDBRANCH  11  18
ENDBRANCH   1  14
BRANCH   7  21
ATOM     21  C   UNL     1       4.776   3.971  16.462  0.00  0.00    +0.000 A 
ATOM     22  C   UNL     1       4.870   5.361  16.669  0.00  0.00    +0.000 A 
ATOM     23  C   UNL     1       5.599   6.179  15.800  0.00  0.00    +0.000 A 
ATOM     24  C   UNL     1       6.261   5.625  14.706  0.00  0.00    +0.000 A 
ATOM     25  C   UNL     1       6.212   4.253  14.477  0.00  0.00    +0.000 A 
ATOM     26  C   UNL     1       5.437   3.458  15.328  0.00  0.00    +0.000 A 
BRANCH  25  27
ATOM     27  N   UNL     1       6.700   3.713  13.279  0.00  0.00    +0.000 N 
ATOM     28  H   UNL     1       7.634   4.029  13.046  0.00  0.00    +0.000 HD
ATOM     29  H   UNL     1       6.605   2.704  13.219  0.00  0.00    +0.000 HD
ENDBRANCH  25  27
ENDBRANCH   7  21
TORSDOF 4
ENDMDL
MODEL 8
REMARK VINA RESULT:      -7.7      3.279      6.534
REMARK  Name = 
REMARK  7 active torsions:
REMARK  status: ('A' for Active; 'I' for Inactive)
REMARK    1  A    between atoms: C_1  and  C_2
REMARK    2  A    between atoms: C_2  and  C_3
REMARK    3  A    between atoms: C_2  and  C_4
REMARK    4  A    between atoms: C_2  and  C_5
REMARK    5  A    between atoms: C_8  and  C_9
REMARK    6  A    between atoms: C_15  and  C_16
REMARK    7  A    between atoms: C_20  and  N_21
REMARK                            x       y       z     vdW  Elec       q    Type
REMARK                         _______ _______ _______ _____ _____    ______ ____
ROOT
ATOM      1  C   UNL     1       1.730   4.887  20.128  0.00  0.00    +0.000 A 
ATOM      2  C   UNL     1       1.480   4.273  21.369  0.00  0.00    +0.000 A 
ATOM      3  C   UNL     1       2.155   3.107  21.743  0.00  0.00    +0.000 A 
ATOM      4  C   UNL     1       3.189   2.623  20.947  0.00  0.00    +0.000 A 
ATOM      5  C   UNL     1       3.379   3.168  19.673  0.00  0.00    +0.000 A 
ATOM      6  C   UNL     1       4.505   2.903  18.876  0.00  0.00    +0.000 A 
ATOM      7  C   UNL     1       4.584   3.507  17.613  0.00  0.00    +0.000 A 
ATOM      8  C   UNL     1       3.365   3.743  16.992  0.00  0.00    +0.000 A 
ATOM      9  C   UNL     1       2.348   4.210  17.800  0.00  0.00    +0.000 A 
ATOM     10  C   UNL     1       2.459   4.106  19.196  0.00  0.00    +0.000 A 
ENDROOT
BRANCH   1  14
ATOM     11  C   UNL     1       1.332   9.244  19.499  0.00  0.00    +0.000 A 
ATOM     12  C   UNL     1       1.899   8.380  18.559  0.00  0.00    +0.000 A 
ATOM     13  C   UNL     1       2.039   7.006  18.813  0.00  0.00    +0.000 A 
ATOM     14  C   UNL     1       1.647   6.394  20.022  0.00  0.00    +0.000 A 
ATOM     15  C   UNL     1       1.059   7.265  20.952  0.00  0.00    +0.000 A 
ATOM     16  C   UNL     1       0.905   8.651  20.700  0.00  0.00    +0.000 A 
BRANCH  11  18
ATOM     17  C   UNL     1       1.332  11.625  20.508  0.00  0.00    +0.000 C 
ATOM     18  C   UNL     1       1.176  10.753  19.235  0.00  0.00    +0.000 C 
ATOM     19  C   UNL     1      -0.230  11.040  18.666  0.00  0.00    +0.000 C 
ATOM     20  C   UNL     1       2.239  11.244  18.225  0.00  0.00    +0.000 C 
ENDBRANCH  11  18
ENDBRANCH   1  14
BRANCH   7  21
ATOM     21  C   UNL     1       5.722   4.392  17.224  0.00  0.00    +0.000 A 
ATOM     22  C   UNL     1       6.093   5.490  18.025  0.00  0.00    +0.000 A 
ATOM     23  C   UNL     1       6.953   6.484  17.547  0.00  0.00    +0.000 A 
ATOM     24  C   UNL     1       7.472   6.399  16.256  0.00  0.00    +0.000 A 
ATOM     25  C   UNL     1       7.149   5.320  15.439  0.00  0.00    +0.000 A 
ATOM     26  C   UNL     1       6.249   4.363  15.916  0.00  0.00    +0.000 A 
BRANCH  25  27
ATOM     27  N   UNL     1       7.498   5.326  14.081  0.00  0.00    +0.000 N 
ATOM     28  H   UNL     1       8.399   4.899  13.895  0.00  0.00    +0.000 HD
ATOM     29  H   UNL     1       6.768   4.971  13.471  0.00  0.00    +0.000 HD
ENDBRANCH  25  27
ENDBRANCH   7  21
TORSDOF 4
ENDMDL
MODEL 9
REMARK VINA RESULT:      -7.6      6.088     11.150
REMARK  Name = 
REMARK  7 active torsions:
REMARK  status: ('A' for Active; 'I' for Inactive)
REMARK    1  A    between atoms: C_1  and  C_2
REMARK    2  A    between atoms: C_2  and  C_3
REMARK    3  A    between atoms: C_2  and  C_4
REMARK    4  A    between atoms: C_2  and  C_5
REMARK    5  A    between atoms: C_8  and  C_9
REMARK    6  A    between atoms: C_15  and  C_16
REMARK    7  A    between atoms: C_20  and  N_21
REMARK                            x       y       z     vdW  Elec       q    Type
REMARK                         _______ _______ _______ _____ _____    ______ ____
ROOT
ATOM      1  C   UNL     1      -3.745  11.931  18.084  0.00  0.00    +0.000 A 
ATOM      2  C   UNL     1      -4.589  11.387  17.098  0.00  0.00    +0.000 A 
ATOM      3  C   UNL     1      -4.120  10.424  16.201  0.00  0.00    +0.000 A 
ATOM      4  C   UNL     1      -2.846   9.888  16.368  0.00  0.00    +0.000 A 
ATOM      5  C   UNL     1      -1.971  10.487  17.280  0.00  0.00    +0.000 A 
ATOM      6  C   UNL     1      -0.751   9.912  17.675  0.00  0.00    +0.000 A 
ATOM      7  C   UNL     1       0.045  10.608  18.596  0.00  0.00    +0.000 A 
ATOM      8  C   UNL     1      -0.057  11.992  18.541  0.00  0.00    +0.000 A 
ATOM      9  C   UNL     1      -1.326  12.504  18.361  0.00  0.00    +0.000 A 
ATOM     10  C   UNL     1      -2.362  11.668  17.916  0.00  0.00    +0.000 A 
ENDROOT
BRANCH   1  14
ATOM     11  C   UNL     1      -5.608  12.740  22.009  0.00  0.00    +0.000 A 
ATOM     12  C   UNL     1      -6.315  12.250  20.910  0.00  0.00    +0.000 A 
ATOM     13  C   UNL     1      -5.693  12.039  19.668  0.00  0.00    +0.000 A 
ATOM     14  C   UNL     1      -4.332  12.319  19.423  0.00  0.00    +0.000 A 
ATOM     15  C   UNL     1      -3.623  12.790  20.539  0.00  0.00    +0.000 A 
ATOM     16  C   UNL     1      -4.242  12.996  21.798  0.00  0.00    +0.000 A 
BRANCH  11  18
ATOM     17  C   UNL     1      -6.575  14.472  23.669  0.00  0.00    +0.000 C 
ATOM     18  C   UNL     1      -6.279  12.978  23.375  0.00  0.00    +0.000 C 
ATOM     19  C   UNL     1      -5.355  12.475  24.505  0.00  0.00    +0.000 C 
ATOM     20  C   UNL     1      -7.630  12.231  23.458  0.00  0.00    +0.000 C 
ENDBRANCH  11  18
ENDBRANCH   1  14
BRANCH   7  21
ATOM     21  C   UNL     1       0.454  10.014  19.904  0.00  0.00    +0.000 A 
ATOM     22  C   UNL     1       1.285   8.877  19.956  0.00  0.00    +0.000 A 
ATOM     23  C   UNL     1       1.444   8.145  21.136  0.00  0.00    +0.000 A 
ATOM     24  C   UNL     1       0.784   8.537  22.299  0.00  0.00    +0.000 A 
ATOM     25  C   UNL     1      -0.029   9.667  22.297  0.00  0.00    +0.000 A 
ATOM     26  C   UNL     1      -0.216  10.357  21.096  0.00  0.00    +0.000 A 
BRANCH  25  27
ATOM     27  N   UNL     1      -0.851   9.954  23.396  0.00  0.00    +0.000 N 
ATOM     28  H   UNL     1      -1.764   9.514  23.342  0.00  0.00    +0.000 HD
ATOM     29  H   UNL     1      -0.401   9.802  24.293  0.00  0.00    +0.000 HD
ENDBRANCH  25  27
ENDBRANCH   7  21
TORSDOF 4
ENDMDL
