MODEL 1
REMARK VINA RESULT:      -8.6      0.000      0.000
REMARK  Name = 
REMARK  6 active torsions:
REMARK  status: ('A' for Active; 'I' for Inactive)
REMARK    1  A    between atoms: C_2  and  C_3
REMARK    2  A    between atoms: C_3  and  C_4
REMARK    3  A    between atoms: C_4  and  N_5
REMARK    4  A    between atoms: N_8  and  C_9
REMARK    5  A    between atoms: C_9  and  C_10
REMARK    6  A    between atoms: N_18  and  C_19
REMARK                            x       y       z     vdW  Elec       q    Type
REMARK                         _______ _______ _______ _____ _____    ______ ____
ROOT
ATOM      1  C   UNL     1       8.202   7.319  18.573  0.00  0.00    +0.000 C 
ENDROOT
BRANCH   1   3
ATOM      2  O   UNL     1       7.610   9.437  17.597  0.00  0.00    +0.000 OA
ATOM      3  C   UNL     1       8.350   8.805  18.350  0.00  0.00    +0.000 C 
ATOM      4  N   UNL     1       9.360   9.335  19.134  0.00  0.00    +0.000 N 
ATOM      5  H   UNL     1       9.969   8.676  19.598  0.00  0.00    +0.000 HD
BRANCH   4   6
ATOM      6  C   UNL     1       9.508  10.685  19.513  0.00  0.00    +0.000 A 
ATOM      7  C   UNL     1       9.275  11.148  20.825  0.00  0.00    +0.000 A 
ATOM      8  C   UNL     1       9.688  12.425  21.225  0.00  0.00    +0.000 A 
ATOM      9  C   UNL     1      10.352  13.187  20.295  0.00  0.00    +0.000 A 
ATOM     10  C   UNL     1      10.509  12.771  18.993  0.00  0.00    +0.000 A 
ATOM     11  C   UNL     1      10.068  11.542  18.559  0.00  0.00    +0.000 A 
ATOM     12  O   UNL     1      11.262  13.642  18.265  0.00  0.00    +0.000 OA
ATOM     13  C   UNL     1      11.844  14.389  19.353  0.00  0.00    +0.000 C 
ATOM     14  O   UNL     1      11.022  14.349  20.538  0.00  0.00    +0.000 OA
ENDBRANCH   4   6
ENDBRANCH   1   3
BRANCH   1  15
ATOM     15  C   UNL     1       7.384   6.652  17.459  0.00  0.00    +0.000 C 
BRANCH  15  16
ATOM     16  N   UNL     1       6.956   5.288  17.827  0.00  0.00    +0.000 NA
ATOM     17  C   UNL     1       5.958   5.269  18.916  0.00  0.00    +0.000 C 
ATOM     18  C   UNL     1       4.507   5.606  18.487  0.00  0.00    +0.000 C 
ATOM     19  N   UNL     1       3.995   4.741  17.400  0.00  0.00    +0.000 NA
ATOM     20  C   UNL     1       4.952   4.842  16.276  0.00  0.00    +0.000 C 
ATOM     21  C   UNL     1       6.429   4.556  16.647  0.00  0.00    +0.000 C 
BRANCH  19  22
ATOM     22  C   UNL     1       3.833   3.364  17.913  0.00  0.00    +0.000 C 
BRANCH  22  23
ATOM     23  C   UNL     1       2.954   3.211  19.130  0.00  0.00    +0.000 A 
ATOM     24  C   UNL     1       1.583   3.507  19.038  0.00  0.00    +0.000 A 
ATOM     25  C   UNL     1       0.743   3.335  20.136  0.00  0.00    +0.000 A 
ATOM     26  C   UNL     1       1.264   2.858  21.337  0.00  0.00    +0.000 A 
ATOM     27  C   UNL     1       2.621   2.554  21.439  0.00  0.00    +0.000 A 
ATOM     28  C   UNL     1       3.464   2.728  20.340  0.00  0.00    +0.000 A 
ENDBRANCH  22  23
ENDBRANCH  19  22
ENDBRANCH  15  16
ENDBRANCH   1  15
TORSDOF 6
ENDMDL
MODEL 2
REMARK VINA RESULT:      -8.4      0.893      1.319
REMARK  Name = 
REMARK  6 active torsions:
REMARK  status: ('A' for Active; 'I' for Inactive)
REMARK    1  A    between atoms: C_2  and  C_3
REMARK    2  A    between atoms: C_3  and  C_4
REMARK    3  A    between atoms: C_4  and  N_5
REMARK    4  A    between atoms: N_8  and  C_9
REMARK    5  A    between atoms: C_9  and  C_10
REMARK    6  A    between atoms: N_18  and  C_19
REMARK                            x       y       z     vdW  Elec       q    Type
REMARK                         _______ _______ _______ _____ _____    ______ ____
ROOT
ATOM      1  C   UNL     1       8.015   7.128  18.453  0.00  0.00    +0.000 C 
ENDROOT
BRANCH   1   3
ATOM      2  O   UNL     1       7.685   9.206  17.287  0.00  0.00    +0.000 OA
ATOM      3  C   UNL     1       8.276   8.588  18.171  0.00  0.00    +0.000 C 
ATOM      4  N   UNL     1       9.196   9.118  19.058  0.00  0.00    +0.000 N 
ATOM      5  H   UNL     1       9.698   8.461  19.640  0.00  0.00    +0.000 HD
BRANCH   4   6
ATOM      6  C   UNL     1       9.368  10.481  19.379  0.00  0.00    +0.000 A 
ATOM      7  C   UNL     1       9.320  10.974  20.699  0.00  0.00    +0.000 A 
ATOM      8  C   UNL     1       9.757  12.270  21.002  0.00  0.00    +0.000 A 
ATOM      9  C   UNL     1      10.258  13.019  19.966  0.00  0.00    +0.000 A 
ATOM     10  C   UNL     1      10.230  12.570  18.666  0.00  0.00    +0.000 A 
ATOM     11  C   UNL     1       9.759  11.322  18.331  0.00  0.00    +0.000 A 
ATOM     12  O   UNL     1      10.847  13.436  17.813  0.00  0.00    +0.000 OA
ATOM     13  C   UNL     1      11.565  14.224  18.785  0.00  0.00    +0.000 C 
ATOM     14  O   UNL     1      10.928  14.200  20.080  0.00  0.00    +0.000 OA
ENDBRANCH   4   6
ENDBRANCH   1   3
BRANCH   1  15
ATOM     15  C   UNL     1       7.333   6.430  17.269  0.00  0.00    +0.000 C 
BRANCH  15  16
ATOM     16  N   UNL     1       5.862   6.450  17.386  0.00  0.00    +0.000 NA
ATOM     17  C   UNL     1       5.177   5.976  16.167  0.00  0.00    +0.000 C 
ATOM     18  C   UNL     1       5.140   4.438  15.986  0.00  0.00    +0.000 C 
ATOM     19  N   UNL     1       4.543   3.721  17.136  0.00  0.00    +0.000 NA
ATOM     20  C   UNL     1       5.299   4.127  18.341  0.00  0.00    +0.000 C 
ATOM     21  C   UNL     1       5.409   5.658  18.559  0.00  0.00    +0.000 C 
BRANCH  19  22
ATOM     22  C   UNL     1       3.102   4.039  17.209  0.00  0.00    +0.000 C 
BRANCH  22  23
ATOM     23  C   UNL     1       2.416   3.704  18.511  0.00  0.00    +0.000 A 
ATOM     24  C   UNL     1       1.920   4.740  19.321  0.00  0.00    +0.000 A 
ATOM     25  C   UNL     1       1.247   4.455  20.507  0.00  0.00    +0.000 A 
ATOM     26  C   UNL     1       1.056   3.130  20.893  0.00  0.00    +0.000 A 
ATOM     27  C   UNL     1       1.537   2.093  20.094  0.00  0.00    +0.000 A 
ATOM     28  C   UNL     1       2.214   2.377  18.906  0.00  0.00    +0.000 A 
ENDBRANCH  22  23
ENDBRANCH  19  22
ENDBRANCH  15  16
ENDBRANCH   1  15
TORSDOF 6
ENDMDL
MODEL 3
REMARK VINA RESULT:      -8.1      1.915      2.355
REMARK  Name = 
REMARK  6 active torsions:
REMARK  status: ('A' for Active; 'I' for Inactive)
REMARK    1  A    between atoms: C_2  and  C_3
REMARK    2  A    between atoms: C_3  and  C_4
REMARK    3  A    between atoms: C_4  and  N_5
REMARK    4  A    between atoms: N_8  and  C_9
REMARK    5  A    between atoms: C_9  and  C_10
REMARK    6  A    between atoms: N_18  and  C_19
REMARK                            x       y       z     vdW  Elec       q    Type
REMARK                         _______ _______ _______ _____ _____    ______ ____
ROOT
ATOM      1  C   UNL     1       7.869   8.561  17.648  0.00  0.00    +0.000 C 
ENDROOT
BRANCH   1   3
ATOM      2  O   UNL     1       9.197   9.427  19.457  0.00  0.00    +0.000 OA
ATOM      3  C   UNL     1       8.606   9.643  18.400  0.00  0.00    +0.000 C 
ATOM      4  N   UNL     1       8.570  10.847  17.720  0.00  0.00    +0.000 N 
ATOM      5  H   UNL     1       7.934  10.908  16.936  0.00  0.00    +0.000 HD
BRANCH   4   6
ATOM      6  C   UNL     1       9.462  11.928  17.875  0.00  0.00    +0.000 A 
ATOM      7  C   UNL     1      10.853  11.816  17.670  0.00  0.00    +0.000 A 
ATOM      8  C   UNL     1      11.663  12.954  17.570  0.00  0.00    +0.000 A 
ATOM      9  C   UNL     1      11.038  14.175  17.649  0.00  0.00    +0.000 A 
ATOM     10  C   UNL     1       9.696  14.287  17.929  0.00  0.00    +0.000 A 
ATOM     11  C   UNL     1       8.885  13.186  18.083  0.00  0.00    +0.000 A 
ATOM     12  O   UNL     1       9.270  15.581  17.883  0.00  0.00    +0.000 OA
ATOM     13  C   UNL     1      10.390  16.153  17.176  0.00  0.00    +0.000 C 
ATOM     14  O   UNL     1      11.597  15.384  17.359  0.00  0.00    +0.000 OA
ENDBRANCH   4   6
ENDBRANCH   1   3
BRANCH   1  15
ATOM     15  C   UNL     1       7.975   7.202  18.350  0.00  0.00    +0.000 C 
BRANCH  15  16
ATOM     16  N   UNL     1       7.287   6.135  17.598  0.00  0.00    +0.000 NA
ATOM     17  C   UNL     1       6.678   5.111  18.470  0.00  0.00    +0.000 C 
ATOM     18  C   UNL     1       5.332   5.516  19.123  0.00  0.00    +0.000 C 
ATOM     19  N   UNL     1       4.302   5.934  18.145  0.00  0.00    +0.000 NA
ATOM     20  C   UNL     1       4.887   7.027  17.338  0.00  0.00    +0.000 C 
ATOM     21  C   UNL     1       6.256   6.700  16.689  0.00  0.00    +0.000 C 
BRANCH  19  22
ATOM     22  C   UNL     1       3.894   4.763  17.342  0.00  0.00    +0.000 C 
BRANCH  22  23
ATOM     23  C   UNL     1       2.875   3.847  17.977  0.00  0.00    +0.000 A 
ATOM     24  C   UNL     1       3.044   2.455  17.889  0.00  0.00    +0.000 A 
ATOM     25  C   UNL     1       2.140   1.589  18.502  0.00  0.00    +0.000 A 
ATOM     26  C   UNL     1       1.061   2.107  19.215  0.00  0.00    +0.000 A 
ATOM     27  C   UNL     1       0.887   3.488  19.315  0.00  0.00    +0.000 A 
ATOM     28  C   UNL     1       1.791   4.356  18.700  0.00  0.00    +0.000 A 
ENDBRANCH  22  23
ENDBRANCH  19  22
ENDBRANCH  15  16
ENDBRANCH   1  15
TORSDOF 6
ENDMDL
MODEL 4
REMARK VINA RESULT:      -8.0      0.902      1.585
REMARK  Name = 
REMARK  6 active torsions:
REMARK  status: ('A' for Active; 'I' for Inactive)
REMARK    1  A    between atoms: C_2  and  C_3
REMARK    2  A    between atoms: C_3  and  C_4
REMARK    3  A    between atoms: C_4  and  N_5
REMARK    4  A    between atoms: N_8  and  C_9
REMARK    5  A    between atoms: C_9  and  C_10
REMARK    6  A    between atoms: N_18  and  C_19
REMARK                            x       y       z     vdW  Elec       q    Type
REMARK                         _______ _______ _______ _____ _____    ______ ____
ROOT
ATOM      1  C   UNL     1       8.190   7.423  18.658  0.00  0.00    +0.000 C 
ENDROOT
BRANCH   1   3
ATOM      2  O   UNL     1       7.703   9.498  17.542  0.00  0.00    +0.000 OA
ATOM      3  C   UNL     1       8.406   8.884  18.344  0.00  0.00    +0.000 C 
ATOM      4  N   UNL     1       9.429   9.419  19.106  0.00  0.00    +0.000 N 
ATOM      5  H   UNL     1      10.003   8.765  19.620  0.00  0.00    +0.000 HD
BRANCH   4   6
ATOM      6  C   UNL     1       9.632  10.783  19.401  0.00  0.00    +0.000 A 
ATOM      7  C   UNL     1      10.065  11.724  18.443  0.00  0.00    +0.000 A 
ATOM      8  C   UNL     1       9.997  13.099  18.698  0.00  0.00    +0.000 A 
ATOM      9  C   UNL     1       9.465  13.485  19.905  0.00  0.00    +0.000 A 
ATOM     10  C   UNL     1       9.119  12.570  20.871  0.00  0.00    +0.000 A 
ATOM     11  C   UNL     1       9.222  11.213  20.668  0.00  0.00    +0.000 A 
ATOM     12  O   UNL     1       8.542  13.164  21.954  0.00  0.00    +0.000 OA
ATOM     13  C   UNL     1       8.236  14.444  21.362  0.00  0.00    +0.000 C 
ATOM     14  O   UNL     1       9.110  14.753  20.257  0.00  0.00    +0.000 OA
ENDBRANCH   4   6
ENDBRANCH   1   3
BRANCH   1  15
ATOM     15  C   UNL     1       7.343   6.726  17.585  0.00  0.00    +0.000 C 
BRANCH  15  16
ATOM     16  N   UNL     1       6.951   5.362  17.989  0.00  0.00    +0.000 NA
ATOM     17  C   UNL     1       5.871   5.344  18.996  0.00  0.00    +0.000 C 
ATOM     18  C   UNL     1       4.445   5.586  18.439  0.00  0.00    +0.000 C 
ATOM     19  N   UNL     1       4.063   4.645  17.362  0.00  0.00    +0.000 NA
ATOM     20  C   UNL     1       5.101   4.740  16.312  0.00  0.00    +0.000 C 
ATOM     21  C   UNL     1       6.555   4.547  16.811  0.00  0.00    +0.000 C 
BRANCH  19  22
ATOM     22  C   UNL     1       3.924   3.288  17.932  0.00  0.00    +0.000 C 
BRANCH  22  23
ATOM     23  C   UNL     1       3.015   3.163  19.130  0.00  0.00    +0.000 A 
ATOM     24  C   UNL     1       1.649   3.464  18.998  0.00  0.00    +0.000 A 
ATOM     25  C   UNL     1       0.781   3.317  20.079  0.00  0.00    +0.000 A 
ATOM     26  C   UNL     1       1.270   2.862  21.301  0.00  0.00    +0.000 A 
ATOM     27  C   UNL     1       2.623   2.553  21.442  0.00  0.00    +0.000 A 
ATOM     28  C   UNL     1       3.493   2.703  20.361  0.00  0.00    +0.000 A 
ENDBRANCH  22  23
ENDBRANCH  19  22
ENDBRANCH  15  16
ENDBRANCH   1  15
TORSDOF 6
ENDMDL
MODEL 5
REMARK VINA RESULT:      -7.9      1.231      2.080
REMARK  Name = 
REMARK  6 active torsions:
REMARK  status: ('A' for Active; 'I' for Inactive)
REMARK    1  A    between atoms: C_2  and  C_3
REMARK    2  A    between atoms: C_3  and  C_4
REMARK    3  A    between atoms: C_4  and  N_5
REMARK    4  A    between atoms: N_8  and  C_9
REMARK    5  A    between atoms: C_9  and  C_10
REMARK    6  A    between atoms: N_18  and  C_19
REMARK                            x       y       z     vdW  Elec       q    Type
REMARK                         _______ _______ _______ _____ _____    ______ ____
ROOT
ATOM      1  C   UNL     1       7.992   7.298  18.511  0.00  0.00    +0.000 C 
ENDROOT
BRANCH   1   3
ATOM      2  O   UNL     1       7.514   9.403  17.449  0.00  0.00    +0.000 OA
ATOM      3  C   UNL     1       8.241   8.755  18.202  0.00  0.00    +0.000 C 
ATOM      4  N   UNL     1       9.324   9.245  18.909  0.00  0.00    +0.000 N 
ATOM      5  H   UNL     1       9.905   8.565  19.380  0.00  0.00    +0.000 HD
BRANCH   4   6
ATOM      6  C   UNL     1       9.592  10.597  19.207  0.00  0.00    +0.000 A 
ATOM      7  C   UNL     1       9.940  11.549  18.226  0.00  0.00    +0.000 A 
ATOM      8  C   UNL     1       9.933  12.919  18.515  0.00  0.00    +0.000 A 
ATOM      9  C   UNL     1       9.547  13.290  19.780  0.00  0.00    +0.000 A 
ATOM     10  C   UNL     1       9.287  12.361  20.760  0.00  0.00    +0.000 A 
ATOM     11  C   UNL     1       9.334  11.007  20.520  0.00  0.00    +0.000 A 
ATOM     12  O   UNL     1       8.846  12.943  21.912  0.00  0.00    +0.000 OA
ATOM     13  C   UNL     1       8.508  14.242  21.383  0.00  0.00    +0.000 C 
ATOM     14  O   UNL     1       9.264  14.557  20.194  0.00  0.00    +0.000 OA
ENDBRANCH   4   6
ENDBRANCH   1   3
BRANCH   1  15
ATOM     15  C   UNL     1       7.394   6.552  17.311  0.00  0.00    +0.000 C 
BRANCH  15  16
ATOM     16  N   UNL     1       5.918   6.556  17.337  0.00  0.00    +0.000 NA
ATOM     17  C   UNL     1       5.316   5.995  16.111  0.00  0.00    +0.000 C 
ATOM     18  C   UNL     1       5.308   4.447  16.028  0.00  0.00    +0.000 C 
ATOM     19  N   UNL     1       4.650   3.796  17.183  0.00  0.00    +0.000 NA
ATOM     20  C   UNL     1       5.325   4.290  18.404  0.00  0.00    +0.000 C 
ATOM     21  C   UNL     1       5.402   5.833  18.528  0.00  0.00    +0.000 C 
BRANCH  19  22
ATOM     22  C   UNL     1       3.203   4.095  17.148  0.00  0.00    +0.000 C 
BRANCH  22  23
ATOM     23  C   UNL     1       2.432   3.784  18.408  0.00  0.00    +0.000 A 
ATOM     24  C   UNL     1       2.183   2.445  18.756  0.00  0.00    +0.000 A 
ATOM     25  C   UNL     1       1.509   2.131  19.934  0.00  0.00    +0.000 A 
ATOM     26  C   UNL     1       1.083   3.152  20.781  0.00  0.00    +0.000 A 
ATOM     27  C   UNL     1       1.332   4.484  20.450  0.00  0.00    +0.000 A 
ATOM     28  C   UNL     1       2.005   4.800  19.268  0.00  0.00    +0.000 A 
ENDBRANCH  22  23
ENDBRANCH  19  22
ENDBRANCH  15  16
ENDBRANCH   1  15
TORSDOF 6
ENDMDL
MODEL 6
REMARK VINA RESULT:      -7.8      2.800     11.043
REMARK  Name = 
REMARK  6 active torsions:
REMARK  status: ('A' for Active; 'I' for Inactive)
REMARK    1  A    between atoms: C_2  and  C_3
REMARK    2  A    between atoms: C_3  and  C_4
REMARK    3  A    between atoms: C_4  and  N_5
REMARK    4  A    between atoms: N_8  and  C_9
REMARK    5  A    between atoms: C_9  and  C_10
REMARK    6  A    between atoms: N_18  and  C_19
REMARK                            x       y       z     vdW  Elec       q    Type
REMARK                         _______ _______ _______ _____ _____    ______ ____
ROOT
ATOM      1  C   UNL     1       8.096   9.217  17.820  0.00  0.00    +0.000 C 
ENDROOT
BRANCH   1   3
ATOM      2  O   UNL     1       8.164   6.970  18.676  0.00  0.00    +0.000 OA
ATOM      3  C   UNL     1       7.767   7.744  17.805  0.00  0.00    +0.000 C 
ATOM      4  N   UNL     1       6.939   7.420  16.746  0.00  0.00    +0.000 N 
ATOM      5  H   UNL     1       6.808   8.130  16.038  0.00  0.00    +0.000 HD
BRANCH   4   6
ATOM      6  C   UNL     1       6.105   6.288  16.646  0.00  0.00    +0.000 A 
ATOM      7  C   UNL     1       6.509   5.083  16.033  0.00  0.00    +0.000 A 
ATOM      8  C   UNL     1       5.764   3.907  16.190  0.00  0.00    +0.000 A 
ATOM      9  C   UNL     1       4.646   3.977  16.986  0.00  0.00    +0.000 A 
ATOM     10  C   UNL     1       4.206   5.167  17.516  0.00  0.00    +0.000 A 
ATOM     11  C   UNL     1       4.890   6.347  17.338  0.00  0.00    +0.000 A 
ATOM     12  O   UNL     1       3.129   4.994  18.335  0.00  0.00    +0.000 OA
ATOM     13  C   UNL     1       3.233   3.569  18.532  0.00  0.00    +0.000 C 
ATOM     14  O   UNL     1       3.918   2.919  17.440  0.00  0.00    +0.000 OA
ENDBRANCH   4   6
ENDBRANCH   1   3
BRANCH   1  15
ATOM     15  C   UNL     1       9.086   9.572  18.937  0.00  0.00    +0.000 C 
BRANCH  15  16
ATOM     16  N   UNL     1       8.910  10.958  19.413  0.00  0.00    +0.000 NA
ATOM     17  C   UNL     1       9.828  11.313  20.514  0.00  0.00    +0.000 C 
ATOM     18  C   UNL     1      11.278  11.649  20.081  0.00  0.00    +0.000 C 
ATOM     19  N   UNL     1      11.359  12.727  19.071  0.00  0.00    +0.000 NA
ATOM     20  C   UNL     1      10.512  12.318  17.928  0.00  0.00    +0.000 C 
ATOM     21  C   UNL     1       9.059  11.930  18.299  0.00  0.00    +0.000 C 
BRANCH  19  22
ATOM     22  C   UNL     1      10.939  14.002  19.688  0.00  0.00    +0.000 C 
BRANCH  22  23
ATOM     23  C   UNL     1      11.027  15.225  18.808  0.00  0.00    +0.000 A 
ATOM     24  C   UNL     1       9.849  15.874  18.402  0.00  0.00    +0.000 A 
ATOM     25  C   UNL     1       9.906  17.028  17.623  0.00  0.00    +0.000 A 
ATOM     26  C   UNL     1      11.142  17.550  17.248  0.00  0.00    +0.000 A 
ATOM     27  C   UNL     1      12.319  16.918  17.651  0.00  0.00    +0.000 A 
ATOM     28  C   UNL     1      12.263  15.760  18.429  0.00  0.00    +0.000 A 
ENDBRANCH  22  23
ENDBRANCH  19  22
ENDBRANCH  15  16
ENDBRANCH   1  15
TORSDOF 6
ENDMDL
MODEL 7
REMARK VINA RESULT:      -7.8      1.086      1.685
REMARK  Name = 
REMARK  6 active torsions:
REMARK  status: ('A' for Active; 'I' for Inactive)
REMARK    1  A    between atoms: C_2  and  C_3
REMARK    2  A    between atoms: C_3  and  C_4
REMARK    3  A    between atoms: C_4  and  N_5
REMARK    4  A    between atoms: N_8  and  C_9
REMARK    5  A    between atoms: C_9  and  C_10
REMARK    6  A    between atoms: N_18  and  C_19
REMARK                            x       y       z     vdW  Elec       q    Type
REMARK                         _______ _______ _______ _____ _____    ______ ____
ROOT
ATOM      1  C   UNL     1       7.645   7.463  16.954  0.00  0.00    +0.000 C 
ENDROOT
BRANCH   1   3
ATOM      2  O   UNL     1       8.688   7.556  19.120  0.00  0.00    +0.000 OA
ATOM      3  C   UNL     1       8.279   8.164  18.131  0.00  0.00    +0.000 C 
ATOM      4  N   UNL     1       8.382   9.526  17.913  0.00  0.00    +0.000 N 
ATOM      5  H   UNL     1       7.882   9.899  17.118  0.00  0.00    +0.000 HD
BRANCH   4   6
ATOM      6  C   UNL     1       9.265  10.417  18.559  0.00  0.00    +0.000 A 
ATOM      7  C   UNL     1      10.191  11.224  17.865  0.00  0.00    +0.000 A 
ATOM      8  C   UNL     1      10.853  12.279  18.506  0.00  0.00    +0.000 A 
ATOM      9  C   UNL     1      10.537  12.506  19.824  0.00  0.00    +0.000 A 
ATOM     10  C   UNL     1       9.697  11.671  20.523  0.00  0.00    +0.000 A 
ATOM     11  C   UNL     1       9.072  10.597  19.933  0.00  0.00    +0.000 A 
ATOM     12  O   UNL     1       9.462  12.125  21.787  0.00  0.00    +0.000 OA
ATOM     13  C   UNL     1       9.924  13.481  21.620  0.00  0.00    +0.000 C 
ATOM     14  O   UNL     1      10.894  13.597  20.558  0.00  0.00    +0.000 OA
ENDBRANCH   4   6
ENDBRANCH   1   3
BRANCH   1  15
ATOM     15  C   UNL     1       6.190   7.067  17.238  0.00  0.00    +0.000 C 
BRANCH  15  16
ATOM     16  N   UNL     1       6.095   5.764  17.925  0.00  0.00    +0.000 NA
ATOM     17  C   UNL     1       4.848   5.607  18.699  0.00  0.00    +0.000 C 
ATOM     18  C   UNL     1       3.592   5.255  17.861  0.00  0.00    +0.000 C 
ATOM     19  N   UNL     1       3.755   4.040  17.032  0.00  0.00    +0.000 NA
ATOM     20  C   UNL     1       4.954   4.246  16.189  0.00  0.00    +0.000 C 
ATOM     21  C   UNL     1       6.237   4.641  16.963  0.00  0.00    +0.000 C 
BRANCH  19  22
ATOM     22  C   UNL     1       3.854   2.860  17.917  0.00  0.00    +0.000 C 
BRANCH  22  23
ATOM     23  C   UNL     1       2.954   2.864  19.128  0.00  0.00    +0.000 A 
ATOM     24  C   UNL     1       1.563   2.970  18.959  0.00  0.00    +0.000 A 
ATOM     25  C   UNL     1       0.708   2.935  20.058  0.00  0.00    +0.000 A 
ATOM     26  C   UNL     1       1.235   2.787  21.339  0.00  0.00    +0.000 A 
ATOM     27  C   UNL     1       2.613   2.674  21.520  0.00  0.00    +0.000 A 
ATOM     28  C   UNL     1       3.471   2.711  20.419  0.00  0.00    +0.000 A 
ENDBRANCH  22  23
ENDBRANCH  19  22
ENDBRANCH  15  16
ENDBRANCH   1  15
TORSDOF 6
ENDMDL
MODEL 8
REMARK VINA RESULT:      -7.7      6.348      8.329
REMARK  Name = 
REMARK  6 active torsions:
REMARK  status: ('A' for Active; 'I' for Inactive)
REMARK    1  A    between atoms: C_2  and  C_3
REMARK    2  A    between atoms: C_3  and  C_4
REMARK    3  A    between atoms: C_4  and  N_5
REMARK    4  A    between atoms: N_8  and  C_9
REMARK    5  A    between atoms: C_9  and  C_10
REMARK    6  A    between atoms: N_18  and  C_19
REMARK                            x       y       z     vdW  Elec       q    Type
REMARK                         _______ _______ _______ _____ _____    ______ ____
ROOT
ATOM      1  C   UNL     1       2.489   4.635  21.184  0.00  0.00    +0.000 C 
ENDROOT
BRANCH   1   3
ATOM      2  O   UNL     1       0.373   5.525  20.467  0.00  0.00    +0.000 OA
ATOM      3  C   UNL     1       1.558   5.731  20.726  0.00  0.00    +0.000 C 
ATOM      4  N   UNL     1       2.195   6.959  20.701  0.00  0.00    +0.000 N 
ATOM      5  H   UNL     1       3.200   6.952  20.807  0.00  0.00    +0.000 HD
BRANCH   4   6
ATOM      6  C   UNL     1       1.579   8.227  20.744  0.00  0.00    +0.000 A 
ATOM      7  C   UNL     1       1.055   8.870  19.603  0.00  0.00    +0.000 A 
ATOM      8  C   UNL     1       0.221   9.988  19.722  0.00  0.00    +0.000 A 
ATOM      9  C   UNL     1      -0.084  10.408  20.994  0.00  0.00    +0.000 A 
ATOM     10  C   UNL     1       0.490   9.834  22.104  0.00  0.00    +0.000 A 
ATOM     11  C   UNL     1       1.352   8.766  22.016  0.00  0.00    +0.000 A 
ATOM     12  O   UNL     1      -0.011  10.350  23.263  0.00  0.00    +0.000 OA
ATOM     13  C   UNL     1      -1.190  10.985  22.726  0.00  0.00    +0.000 C 
ATOM     14  O   UNL     1      -1.036  11.323  21.331  0.00  0.00    +0.000 OA
ENDBRANCH   4   6
ENDBRANCH   1   3
BRANCH   1  15
ATOM     15  C   UNL     1       3.179   3.939  20.003  0.00  0.00    +0.000 C 
BRANCH  15  16
ATOM     16  N   UNL     1       3.338   4.840  18.845  0.00  0.00    +0.000 NA
ATOM     17  C   UNL     1       4.697   5.405  18.733  0.00  0.00    +0.000 C 
ATOM     18  C   UNL     1       5.761   4.451  18.134  0.00  0.00    +0.000 C 
ATOM     19  N   UNL     1       5.393   3.915  16.804  0.00  0.00    +0.000 NA
ATOM     20  C   UNL     1       4.072   3.265  16.947  0.00  0.00    +0.000 C 
ATOM     21  C   UNL     1       2.971   4.154  17.579  0.00  0.00    +0.000 C 
BRANCH  19  22
ATOM     22  C   UNL     1       5.404   5.016  15.819  0.00  0.00    +0.000 C 
BRANCH  22  23
ATOM     23  C   UNL     1       5.987   4.688  14.466  0.00  0.00    +0.000 A 
ATOM     24  C   UNL     1       7.218   5.251  14.086  0.00  0.00    +0.000 A 
ATOM     25  C   UNL     1       7.797   4.932  12.859  0.00  0.00    +0.000 A 
ATOM     26  C   UNL     1       7.155   4.040  12.002  0.00  0.00    +0.000 A 
ATOM     27  C   UNL     1       5.937   3.470  12.372  0.00  0.00    +0.000 A 
ATOM     28  C   UNL     1       5.355   3.791  13.599  0.00  0.00    +0.000 A 
ENDBRANCH  22  23
ENDBRANCH  19  22
ENDBRANCH  15  16
ENDBRANCH   1  15
TORSDOF 6
ENDMDL
MODEL 9
REMARK VINA RESULT:      -7.7      5.376      8.316
REMARK  Name = 
REMARK  6 active torsions:
REMARK  status: ('A' for Active; 'I' for Inactive)
REMARK    1  A    between atoms: C_2  and  C_3
REMARK    2  A    between atoms: C_3  and  C_4
REMARK    3  A    between atoms: C_4  and  N_5
REMARK    4  A    between atoms: N_8  and  C_9
REMARK    5  A    between atoms: C_9  and  C_10
REMARK    6  A    between atoms: N_18  and  C_19
REMARK                            x       y       z     vdW  Elec       q    Type
REMARK                         _______ _______ _______ _____ _____    ______ ____
ROOT
ATOM      1  C   UNL     1       2.459   6.211  18.453  0.00  0.00    +0.000 C 
ENDROOT
BRANCH   1   3
ATOM      2  O   UNL     1       2.554   8.509  17.747  0.00  0.00    +0.000 OA
ATOM      3  C   UNL     1       2.274   7.699  18.630  0.00  0.00    +0.000 C 
ATOM      4  N   UNL     1       1.710   7.996  19.858  0.00  0.00    +0.000 N 
ATOM      5  H   UNL     1       1.662   7.243  20.531  0.00  0.00    +0.000 HD
BRANCH   4   6
ATOM      6  C   UNL     1       1.018   9.176  20.202  0.00  0.00    +0.000 A 
ATOM      7  C   UNL     1       0.255   9.920  19.279  0.00  0.00    +0.000 A 
ATOM      8  C   UNL     1      -0.627  10.920  19.709  0.00  0.00    +0.000 A 
ATOM      9  C   UNL     1      -0.733  11.118  21.064  0.00  0.00    +0.000 A 
ATOM     10  C   UNL     1       0.068  10.451  21.960  0.00  0.00    +0.000 A 
ATOM     11  C   UNL     1       0.980   9.500  21.563  0.00  0.00    +0.000 A 
ATOM     12  O   UNL     1      -0.258  10.741  23.252  0.00  0.00    +0.000 OA
ATOM     13  C   UNL     1      -1.557  11.324  23.022  0.00  0.00    +0.000 C 
ATOM     14  O   UNL     1      -1.677  11.873  21.693  0.00  0.00    +0.000 OA
ENDBRANCH   4   6
ENDBRANCH   1   3
BRANCH   1  15
ATOM     15  C   UNL     1       3.569   5.660  19.358  0.00  0.00    +0.000 C 
BRANCH  15  16
ATOM     16  N   UNL     1       4.404   4.661  18.663  0.00  0.00    +0.000 NA
ATOM     17  C   UNL     1       4.228   4.677  17.197  0.00  0.00    +0.000 C 
ATOM     18  C   UNL     1       4.975   5.815  16.455  0.00  0.00    +0.000 C 
ATOM     19  N   UNL     1       6.430   5.843  16.727  0.00  0.00    +0.000 NA
ATOM     20  C   UNL     1       6.597   5.925  18.195  0.00  0.00    +0.000 C 
ATOM     21  C   UNL     1       5.841   4.838  19.000  0.00  0.00    +0.000 C 
BRANCH  19  22
ATOM     22  C   UNL     1       7.057   4.646  16.129  0.00  0.00    +0.000 C 
BRANCH  22  23
ATOM     23  C   UNL     1       6.950   4.523  14.628  0.00  0.00    +0.000 A 
ATOM     24  C   UNL     1       7.727   5.357  13.807  0.00  0.00    +0.000 A 
ATOM     25  C   UNL     1       7.677   5.235  12.420  0.00  0.00    +0.000 A 
ATOM     26  C   UNL     1       6.854   4.273  11.839  0.00  0.00    +0.000 A 
ATOM     27  C   UNL     1       6.084   3.434  12.645  0.00  0.00    +0.000 A 
ATOM     28  C   UNL     1       6.131   3.557  14.034  0.00  0.00    +0.000 A 
ENDBRANCH  22  23
ENDBRANCH  19  22
ENDBRANCH  15  16
ENDBRANCH   1  15
TORSDOF 6
ENDMDL
