MODEL 1
REMARK VINA RESULT:      -6.2      0.000      0.000
REMARK  Name = 
REMARK  20 active torsions:
REMARK  status: ('A' for Active; 'I' for Inactive)
REMARK    1  A    between atoms: C_1  and  C_2
REMARK    2  A    between atoms: C_2  and  N_3
REMARK    3  A    between atoms: N_6  and  C_7
REMARK    4  A    between atoms: C_7  and  C_8
REMARK    5  A    between atoms: C_8  and  C_9
REMARK    6  A    between atoms: C_9  and  C_10
REMARK    7  A    between atoms: C_10  and  C_11
REMARK    8  A    between atoms: C_11  and  C_12
REMARK    9  A    between atoms: C_12  and  C_13
REMARK   10  A    between atoms: C_13  and  C_14
REMARK   11  A    between atoms: C_14  and  C_15
REMARK   12  A    between atoms: C_15  and  C_16
REMARK   13  A    between atoms: C_16  and  O_17
REMARK   14  A    between atoms: O_17  and  C_18
REMARK   15  A    between atoms: C_21  and  C_22
REMARK   16  A    between atoms: C_22  and  N_23
REMARK   17  A    between atoms: N_23  and  C_24
REMARK   18  A    between atoms: N_23  and  C_26
REMARK   19  A    between atoms: C_24  and  C_25
REMARK   20  A    between atoms: C_26  and  C_27
REMARK                            x       y       z     vdW  Elec       q    Type
REMARK                         _______ _______ _______ _____ _____    ______ ____
ROOT
ATOM      1  C   UNL     1       1.014   4.191  20.083  0.00  0.00    +0.000 C 
ENDROOT
BRANCH   1   2
ATOM      2  C   UNL     1       1.644   5.277  20.949  0.00  0.00    +0.000 C 
BRANCH   2   3
ATOM      3  C   UNL     1       1.868   6.545  20.157  0.00  0.00    +0.000 C 
BRANCH   3   4
ATOM      4  C   UNL     1       1.448   7.733  21.002  0.00  0.00    +0.000 C 
BRANCH   4   5
ATOM      5  C   UNL     1       1.019   8.867  20.097  0.00  0.00    +0.000 C 
BRANCH   5   6
ATOM      6  C   UNL     1       1.758   8.771  18.779  0.00  0.00    +0.000 C 
BRANCH   6   7
ATOM      7  C   UNL     1       1.800  10.138  18.116  0.00  0.00    +0.000 C 
BRANCH   7   8
ATOM      8  C   UNL     1       1.003  11.119  18.964  0.00  0.00    +0.000 C 
BRANCH   8  12
ATOM      9  N   UNL     1       1.717  14.388  20.541  0.00  0.00    +0.000 NA
ATOM     10  C   UNL     1       0.423  13.678  20.575  0.00  0.00    +0.000 C 
ATOM     11  C   UNL     1      -0.058  13.251  19.174  0.00  0.00    +0.000 C 
ATOM     12  N   UNL     1       0.957  12.485  18.431  0.00  0.00    +0.000 NA
ATOM     13  C   UNL     1       2.256  13.176  18.429  0.00  0.00    +0.000 C 
ATOM     14  C   UNL     1       2.720  13.580  19.833  0.00  0.00    +0.000 C 
BRANCH   9  16
ATOM     15  C   UNL     1       2.772  16.595  19.863  0.00  0.00    +0.000 C 
ATOM     16  C   UNL     1       1.520  15.737  19.981  0.00  0.00    +0.000 C 
ENDBRANCH   9  16
ENDBRANCH   8  12
ENDBRANCH   7   8
ENDBRANCH   6   7
ENDBRANCH   5   6
ENDBRANCH   4   5
ENDBRANCH   3   4
ENDBRANCH   2   3
ENDBRANCH   1   2
BRANCH   1  17
ATOM     17  C   UNL     1       1.391   2.793  20.573  0.00  0.00    +0.000 C 
BRANCH  17  18
ATOM     18  C   UNL     1       1.987   1.970  19.437  0.00  0.00    +0.000 C 
BRANCH  18  19
ATOM     19  O   UNL     1       3.407   2.100  19.433  0.00  0.00    +0.000 OA
BRANCH  19  20
ATOM     20  C   UNL     1       3.822   3.227  18.784  0.00  0.00    +0.000 A 
ATOM     21  C   UNL     1       3.422   3.324  17.447  0.00  0.00    +0.000 A 
ATOM     22  C   UNL     1       3.876   4.374  16.648  0.00  0.00    +0.000 A 
ATOM     23  C   UNL     1       4.719   5.356  17.186  0.00  0.00    +0.000 A 
ATOM     24  C   UNL     1       5.034   5.311  18.550  0.00  0.00    +0.000 A 
ATOM     25  C   UNL     1       4.596   4.254  19.342  0.00  0.00    +0.000 A 
BRANCH  23  26
ATOM     26  C   UNL     1       5.388   6.386  16.310  0.00  0.00    +0.000 C 
BRANCH  26  27
ATOM     27  N   UNL     1       6.849   6.272  16.169  0.00  0.00    +0.000 NA
BRANCH  27  28
ATOM     28  C   UNL     1       7.153   4.941  15.612  0.00  0.00    +0.000 C 
ATOM     29  C   UNL     1       6.687   4.728  14.178  0.00  0.00    +0.000 C 
ENDBRANCH  27  28
BRANCH  27  30
ATOM     30  C   UNL     1       7.581   6.581  17.410  0.00  0.00    +0.000 C 
ATOM     31  C   UNL     1       7.848   8.055  17.705  0.00  0.00    +0.000 C 
ENDBRANCH  27  30
ENDBRANCH  26  27
ENDBRANCH  23  26
ENDBRANCH  19  20
ENDBRANCH  18  19
ENDBRANCH  17  18
ENDBRANCH   1  17
TORSDOF 17
ENDMDL
MODEL 2
REMARK VINA RESULT:      -6.1      4.859      7.705
REMARK  Name = 
REMARK  20 active torsions:
REMARK  status: ('A' for Active; 'I' for Inactive)
REMARK    1  A    between atoms: C_1  and  C_2
REMARK    2  A    between atoms: C_2  and  N_3
REMARK    3  A    between atoms: N_6  and  C_7
REMARK    4  A    between atoms: C_7  and  C_8
REMARK    5  A    between atoms: C_8  and  C_9
REMARK    6  A    between atoms: C_9  and  C_10
REMARK    7  A    between atoms: C_10  and  C_11
REMARK    8  A    between atoms: C_11  and  C_12
REMARK    9  A    between atoms: C_12  and  C_13
REMARK   10  A    between atoms: C_13  and  C_14
REMARK   11  A    between atoms: C_14  and  C_15
REMARK   12  A    between atoms: C_15  and  C_16
REMARK   13  A    between atoms: C_16  and  O_17
REMARK   14  A    between atoms: O_17  and  C_18
REMARK   15  A    between atoms: C_21  and  C_22
REMARK   16  A    between atoms: C_22  and  N_23
REMARK   17  A    between atoms: N_23  and  C_24
REMARK   18  A    between atoms: N_23  and  C_26
REMARK   19  A    between atoms: C_24  and  C_25
REMARK   20  A    between atoms: C_26  and  C_27
REMARK                            x       y       z     vdW  Elec       q    Type
REMARK                         _______ _______ _______ _____ _____    ______ ____
ROOT
ATOM      1  C   UNL     1       9.945  10.803  18.024  0.00  0.00    +0.000 C 
ENDROOT
BRANCH   1   2
ATOM      2  C   UNL     1      10.982  11.547  18.859  0.00  0.00    +0.000 C 
BRANCH   2   3
ATOM      3  C   UNL     1      11.198  12.950  18.339  0.00  0.00    +0.000 C 
BRANCH   3   4
ATOM      4  C   UNL     1      10.697  13.941  19.374  0.00  0.00    +0.000 C 
BRANCH   4   5
ATOM      5  C   UNL     1       9.241  14.250  19.110  0.00  0.00    +0.000 C 
BRANCH   5   6
ATOM      6  C   UNL     1       8.489  14.314  20.422  0.00  0.00    +0.000 C 
BRANCH   6   7
ATOM      7  C   UNL     1       9.326  13.684  21.523  0.00  0.00    +0.000 C 
BRANCH   7   8
ATOM      8  C   UNL     1       8.531  12.552  22.156  0.00  0.00    +0.000 C 
BRANCH   8  12
ATOM      9  N   UNL     1       5.672  12.977  24.464  0.00  0.00    +0.000 NA
ATOM     10  C   UNL     1       6.435  14.068  23.828  0.00  0.00    +0.000 C 
ATOM     11  C   UNL     1       7.957  13.924  24.029  0.00  0.00    +0.000 C 
ATOM     12  N   UNL     1       8.464  12.602  23.621  0.00  0.00    +0.000 NA
ATOM     13  C   UNL     1       7.679  11.516  24.226  0.00  0.00    +0.000 C 
ATOM     14  C   UNL     1       6.170  11.673  24.004  0.00  0.00    +0.000 C 
BRANCH   9  16
ATOM     15  C   UNL     1       5.027  12.050  26.737  0.00  0.00    +0.000 C 
ATOM     16  C   UNL     1       5.693  13.153  25.927  0.00  0.00    +0.000 C 
ENDBRANCH   9  16
ENDBRANCH   8  12
ENDBRANCH   7   8
ENDBRANCH   6   7
ENDBRANCH   5   6
ENDBRANCH   4   5
ENDBRANCH   3   4
ENDBRANCH   2   3
ENDBRANCH   1   2
BRANCH   1  17
ATOM     17  C   UNL     1       8.983  10.006  18.905  0.00  0.00    +0.000 C 
BRANCH  17  18
ATOM     18  C   UNL     1       8.240   8.962  18.079  0.00  0.00    +0.000 C 
BRANCH  18  19
ATOM     19  O   UNL     1       8.494   7.659  18.598  0.00  0.00    +0.000 OA
BRANCH  19  20
ATOM     20  C   UNL     1       7.529   6.762  18.238  0.00  0.00    +0.000 A 
ATOM     21  C   UNL     1       6.835   7.075  17.065  0.00  0.00    +0.000 A 
ATOM     22  C   UNL     1       5.751   6.295  16.656  0.00  0.00    +0.000 A 
ATOM     23  C   UNL     1       5.365   5.176  17.406  0.00  0.00    +0.000 A 
ATOM     24  C   UNL     1       6.125   4.808  18.522  0.00  0.00    +0.000 A 
ATOM     25  C   UNL     1       7.194   5.596  18.941  0.00  0.00    +0.000 A 
BRANCH  23  26
ATOM     26  C   UNL     1       4.087   4.433  17.109  0.00  0.00    +0.000 C 
BRANCH  26  27
ATOM     27  N   UNL     1       3.265   4.057  18.272  0.00  0.00    +0.000 NA
BRANCH  27  28
ATOM     28  C   UNL     1       2.688   2.724  18.013  0.00  0.00    +0.000 C 
ATOM     29  C   UNL     1       1.289   2.514  18.576  0.00  0.00    +0.000 C 
ENDBRANCH  27  28
BRANCH  27  30
ATOM     30  C   UNL     1       2.268   5.079  18.635  0.00  0.00    +0.000 C 
ATOM     31  C   UNL     1       2.394   5.703  20.023  0.00  0.00    +0.000 C 
ENDBRANCH  27  30
ENDBRANCH  26  27
ENDBRANCH  23  26
ENDBRANCH  19  20
ENDBRANCH  18  19
ENDBRANCH  17  18
ENDBRANCH   1  17
TORSDOF 17
ENDMDL
MODEL 3
REMARK VINA RESULT:      -6.0      2.263      8.068
REMARK  Name = 
REMARK  20 active torsions:
REMARK  status: ('A' for Active; 'I' for Inactive)
REMARK    1  A    between atoms: C_1  and  C_2
REMARK    2  A    between atoms: C_2  and  N_3
REMARK    3  A    between atoms: N_6  and  C_7
REMARK    4  A    between atoms: C_7  and  C_8
REMARK    5  A    between atoms: C_8  and  C_9
REMARK    6  A    between atoms: C_9  and  C_10
REMARK    7  A    between atoms: C_10  and  C_11
REMARK    8  A    between atoms: C_11  and  C_12
REMARK    9  A    between atoms: C_12  and  C_13
REMARK   10  A    between atoms: C_13  and  C_14
REMARK   11  A    between atoms: C_14  and  C_15
REMARK   12  A    between atoms: C_15  and  C_16
REMARK   13  A    between atoms: C_16  and  O_17
REMARK   14  A    between atoms: O_17  and  C_18
REMARK   15  A    between atoms: C_21  and  C_22
REMARK   16  A    between atoms: C_22  and  N_23
REMARK   17  A    between atoms: N_23  and  C_24
REMARK   18  A    between atoms: N_23  and  C_26
REMARK   19  A    between atoms: C_24  and  C_25
REMARK   20  A    between atoms: C_26  and  C_27
REMARK                            x       y       z     vdW  Elec       q    Type
REMARK                         _______ _______ _______ _____ _____    ______ ____
ROOT
ATOM      1  C   UNL     1       3.301   4.217  20.526  0.00  0.00    +0.000 C 
ENDROOT
BRANCH   1   2
ATOM      2  C   UNL     1       3.300   2.705  20.320  0.00  0.00    +0.000 C 
BRANCH   2   3
ATOM      3  C   UNL     1       1.898   2.186  20.095  0.00  0.00    +0.000 C 
BRANCH   3   4
ATOM      4  C   UNL     1       1.805   1.616  18.691  0.00  0.00    +0.000 C 
BRANCH   4   5
ATOM      5  C   UNL     1       2.919   2.188  17.842  0.00  0.00    +0.000 C 
BRANCH   5   6
ATOM      6  C   UNL     1       2.393   3.357  17.037  0.00  0.00    +0.000 C 
BRANCH   6   7
ATOM      7  C   UNL     1       3.446   4.452  16.976  0.00  0.00    +0.000 C 
BRANCH   7   8
ATOM      8  C   UNL     1       4.824   3.809  17.032  0.00  0.00    +0.000 C 
BRANCH   8  12
ATOM      9  N   UNL     1       6.811   6.729  18.132  0.00  0.00    +0.000 NA
ATOM     10  C   UNL     1       5.483   6.783  17.490  0.00  0.00    +0.000 C 
ATOM     11  C   UNL     1       5.420   5.964  16.185  0.00  0.00    +0.000 C 
ATOM     12  N   UNL     1       5.879   4.575  16.360  0.00  0.00    +0.000 NA
ATOM     13  C   UNL     1       7.186   4.522  17.032  0.00  0.00    +0.000 C 
ATOM     14  C   UNL     1       7.221   5.332  18.334  0.00  0.00    +0.000 C 
BRANCH   9  16
ATOM     15  C   UNL     1       8.131   8.889  17.941  0.00  0.00    +0.000 C 
ATOM     16  C   UNL     1       7.766   7.535  17.350  0.00  0.00    +0.000 C 
ENDBRANCH   9  16
ENDBRANCH   8  12
ENDBRANCH   7   8
ENDBRANCH   6   7
ENDBRANCH   5   6
ENDBRANCH   4   5
ENDBRANCH   3   4
ENDBRANCH   2   3
ENDBRANCH   1   2
BRANCH   1  17
ATOM     17  C   UNL     1       1.927   4.724  20.964  0.00  0.00    +0.000 C 
BRANCH  17  18
ATOM     18  C   UNL     1       1.878   6.247  20.917  0.00  0.00    +0.000 C 
BRANCH  18  19
ATOM     19  O   UNL     1       2.381   6.712  19.666  0.00  0.00    +0.000 OA
BRANCH  19  20
ATOM     20  C   UNL     1       1.972   7.985  19.386  0.00  0.00    +0.000 A 
ATOM     21  C   UNL     1       1.339   8.651  20.440  0.00  0.00    +0.000 A 
ATOM     22  C   UNL     1       0.778   9.914  20.243  0.00  0.00    +0.000 A 
ATOM     23  C   UNL     1       0.867  10.537  18.990  0.00  0.00    +0.000 A 
ATOM     24  C   UNL     1       1.590   9.911  17.968  0.00  0.00    +0.000 A 
ATOM     25  C   UNL     1       2.133   8.643  18.159  0.00  0.00    +0.000 A 
BRANCH  23  26
ATOM     26  C   UNL     1       0.105  11.802  18.684  0.00  0.00    +0.000 C 
BRANCH  26  27
ATOM     27  N   UNL     1      -1.344  11.771  18.946  0.00  0.00    +0.000 NA
BRANCH  27  28
ATOM     28  C   UNL     1      -2.033  11.494  17.671  0.00  0.00    +0.000 C 
ATOM     29  C   UNL     1      -3.296  10.652  17.799  0.00  0.00    +0.000 C 
ENDBRANCH  27  28
BRANCH  27  30
ATOM     30  C   UNL     1      -1.836  12.973  19.641  0.00  0.00    +0.000 C 
ATOM     31  C   UNL     1      -2.408  12.773  21.043  0.00  0.00    +0.000 C 
ENDBRANCH  27  30
ENDBRANCH  26  27
ENDBRANCH  23  26
ENDBRANCH  19  20
ENDBRANCH  18  19
ENDBRANCH  17  18
ENDBRANCH   1  17
TORSDOF 17
ENDMDL
MODEL 4
REMARK VINA RESULT:      -6.0      2.972      9.619
REMARK  Name = 
REMARK  20 active torsions:
REMARK  status: ('A' for Active; 'I' for Inactive)
REMARK    1  A    between atoms: C_1  and  C_2
REMARK    2  A    between atoms: C_2  and  N_3
REMARK    3  A    between atoms: N_6  and  C_7
REMARK    4  A    between atoms: C_7  and  C_8
REMARK    5  A    between atoms: C_8  and  C_9
REMARK    6  A    between atoms: C_9  and  C_10
REMARK    7  A    between atoms: C_10  and  C_11
REMARK    8  A    between atoms: C_11  and  C_12
REMARK    9  A    between atoms: C_12  and  C_13
REMARK   10  A    between atoms: C_13  and  C_14
REMARK   11  A    between atoms: C_14  and  C_15
REMARK   12  A    between atoms: C_15  and  C_16
REMARK   13  A    between atoms: C_16  and  O_17
REMARK   14  A    between atoms: O_17  and  C_18
REMARK   15  A    between atoms: C_21  and  C_22
REMARK   16  A    between atoms: C_22  and  N_23
REMARK   17  A    between atoms: N_23  and  C_24
REMARK   18  A    between atoms: N_23  and  C_26
REMARK   19  A    between atoms: C_24  and  C_25
REMARK   20  A    between atoms: C_26  and  C_27
REMARK                            x       y       z     vdW  Elec       q    Type
REMARK                         _______ _______ _______ _____ _____    ______ ____
ROOT
ATOM      1  C   UNL     1       2.195   5.833  19.386  0.00  0.00    +0.000 C 
ENDROOT
BRANCH   1   2
ATOM      2  C   UNL     1       2.079   4.816  20.517  0.00  0.00    +0.000 C 
BRANCH   2   3
ATOM      3  C   UNL     1       0.882   3.913  20.318  0.00  0.00    +0.000 C 
BRANCH   3   4
ATOM      4  C   UNL     1       1.367   2.545  19.874  0.00  0.00    +0.000 C 
BRANCH   4   5
ATOM      5  C   UNL     1       1.561   2.544  18.374  0.00  0.00    +0.000 C 
BRANCH   5   6
ATOM      6  C   UNL     1       2.858   1.842  18.031  0.00  0.00    +0.000 C 
BRANCH   6   7
ATOM      7  C   UNL     1       4.020   2.809  18.188  0.00  0.00    +0.000 C 
BRANCH   7   8
ATOM      8  C   UNL     1       4.146   3.635  16.916  0.00  0.00    +0.000 C 
BRANCH   8  12
ATOM      9  N   UNL     1       5.753   6.867  17.724  0.00  0.00    +0.000 NA
ATOM     10  C   UNL     1       4.937   6.585  16.526  0.00  0.00    +0.000 C 
ATOM     11  C   UNL     1       5.400   5.321  15.775  0.00  0.00    +0.000 C 
ATOM     12  N   UNL     1       5.497   4.140  16.651  0.00  0.00    +0.000 NA
ATOM     13  C   UNL     1       6.280   4.433  17.862  0.00  0.00    +0.000 C 
ATOM     14  C   UNL     1       5.794   5.686  18.599  0.00  0.00    +0.000 C 
BRANCH   9  16
ATOM     15  C   UNL     1       8.151   7.369  18.387  0.00  0.00    +0.000 C 
ATOM     16  C   UNL     1       7.078   7.361  17.308  0.00  0.00    +0.000 C 
ENDBRANCH   9  16
ENDBRANCH   8  12
ENDBRANCH   7   8
ENDBRANCH   6   7
ENDBRANCH   5   6
ENDBRANCH   4   5
ENDBRANCH   3   4
ENDBRANCH   2   3
ENDBRANCH   1   2
BRANCH   1  17
ATOM     17  C   UNL     1       2.633   7.202  19.907  0.00  0.00    +0.000 C 
BRANCH  17  18
ATOM     18  C   UNL     1       1.426   8.116  20.090  0.00  0.00    +0.000 C 
BRANCH  18  19
ATOM     19  O   UNL     1       1.328   8.526  21.452  0.00  0.00    +0.000 OA
BRANCH  19  20
ATOM     20  C   UNL     1       0.389   9.501  21.632  0.00  0.00    +0.000 A 
ATOM     21  C   UNL     1      -0.047  10.129  20.462  0.00  0.00    +0.000 A 
ATOM     22  C   UNL     1      -0.920  11.217  20.526  0.00  0.00    +0.000 A 
ATOM     23  C   UNL     1      -1.388  11.673  21.766  0.00  0.00    +0.000 A 
ATOM     24  C   UNL     1      -1.030  10.977  22.927  0.00  0.00    +0.000 A 
ATOM     25  C   UNL     1      -0.144   9.905  22.865  0.00  0.00    +0.000 A 
BRANCH  23  26
ATOM     26  C   UNL     1      -2.165  12.959  21.890  0.00  0.00    +0.000 C 
BRANCH  26  27
ATOM     27  N   UNL     1      -2.940  13.138  23.129  0.00  0.00    +0.000 NA
BRANCH  27  28
ATOM     28  C   UNL     1      -4.343  12.779  22.848  0.00  0.00    +0.000 C 
ATOM     29  C   UNL     1      -5.287  12.915  24.035  0.00  0.00    +0.000 C 
ENDBRANCH  27  28
BRANCH  27  30
ATOM     30  C   UNL     1      -2.774  14.472  23.732  0.00  0.00    +0.000 C 
ATOM     31  C   UNL     1      -2.450  15.623  22.783  0.00  0.00    +0.000 C 
ENDBRANCH  27  30
ENDBRANCH  26  27
ENDBRANCH  23  26
ENDBRANCH  19  20
ENDBRANCH  18  19
ENDBRANCH  17  18
ENDBRANCH   1  17
TORSDOF 17
ENDMDL
MODEL 5
REMARK VINA RESULT:      -5.9      4.738      7.805
REMARK  Name = 
REMARK  20 active torsions:
REMARK  status: ('A' for Active; 'I' for Inactive)
REMARK    1  A    between atoms: C_1  and  C_2
REMARK    2  A    between atoms: C_2  and  N_3
REMARK    3  A    between atoms: N_6  and  C_7
REMARK    4  A    between atoms: C_7  and  C_8
REMARK    5  A    between atoms: C_8  and  C_9
REMARK    6  A    between atoms: C_9  and  C_10
REMARK    7  A    between atoms: C_10  and  C_11
REMARK    8  A    between atoms: C_11  and  C_12
REMARK    9  A    between atoms: C_12  and  C_13
REMARK   10  A    between atoms: C_13  and  C_14
REMARK   11  A    between atoms: C_14  and  C_15
REMARK   12  A    between atoms: C_15  and  C_16
REMARK   13  A    between atoms: C_16  and  O_17
REMARK   14  A    between atoms: O_17  and  C_18
REMARK   15  A    between atoms: C_21  and  C_22
REMARK   16  A    between atoms: C_22  and  N_23
REMARK   17  A    between atoms: N_23  and  C_24
REMARK   18  A    between atoms: N_23  and  C_26
REMARK   19  A    between atoms: C_24  and  C_25
REMARK   20  A    between atoms: C_26  and  C_27
REMARK                            x       y       z     vdW  Elec       q    Type
REMARK                         _______ _______ _______ _____ _____    ______ ____
ROOT
ATOM      1  C   UNL     1       9.389   9.744  18.904  0.00  0.00    +0.000 C 
ENDROOT
BRANCH   1   2
ATOM      2  C   UNL     1       9.382  10.779  20.024  0.00  0.00    +0.000 C 
BRANCH   2   3
ATOM      3  C   UNL     1      10.177  12.006  19.638  0.00  0.00    +0.000 C 
BRANCH   3   4
ATOM      4  C   UNL     1      11.465  11.566  18.967  0.00  0.00    +0.000 C 
BRANCH   4   5
ATOM      5  C   UNL     1      11.464  12.028  17.527  0.00  0.00    +0.000 C 
BRANCH   5   6
ATOM      6  C   UNL     1      10.576  13.246  17.385  0.00  0.00    +0.000 C 
BRANCH   6   7
ATOM      7  C   UNL     1      11.433  14.481  17.162  0.00  0.00    +0.000 C 
BRANCH   7   8
ATOM      8  C   UNL     1      10.789  15.661  17.875  0.00  0.00    +0.000 C 
BRANCH   8  12
ATOM      9  N   UNL     1       8.419  17.788  19.757  0.00  0.00    +0.000 NA
ATOM     10  C   UNL     1       9.630  17.149  20.309  0.00  0.00    +0.000 C 
ATOM     11  C   UNL     1       9.697  15.639  20.003  0.00  0.00    +0.000 C 
ATOM     12  N   UNL     1       9.536  15.341  18.568  0.00  0.00    +0.000 NA
ATOM     13  C   UNL     1       8.350  16.008  18.011  0.00  0.00    +0.000 C 
ATOM     14  C   UNL     1       8.310  17.510  18.317  0.00  0.00    +0.000 C 
BRANCH   9  16
ATOM     15  C   UNL     1       7.371  17.529  22.054  0.00  0.00    +0.000 C 
ATOM     16  C   UNL     1       7.244  17.375  20.545  0.00  0.00    +0.000 C 
ENDBRANCH   9  16
ENDBRANCH   8  12
ENDBRANCH   7   8
ENDBRANCH   6   7
ENDBRANCH   5   6
ENDBRANCH   4   5
ENDBRANCH   3   4
ENDBRANCH   2   3
ENDBRANCH   1   2
BRANCH   1  17
ATOM     17  C   UNL     1       8.064   9.736  18.140  0.00  0.00    +0.000 C 
BRANCH  17  18
ATOM     18  C   UNL     1       7.880   8.416  17.401  0.00  0.00    +0.000 C 
BRANCH  18  19
ATOM     19  O   UNL     1       8.049   7.324  18.302  0.00  0.00    +0.000 OA
BRANCH  19  20
ATOM     20  C   UNL     1       6.960   6.502  18.328  0.00  0.00    +0.000 A 
ATOM     21  C   UNL     1       5.986   6.775  17.362  0.00  0.00    +0.000 A 
ATOM     22  C   UNL     1       4.778   6.075  17.359  0.00  0.00    +0.000 A 
ATOM     23  C   UNL     1       4.540   5.074  18.311  0.00  0.00    +0.000 A 
ATOM     24  C   UNL     1       5.557   4.735  19.212  0.00  0.00    +0.000 A 
ATOM     25  C   UNL     1       6.755   5.445  19.227  0.00  0.00    +0.000 A 
BRANCH  23  26
ATOM     26  C   UNL     1       3.180   4.442  18.465  0.00  0.00    +0.000 C 
BRANCH  26  27
ATOM     27  N   UNL     1       3.019   3.506  19.591  0.00  0.00    +0.000 NA
BRANCH  27  28
ATOM     28  C   UNL     1       2.452   2.250  19.064  0.00  0.00    +0.000 C 
ATOM     29  C   UNL     1       0.956   2.293  18.783  0.00  0.00    +0.000 C 
ENDBRANCH  27  28
BRANCH  27  30
ATOM     30  C   UNL     1       2.261   4.076  20.718  0.00  0.00    +0.000 C 
ATOM     31  C   UNL     1       1.764   5.511  20.560  0.00  0.00    +0.000 C 
ENDBRANCH  27  30
ENDBRANCH  26  27
ENDBRANCH  23  26
ENDBRANCH  19  20
ENDBRANCH  18  19
ENDBRANCH  17  18
ENDBRANCH   1  17
TORSDOF 17
ENDMDL
MODEL 6
REMARK VINA RESULT:      -5.9      4.787      7.928
REMARK  Name = 
REMARK  20 active torsions:
REMARK  status: ('A' for Active; 'I' for Inactive)
REMARK    1  A    between atoms: C_1  and  C_2
REMARK    2  A    between atoms: C_2  and  N_3
REMARK    3  A    between atoms: N_6  and  C_7
REMARK    4  A    between atoms: C_7  and  C_8
REMARK    5  A    between atoms: C_8  and  C_9
REMARK    6  A    between atoms: C_9  and  C_10
REMARK    7  A    between atoms: C_10  and  C_11
REMARK    8  A    between atoms: C_11  and  C_12
REMARK    9  A    between atoms: C_12  and  C_13
REMARK   10  A    between atoms: C_13  and  C_14
REMARK   11  A    between atoms: C_14  and  C_15
REMARK   12  A    between atoms: C_15  and  C_16
REMARK   13  A    between atoms: C_16  and  O_17
REMARK   14  A    between atoms: O_17  and  C_18
REMARK   15  A    between atoms: C_21  and  C_22
REMARK   16  A    between atoms: C_22  and  N_23
REMARK   17  A    between atoms: N_23  and  C_24
REMARK   18  A    between atoms: N_23  and  C_26
REMARK   19  A    between atoms: C_24  and  C_25
REMARK   20  A    between atoms: C_26  and  C_27
REMARK                            x       y       z     vdW  Elec       q    Type
REMARK                         _______ _______ _______ _____ _____    ______ ____
ROOT
ATOM      1  C   UNL     1       8.915   9.837  18.732  0.00  0.00    +0.000 C 
ENDROOT
BRANCH   1   2
ATOM      2  C   UNL     1       9.185  11.254  18.235  0.00  0.00    +0.000 C 
BRANCH   2   3
ATOM      3  C   UNL     1      10.368  11.867  18.950  0.00  0.00    +0.000 C 
BRANCH   3   4
ATOM      4  C   UNL     1      11.486  12.092  17.948  0.00  0.00    +0.000 C 
BRANCH   4   5
ATOM      5  C   UNL     1      11.097  13.209  17.005  0.00  0.00    +0.000 C 
BRANCH   5   6
ATOM      6  C   UNL     1      11.443  14.544  17.630  0.00  0.00    +0.000 C 
BRANCH   6   7
ATOM      7  C   UNL     1      11.184  15.659  16.631  0.00  0.00    +0.000 C 
BRANCH   7   8
ATOM      8  C   UNL     1      10.271  16.691  17.275  0.00  0.00    +0.000 C 
BRANCH   8  12
ATOM      9  N   UNL     1       7.709  18.243  19.446  0.00  0.00    +0.000 NA
ATOM     10  C   UNL     1       9.142  18.598  19.414  0.00  0.00    +0.000 C 
ATOM     11  C   UNL     1      10.062  17.370  19.559  0.00  0.00    +0.000 C 
ATOM     12  N   UNL     1       9.749  16.304  18.590  0.00  0.00    +0.000 NA
ATOM     13  C   UNL     1       8.315  15.977  18.597  0.00  0.00    +0.000 C 
ATOM     14  C   UNL     1       7.419  17.212  18.440  0.00  0.00    +0.000 C 
BRANCH   9  16
ATOM     15  C   UNL     1       6.253  16.804  20.946  0.00  0.00    +0.000 C 
ATOM     16  C   UNL     1       7.328  17.873  20.821  0.00  0.00    +0.000 C 
ENDBRANCH   9  16
ENDBRANCH   8  12
ENDBRANCH   7   8
ENDBRANCH   6   7
ENDBRANCH   5   6
ENDBRANCH   4   5
ENDBRANCH   3   4
ENDBRANCH   2   3
ENDBRANCH   1   2
BRANCH   1  17
ATOM     17  C   UNL     1       7.895   9.118  17.849  0.00  0.00    +0.000 C 
BRANCH  17  18
ATOM     18  C   UNL     1       8.089   7.608  17.928  0.00  0.00    +0.000 C 
BRANCH  18  19
ATOM     19  O   UNL     1       7.274   6.960  16.954  0.00  0.00    +0.000 OA
BRANCH  19  20
ATOM     20  C   UNL     1       6.104   6.496  17.484  0.00  0.00    +0.000 A 
ATOM     21  C   UNL     1       6.239   5.747  18.657  0.00  0.00    +0.000 A 
ATOM     22  C   UNL     1       5.128   5.126  19.231  0.00  0.00    +0.000 A 
ATOM     23  C   UNL     1       3.861   5.269  18.649  0.00  0.00    +0.000 A 
ATOM     24  C   UNL     1       3.714   6.103  17.533  0.00  0.00    +0.000 A 
ATOM     25  C   UNL     1       4.825   6.707  16.950  0.00  0.00    +0.000 A 
BRANCH  23  26
ATOM     26  C   UNL     1       2.682   4.456  19.119  0.00  0.00    +0.000 C 
BRANCH  26  27
ATOM     27  N   UNL     1       2.981   3.111  19.639  0.00  0.00    +0.000 NA
BRANCH  27  28
ATOM     28  C   UNL     1       3.496   2.294  18.524  0.00  0.00    +0.000 C 
ATOM     29  C   UNL     1       2.590   2.238  17.302  0.00  0.00    +0.000 C 
ENDBRANCH  27  28
BRANCH  27  30
ATOM     30  C   UNL     1       1.849   2.499  20.356  0.00  0.00    +0.000 C 
ATOM     31  C   UNL     1       1.724   2.812  21.845  0.00  0.00    +0.000 C 
ENDBRANCH  27  30
ENDBRANCH  26  27
ENDBRANCH  23  26
ENDBRANCH  19  20
ENDBRANCH  18  19
ENDBRANCH  17  18
ENDBRANCH   1  17
TORSDOF 17
ENDMDL
MODEL 7
REMARK VINA RESULT:      -5.9      4.278      7.745
REMARK  Name = 
REMARK  20 active torsions:
REMARK  status: ('A' for Active; 'I' for Inactive)
REMARK    1  A    between atoms: C_1  and  C_2
REMARK    2  A    between atoms: C_2  and  N_3
REMARK    3  A    between atoms: N_6  and  C_7
REMARK    4  A    between atoms: C_7  and  C_8
REMARK    5  A    between atoms: C_8  and  C_9
REMARK    6  A    between atoms: C_9  and  C_10
REMARK    7  A    between atoms: C_10  and  C_11
REMARK    8  A    between atoms: C_11  and  C_12
REMARK    9  A    between atoms: C_12  and  C_13
REMARK   10  A    between atoms: C_13  and  C_14
REMARK   11  A    between atoms: C_14  and  C_15
REMARK   12  A    between atoms: C_15  and  C_16
REMARK   13  A    between atoms: C_16  and  O_17
REMARK   14  A    between atoms: O_17  and  C_18
REMARK   15  A    between atoms: C_21  and  C_22
REMARK   16  A    between atoms: C_22  and  N_23
REMARK   17  A    between atoms: N_23  and  C_24
REMARK   18  A    between atoms: N_23  and  C_26
REMARK   19  A    between atoms: C_24  and  C_25
REMARK   20  A    between atoms: C_26  and  C_27
REMARK                            x       y       z     vdW  Elec       q    Type
REMARK                         _______ _______ _______ _____ _____    ______ ____
ROOT
ATOM      1  C   UNL     1       5.660   5.013  18.395  0.00  0.00    +0.000 C 
ENDROOT
BRANCH   1   2
ATOM      2  C   UNL     1       6.917   4.847  17.547  0.00  0.00    +0.000 C 
BRANCH   2   3
ATOM      3  C   UNL     1       7.400   6.179  17.020  0.00  0.00    +0.000 C 
BRANCH   3   4
ATOM      4  C   UNL     1       7.839   7.040  18.191  0.00  0.00    +0.000 C 
BRANCH   4   5
ATOM      5  C   UNL     1       7.927   8.484  17.746  0.00  0.00    +0.000 C 
BRANCH   5   6
ATOM      6  C   UNL     1       8.740   9.275  18.749  0.00  0.00    +0.000 C 
BRANCH   6   7
ATOM      7  C   UNL     1       9.148  10.606  18.140  0.00  0.00    +0.000 C 
BRANCH   7   8
ATOM      8  C   UNL     1       9.947  11.391  19.170  0.00  0.00    +0.000 C 
BRANCH   8  12
ATOM      9  N   UNL     1      10.933  14.943  18.866  0.00  0.00    +0.000 NA
ATOM     10  C   UNL     1      10.139  14.182  17.882  0.00  0.00    +0.000 C 
ATOM     11  C   UNL     1      10.806  12.851  17.482  0.00  0.00    +0.000 C 
ATOM     12  N   UNL     1      11.164  12.020  18.645  0.00  0.00    +0.000 NA
ATOM     13  C   UNL     1      11.923  12.790  19.642  0.00  0.00    +0.000 C 
ATOM     14  C   UNL     1      11.236  14.103  20.034  0.00  0.00    +0.000 C 
BRANCH   9  16
ATOM     15  C   UNL     1      11.856  16.662  17.243  0.00  0.00    +0.000 C 
ATOM     16  C   UNL     1      12.120  15.511  18.203  0.00  0.00    +0.000 C 
ENDBRANCH   9  16
ENDBRANCH   8  12
ENDBRANCH   7   8
ENDBRANCH   6   7
ENDBRANCH   5   6
ENDBRANCH   4   5
ENDBRANCH   3   4
ENDBRANCH   2   3
ENDBRANCH   1   2
BRANCH   1  17
ATOM     17  C   UNL     1       4.768   3.773  18.324  0.00  0.00    +0.000 C 
BRANCH  17  18
ATOM     18  C   UNL     1       3.784   3.754  19.489  0.00  0.00    +0.000 C 
BRANCH  18  19
ATOM     19  O   UNL     1       2.484   4.121  19.035  0.00  0.00    +0.000 OA
BRANCH  19  20
ATOM     20  C   UNL     1       2.273   5.468  19.104  0.00  0.00    +0.000 A 
ATOM     21  C   UNL     1       2.001   5.962  20.383  0.00  0.00    +0.000 A 
ATOM     22  C   UNL     1       1.659   7.304  20.565  0.00  0.00    +0.000 A 
ATOM     23  C   UNL     1       1.609   8.174  19.467  0.00  0.00    +0.000 A 
ATOM     24  C   UNL     1       1.981   7.698  18.204  0.00  0.00    +0.000 A 
ATOM     25  C   UNL     1       2.304   6.356  18.019  0.00  0.00    +0.000 A 
BRANCH  23  26
ATOM     26  C   UNL     1       1.052   9.569  19.593  0.00  0.00    +0.000 C 
BRANCH  26  27
ATOM     27  N   UNL     1       0.977  10.122  20.955  0.00  0.00    +0.000 NA
BRANCH  27  28
ATOM     28  C   UNL     1      -0.199   9.534  21.624  0.00  0.00    +0.000 C 
ATOM     29  C   UNL     1      -0.213   9.683  23.139  0.00  0.00    +0.000 C 
ENDBRANCH  27  28
BRANCH  27  30
ATOM     30  C   UNL     1       1.008  11.595  20.989  0.00  0.00    +0.000 C 
ATOM     31  C   UNL     1      -0.230  12.323  20.471  0.00  0.00    +0.000 C 
ENDBRANCH  27  30
ENDBRANCH  26  27
ENDBRANCH  23  26
ENDBRANCH  19  20
ENDBRANCH  18  19
ENDBRANCH  17  18
ENDBRANCH   1  17
TORSDOF 17
ENDMDL
MODEL 8
REMARK VINA RESULT:      -5.8      2.125      8.158
REMARK  Name = 
REMARK  20 active torsions:
REMARK  status: ('A' for Active; 'I' for Inactive)
REMARK    1  A    between atoms: C_1  and  C_2
REMARK    2  A    between atoms: C_2  and  N_3
REMARK    3  A    between atoms: N_6  and  C_7
REMARK    4  A    between atoms: C_7  and  C_8
REMARK    5  A    between atoms: C_8  and  C_9
REMARK    6  A    between atoms: C_9  and  C_10
REMARK    7  A    between atoms: C_10  and  C_11
REMARK    8  A    between atoms: C_11  and  C_12
REMARK    9  A    between atoms: C_12  and  C_13
REMARK   10  A    between atoms: C_13  and  C_14
REMARK   11  A    between atoms: C_14  and  C_15
REMARK   12  A    between atoms: C_15  and  C_16
REMARK   13  A    between atoms: C_16  and  O_17
REMARK   14  A    between atoms: O_17  and  C_18
REMARK   15  A    between atoms: C_21  and  C_22
REMARK   16  A    between atoms: C_22  and  N_23
REMARK   17  A    between atoms: N_23  and  C_24
REMARK   18  A    between atoms: N_23  and  C_26
REMARK   19  A    between atoms: C_24  and  C_25
REMARK   20  A    between atoms: C_26  and  C_27
REMARK                            x       y       z     vdW  Elec       q    Type
REMARK                         _______ _______ _______ _____ _____    ______ ____
ROOT
ATOM      1  C   UNL     1       1.072   3.383  20.413  0.00  0.00    +0.000 C 
ENDROOT
BRANCH   1   2
ATOM      2  C   UNL     1       1.697   3.012  21.754  0.00  0.00    +0.000 C 
BRANCH   2   3
ATOM      3  C   UNL     1       3.036   2.335  21.564  0.00  0.00    +0.000 C 
BRANCH   3   4
ATOM      4  C   UNL     1       3.535   2.619  20.159  0.00  0.00    +0.000 C 
BRANCH   4   5
ATOM      5  C   UNL     1       3.403   1.369  19.317  0.00  0.00    +0.000 C 
BRANCH   5   6
ATOM      6  C   UNL     1       3.566   1.723  17.854  0.00  0.00    +0.000 C 
BRANCH   6   7
ATOM      7  C   UNL     1       2.881   3.050  17.569  0.00  0.00    +0.000 C 
BRANCH   7   8
ATOM      8  C   UNL     1       3.750   3.854  16.613  0.00  0.00    +0.000 C 
BRANCH   8  12
ATOM      9  N   UNL     1       6.048   6.745  16.400  0.00  0.00    +0.000 NA
ATOM     10  C   UNL     1       5.836   5.733  15.346  0.00  0.00    +0.000 C 
ATOM     11  C   UNL     1       5.981   4.290  15.870  0.00  0.00    +0.000 C 
ATOM     12  N   UNL     1       5.139   4.024  17.050  0.00  0.00    +0.000 NA
ATOM     13  C   UNL     1       5.325   5.053  18.085  0.00  0.00    +0.000 C 
ATOM     14  C   UNL     1       5.164   6.479  17.544  0.00  0.00    +0.000 C 
BRANCH   9  16
ATOM     15  C   UNL     1       7.804   7.141  18.189  0.00  0.00    +0.000 C 
ATOM     16  C   UNL     1       7.481   6.803  16.741  0.00  0.00    +0.000 C 
ENDBRANCH   9  16
ENDBRANCH   8  12
ENDBRANCH   7   8
ENDBRANCH   6   7
ENDBRANCH   5   6
ENDBRANCH   4   5
ENDBRANCH   3   4
ENDBRANCH   2   3
ENDBRANCH   1   2
BRANCH   1  17
ATOM     17  C   UNL     1       0.680   4.860  20.368  0.00  0.00    +0.000 C 
BRANCH  17  18
ATOM     18  C   UNL     1       1.874   5.742  20.715  0.00  0.00    +0.000 C 
BRANCH  18  19
ATOM     19  O   UNL     1       2.394   6.347  19.533  0.00  0.00    +0.000 OA
BRANCH  19  20
ATOM     20  C   UNL     1       2.011   7.651  19.407  0.00  0.00    +0.000 A 
ATOM     21  C   UNL     1       1.523   8.242  20.577  0.00  0.00    +0.000 A 
ATOM     22  C   UNL     1       0.997   9.535  20.549  0.00  0.00    +0.000 A 
ATOM     23  C   UNL     1       0.976  10.262  19.351  0.00  0.00    +0.000 A 
ATOM     24  C   UNL     1       1.558   9.705  18.205  0.00  0.00    +0.000 A 
ATOM     25  C   UNL     1       2.066   8.409  18.229  0.00  0.00    +0.000 A 
BRANCH  23  26
ATOM     26  C   UNL     1       0.239  11.573  19.238  0.00  0.00    +0.000 C 
BRANCH  26  27
ATOM     27  N   UNL     1      -1.232  11.497  19.242  0.00  0.00    +0.000 NA
BRANCH  27  28
ATOM     28  C   UNL     1      -1.720  12.014  17.949  0.00  0.00    +0.000 C 
ATOM     29  C   UNL     1      -2.974  11.331  17.422  0.00  0.00    +0.000 C 
ENDBRANCH  27  28
BRANCH  27  30
ATOM     30  C   UNL     1      -1.845  12.146  20.414  0.00  0.00    +0.000 C 
ATOM     31  C   UNL     1      -1.843  13.672  20.438  0.00  0.00    +0.000 C 
ENDBRANCH  27  30
ENDBRANCH  26  27
ENDBRANCH  23  26
ENDBRANCH  19  20
ENDBRANCH  18  19
ENDBRANCH  17  18
ENDBRANCH   1  17
TORSDOF 17
ENDMDL
MODEL 9
REMARK VINA RESULT:      -5.8      2.431      9.112
REMARK  Name = 
REMARK  20 active torsions:
REMARK  status: ('A' for Active; 'I' for Inactive)
REMARK    1  A    between atoms: C_1  and  C_2
REMARK    2  A    between atoms: C_2  and  N_3
REMARK    3  A    between atoms: N_6  and  C_7
REMARK    4  A    between atoms: C_7  and  C_8
REMARK    5  A    between atoms: C_8  and  C_9
REMARK    6  A    between atoms: C_9  and  C_10
REMARK    7  A    between atoms: C_10  and  C_11
REMARK    8  A    between atoms: C_11  and  C_12
REMARK    9  A    between atoms: C_12  and  C_13
REMARK   10  A    between atoms: C_13  and  C_14
REMARK   11  A    between atoms: C_14  and  C_15
REMARK   12  A    between atoms: C_15  and  C_16
REMARK   13  A    between atoms: C_16  and  O_17
REMARK   14  A    between atoms: O_17  and  C_18
REMARK   15  A    between atoms: C_21  and  C_22
REMARK   16  A    between atoms: C_22  and  N_23
REMARK   17  A    between atoms: N_23  and  C_24
REMARK   18  A    between atoms: N_23  and  C_26
REMARK   19  A    between atoms: C_24  and  C_25
REMARK   20  A    between atoms: C_26  and  C_27
REMARK                            x       y       z     vdW  Elec       q    Type
REMARK                         _______ _______ _______ _____ _____    ______ ____
ROOT
ATOM      1  C   UNL     1       2.570   5.054  20.890  0.00  0.00    +0.000 C 
ENDROOT
BRANCH   1   2
ATOM      2  C   UNL     1       2.090   3.737  21.492  0.00  0.00    +0.000 C 
BRANCH   2   3
ATOM      3  C   UNL     1       2.896   2.571  20.966  0.00  0.00    +0.000 C 
BRANCH   3   4
ATOM      4  C   UNL     1       2.155   1.948  19.797  0.00  0.00    +0.000 C 
BRANCH   4   5
ATOM      5  C   UNL     1       3.074   1.883  18.598  0.00  0.00    +0.000 C 
BRANCH   5   6
ATOM      6  C   UNL     1       2.395   2.516  17.402  0.00  0.00    +0.000 C 
BRANCH   6   7
ATOM      7  C   UNL     1       2.686   4.008  17.379  0.00  0.00    +0.000 C 
BRANCH   7   8
ATOM      8  C   UNL     1       4.193   4.211  17.312  0.00  0.00    +0.000 C 
BRANCH   8  12
ATOM      9  N   UNL     1       7.404   6.047  17.255  0.00  0.00    +0.000 NA
ATOM     10  C   UNL     1       7.144   4.787  17.979  0.00  0.00    +0.000 C 
ATOM     11  C   UNL     1       5.887   4.861  18.869  0.00  0.00    +0.000 C 
ATOM     12  N   UNL     1       4.694   5.317  18.135  0.00  0.00    +0.000 NA
ATOM     13  C   UNL     1       4.965   6.553  17.385  0.00  0.00    +0.000 C 
ATOM     14  C   UNL     1       6.211   6.452  16.497  0.00  0.00    +0.000 C 
BRANCH   9  16
ATOM     15  C   UNL     1       7.921   8.494  17.685  0.00  0.00    +0.000 C 
ATOM     16  C   UNL     1       7.895   7.063  18.203  0.00  0.00    +0.000 C 
ENDBRANCH   9  16
ENDBRANCH   8  12
ENDBRANCH   7   8
ENDBRANCH   6   7
ENDBRANCH   5   6
ENDBRANCH   4   5
ENDBRANCH   3   4
ENDBRANCH   2   3
ENDBRANCH   1   2
BRANCH   1  17
ATOM     17  C   UNL     1       1.397   5.919  20.426  0.00  0.00    +0.000 C 
BRANCH  17  18
ATOM     18  C   UNL     1       1.525   7.334  20.978  0.00  0.00    +0.000 C 
BRANCH  18  19
ATOM     19  O   UNL     1       1.674   8.263  19.907  0.00  0.00    +0.000 OA
BRANCH  19  20
ATOM     20  C   UNL     1       0.951   9.404  20.107  0.00  0.00    +0.000 A 
ATOM     21  C   UNL     1       0.184   9.423  21.277  0.00  0.00    +0.000 A 
ATOM     22  C   UNL     1      -0.682  10.487  21.536  0.00  0.00    +0.000 A 
ATOM     23  C   UNL     1      -0.773  11.558  20.637  0.00  0.00    +0.000 A 
ATOM     24  C   UNL     1       0.071  11.583  19.520  0.00  0.00    +0.000 A 
ATOM     25  C   UNL     1       0.922  10.514  19.251  0.00  0.00    +0.000 A 
BRANCH  23  26
ATOM     26  C   UNL     1      -1.836  12.618  20.779  0.00  0.00    +0.000 C 
BRANCH  26  27
ATOM     27  N   UNL     1      -1.413  13.891  21.387  0.00  0.00    +0.000 NA
BRANCH  27  28
ATOM     28  C   UNL     1      -0.984  13.616  22.771  0.00  0.00    +0.000 C 
ATOM     29  C   UNL     1      -1.240  14.750  23.755  0.00  0.00    +0.000 C 
ENDBRANCH  27  28
BRANCH  27  30
ATOM     30  C   UNL     1      -2.425  14.955  21.275  0.00  0.00    +0.000 C 
ATOM     31  C   UNL     1      -3.872  14.512  21.073  0.00  0.00    +0.000 C 
ENDBRANCH  27  30
ENDBRANCH  26  27
ENDBRANCH  23  26
ENDBRANCH  19  20
ENDBRANCH  18  19
ENDBRANCH  17  18
ENDBRANCH   1  17
TORSDOF 17
ENDMDL
