MODEL 1
REMARK VINA RESULT:      -8.1      0.000      0.000
REMARK  Name = 
REMARK  5 active torsions:
REMARK  status: ('A' for Active; 'I' for Inactive)
REMARK    1  A    between atoms: C_1  and  C_2
REMARK    2  A    between atoms: C_6  and  N_7
REMARK    3  A    between atoms: C_11  and  C_13
REMARK    4  A    between atoms: C_14  and  C_15
REMARK    5  A    between atoms: C_31  and  C_32
REMARK                            x       y       z     vdW  Elec       q    Type
REMARK                         _______ _______ _______ _____ _____    ______ ____
ROOT
ATOM      1  N   UNL     1       1.132   9.902  19.897  0.00  0.00    +0.000 N 
ATOM      2  C   UNL     1      -0.301   9.675  20.045  0.00  0.00    +0.000 C 
ATOM      3  C   UNL     1      -0.922  10.773  20.841  0.00  0.00    +0.000 C 
ATOM      4  N   UNL     1      -0.740  12.091  20.247  0.00  0.00    +0.000 N 
ATOM      5  C   UNL     1      -1.733  13.050  20.090  0.00  0.00    +0.000 C 
ATOM      6  O   UNL     1      -1.455  14.188  19.708  0.00  0.00    +0.000 OA
ATOM      7  C   UNL     1       0.686  12.393  19.992  0.00  0.00    +0.000 C 
ATOM      8  C   UNL     1       1.429  11.225  19.261  0.00  0.00    +0.000 C 
ENDROOT
BRANCH   5   9
ATOM      9  C   UNL     1      -3.201  12.674  20.295  0.00  0.00    +0.000 A 
ATOM     10  C   UNL     1      -4.093  12.051  19.269  0.00  0.00    +0.000 A 
ATOM     11  C   UNL     1      -5.418  11.970  19.524  0.00  0.00    +0.000 A 
ATOM     12  C   UNL     1      -5.992  12.356  20.830  0.00  0.00    +0.000 A 
ATOM     13  O   UNL     1      -7.205  12.292  21.012  0.00  0.00    +0.000 OA
ATOM     14  N   UNL     1      -5.070  12.733  21.769  0.00  0.00    +0.000 N 
ATOM     15  C   UNL     1      -3.724  12.914  21.523  0.00  0.00    +0.000 A 
ATOM     16  C   UNL     1      -3.065  13.413  22.784  0.00  0.00    +0.000 C 
ATOM     17  C   UNL     1      -4.179  13.449  23.837  0.00  0.00    +0.000 C 
ATOM     18  C   UNL     1      -5.452  13.020  23.136  0.00  0.00    +0.000 C 
BRANCH  10  19
ATOM     19  C   UNL     1      -3.683  11.555  17.927  0.00  0.00    +0.000 A 
ATOM     20  C   UNL     1      -2.553  10.758  17.735  0.00  0.00    +0.000 A 
ATOM     21  N   UNL     1      -2.259  10.099  16.595  0.00  0.00    +0.000 NA
ATOM     22  C   UNL     1      -3.133  10.262  15.594  0.00  0.00    +0.000 A 
ATOM     23  N   UNL     1      -4.236  11.025  15.634  0.00  0.00    +0.000 NA
ATOM     24  C   UNL     1      -4.484  11.660  16.803  0.00  0.00    +0.000 A 
ENDBRANCH  10  19
ENDBRANCH   5   9
BRANCH   1  30
ATOM     25  C   UNL     1       2.872   5.220  20.194  0.00  0.00    +0.000 C 
ATOM     26  C   UNL     1       2.604   6.491  19.438  0.00  0.00    +0.000 A 
ATOM     27  C   UNL     1       3.067   6.588  18.120  0.00  0.00    +0.000 A 
ATOM     28  C   UNL     1       2.873   7.745  17.387  0.00  0.00    +0.000 A 
ATOM     29  C   UNL     1       2.262   8.831  17.996  0.00  0.00    +0.000 A 
ATOM     30  C   UNL     1       1.783   8.788  19.323  0.00  0.00    +0.000 A 
ATOM     31  C   UNL     1       1.890   7.568  20.029  0.00  0.00    +0.000 A 
ATOM     32  C   UNL     1       1.218   7.380  21.366  0.00  0.00    +0.000 C 
ENDBRANCH   1  30
TORSDOF 3
ENDMDL
MODEL 2
REMARK VINA RESULT:      -8.1      2.399      4.697
REMARK  Name = 
REMARK  5 active torsions:
REMARK  status: ('A' for Active; 'I' for Inactive)
REMARK    1  A    between atoms: C_1  and  C_2
REMARK    2  A    between atoms: C_6  and  N_7
REMARK    3  A    between atoms: C_11  and  C_13
REMARK    4  A    between atoms: C_14  and  C_15
REMARK    5  A    between atoms: C_31  and  C_32
REMARK                            x       y       z     vdW  Elec       q    Type
REMARK                         _______ _______ _______ _____ _____    ______ ____
ROOT
ATOM      1  N   UNL     1       1.997   7.754  18.697  0.00  0.00    +0.000 N 
ATOM      2  C   UNL     1       1.989   9.117  18.178  0.00  0.00    +0.000 C 
ATOM      3  C   UNL     1       0.822   9.872  18.719  0.00  0.00    +0.000 C 
ATOM      4  N   UNL     1       0.808   9.951  20.173  0.00  0.00    +0.000 N 
ATOM      5  C   UNL     1       0.573  11.100  20.918  0.00  0.00    +0.000 C 
ATOM      6  O   UNL     1       0.439  11.042  22.141  0.00  0.00    +0.000 OA
ATOM      7  C   UNL     1       0.882   8.614  20.802  0.00  0.00    +0.000 C 
ATOM      8  C   UNL     1       2.017   7.722  20.194  0.00  0.00    +0.000 C 
ENDROOT
BRANCH   5   9
ATOM      9  C   UNL     1       0.577  12.469  20.236  0.00  0.00    +0.000 A 
ATOM     10  C   UNL     1      -0.526  13.029  19.395  0.00  0.00    +0.000 A 
ATOM     11  C   UNL     1      -0.295  14.157  18.688  0.00  0.00    +0.000 A 
ATOM     12  C   UNL     1       0.962  14.923  18.820  0.00  0.00    +0.000 A 
ATOM     13  O   UNL     1       1.143  15.929  18.139  0.00  0.00    +0.000 OA
ATOM     14  N   UNL     1       1.831  14.436  19.758  0.00  0.00    +0.000 N 
ATOM     15  C   UNL     1       1.673  13.243  20.434  0.00  0.00    +0.000 A 
ATOM     16  C   UNL     1       2.880  13.019  21.309  0.00  0.00    +0.000 C 
ATOM     17  C   UNL     1       3.755  14.264  21.119  0.00  0.00    +0.000 C 
ATOM     18  C   UNL     1       3.050  15.138  20.101  0.00  0.00    +0.000 C 
BRANCH  10  19
ATOM     19  C   UNL     1      -1.872  12.426  19.190  0.00  0.00    +0.000 A 
ATOM     20  C   UNL     1      -2.947  12.685  20.041  0.00  0.00    +0.000 A 
ATOM     21  N   UNL     1      -4.230  12.355  19.786  0.00  0.00    +0.000 NA
ATOM     22  C   UNL     1      -4.441  11.719  18.626  0.00  0.00    +0.000 A 
ATOM     23  N   UNL     1      -3.495  11.380  17.736  0.00  0.00    +0.000 NA
ATOM     24  C   UNL     1      -2.227  11.739  18.042  0.00  0.00    +0.000 A 
ENDBRANCH  10  19
ENDBRANCH   5   9
BRANCH   1  30
ATOM     25  C   UNL     1       3.830   3.275  17.428  0.00  0.00    +0.000 C 
ATOM     26  C   UNL     1       3.856   4.777  17.396  0.00  0.00    +0.000 A 
ATOM     27  C   UNL     1       4.923   5.408  16.744  0.00  0.00    +0.000 A 
ATOM     28  C   UNL     1       5.012   6.788  16.708  0.00  0.00    +0.000 A 
ATOM     29  C   UNL     1       4.059   7.540  17.378  0.00  0.00    +0.000 A 
ATOM     30  C   UNL     1       2.969   6.955  18.057  0.00  0.00    +0.000 A 
ATOM     31  C   UNL     1       2.826   5.548  17.998  0.00  0.00    +0.000 A 
ATOM     32  C   UNL     1       1.583   4.870  18.516  0.00  0.00    +0.000 C 
ENDBRANCH   1  30
TORSDOF 3
ENDMDL
MODEL 3
REMARK VINA RESULT:      -7.9      2.482      4.478
REMARK  Name = 
REMARK  5 active torsions:
REMARK  status: ('A' for Active; 'I' for Inactive)
REMARK    1  A    between atoms: C_1  and  C_2
REMARK    2  A    between atoms: C_6  and  N_7
REMARK    3  A    between atoms: C_11  and  C_13
REMARK    4  A    between atoms: C_14  and  C_15
REMARK    5  A    between atoms: C_31  and  C_32
REMARK                            x       y       z     vdW  Elec       q    Type
REMARK                         _______ _______ _______ _____ _____    ______ ____
ROOT
ATOM      1  N   UNL     1       1.415   8.045  19.674  0.00  0.00    +0.000 N 
ATOM      2  C   UNL     1       1.264   9.364  19.070  0.00  0.00    +0.000 C 
ATOM      3  C   UNL     1       0.054  10.048  19.611  0.00  0.00    +0.000 C 
ATOM      4  N   UNL     1       0.086  10.223  21.057  0.00  0.00    +0.000 N 
ATOM      5  C   UNL     1      -0.225  11.395  21.736  0.00  0.00    +0.000 C 
ATOM      6  O   UNL     1      -0.307  11.408  22.965  0.00  0.00    +0.000 OA
ATOM      7  C   UNL     1       0.305   8.943  21.766  0.00  0.00    +0.000 C 
ATOM      8  C   UNL     1       1.493   8.116  21.168  0.00  0.00    +0.000 C 
ENDROOT
BRANCH   5   9
ATOM      9  C   UNL     1      -0.370  12.709  20.969  0.00  0.00    +0.000 A 
ATOM     10  C   UNL     1      -1.661  13.335  20.546  0.00  0.00    +0.000 A 
ATOM     11  C   UNL     1      -1.627  14.384  19.695  0.00  0.00    +0.000 A 
ATOM     12  C   UNL     1      -0.357  15.012  19.273  0.00  0.00    +0.000 A 
ATOM     13  O   UNL     1      -0.368  15.947  18.478  0.00  0.00    +0.000 OA
ATOM     14  N   UNL     1       0.762  14.491  19.865  0.00  0.00    +0.000 N 
ATOM     15  C   UNL     1       0.777  13.367  20.667  0.00  0.00    +0.000 A 
ATOM     16  C   UNL     1       2.204  13.065  21.049  0.00  0.00    +0.000 C 
ATOM     17  C   UNL     1       3.037  14.191  20.424  0.00  0.00    +0.000 C 
ATOM     18  C   UNL     1       2.071  15.073  19.659  0.00  0.00    +0.000 C 
BRANCH  10  19
ATOM     19  C   UNL     1      -3.028  12.874  20.916  0.00  0.00    +0.000 A 
ATOM     20  C   UNL     1      -3.477  12.844  22.237  0.00  0.00    +0.000 A 
ATOM     21  N   UNL     1      -4.758  12.655  22.612  0.00  0.00    +0.000 NA
ATOM     22  C   UNL     1      -5.630  12.471  21.612  0.00  0.00    +0.000 A 
ATOM     23  N   UNL     1      -5.327  12.442  20.305  0.00  0.00    +0.000 NA
ATOM     24  C   UNL     1      -4.026  12.640  19.987  0.00  0.00    +0.000 A 
ENDBRANCH  10  19
ENDBRANCH   5   9
BRANCH   1  30
ATOM     25  C   UNL     1       4.179   3.893  19.286  0.00  0.00    +0.000 C 
ATOM     26  C   UNL     1       3.762   5.259  18.818  0.00  0.00    +0.000 A 
ATOM     27  C   UNL     1       4.452   5.828  17.739  0.00  0.00    +0.000 A 
ATOM     28  C   UNL     1       4.129   7.094  17.284  0.00  0.00    +0.000 A 
ATOM     29  C   UNL     1       3.150   7.817  17.949  0.00  0.00    +0.000 A 
ATOM     30  C   UNL     1       2.431   7.293  19.045  0.00  0.00    +0.000 A 
ATOM     31  C   UNL     1       2.693   5.959  19.436  0.00  0.00    +0.000 A 
ATOM     32  C   UNL     1       1.826   5.262  20.454  0.00  0.00    +0.000 C 
ENDBRANCH   1  30
TORSDOF 3
ENDMDL
MODEL 4
REMARK VINA RESULT:      -7.8      0.648      1.056
REMARK  Name = 
REMARK  5 active torsions:
REMARK  status: ('A' for Active; 'I' for Inactive)
REMARK    1  A    between atoms: C_1  and  C_2
REMARK    2  A    between atoms: C_6  and  N_7
REMARK    3  A    between atoms: C_11  and  C_13
REMARK    4  A    between atoms: C_14  and  C_15
REMARK    5  A    between atoms: C_31  and  C_32
REMARK                            x       y       z     vdW  Elec       q    Type
REMARK                         _______ _______ _______ _____ _____    ______ ____
ROOT
ATOM      1  N   UNL     1       1.463   9.651  19.579  0.00  0.00    +0.000 N 
ATOM      2  C   UNL     1       0.055   9.527  19.937  0.00  0.00    +0.000 C 
ATOM      3  C   UNL     1      -0.436  10.790  20.561  0.00  0.00    +0.000 C 
ATOM      4  N   UNL     1      -0.299  11.953  19.695  0.00  0.00    +0.000 N 
ATOM      5  C   UNL     1      -1.282  12.909  19.464  0.00  0.00    +0.000 C 
ATOM      6  O   UNL     1      -1.028  13.934  18.829  0.00  0.00    +0.000 OA
ATOM      7  C   UNL     1       1.090  12.130  19.218  0.00  0.00    +0.000 C 
ATOM      8  C   UNL     1       1.709  10.806  18.657  0.00  0.00    +0.000 C 
ENDROOT
BRANCH   5   9
ATOM      9  C   UNL     1      -2.721  12.652  19.912  0.00  0.00    +0.000 A 
ATOM     10  C   UNL     1      -3.760  11.915  19.129  0.00  0.00    +0.000 A 
ATOM     11  C   UNL     1      -5.042  11.948  19.557  0.00  0.00    +0.000 A 
ATOM     12  C   UNL     1      -5.426  12.578  20.838  0.00  0.00    +0.000 A 
ATOM     13  O   UNL     1      -6.605  12.611  21.178  0.00  0.00    +0.000 OA
ATOM     14  N   UNL     1      -4.377  13.057  21.576  0.00  0.00    +0.000 N 
ATOM     15  C   UNL     1      -3.070  13.121  21.136  0.00  0.00    +0.000 A 
ATOM     16  C   UNL     1      -2.234  13.788  22.199  0.00  0.00    +0.000 C 
ATOM     17  C   UNL     1      -3.198  14.059  23.361  0.00  0.00    +0.000 C 
ATOM     18  C   UNL     1      -4.566  13.588  22.908  0.00  0.00    +0.000 C 
BRANCH  10  19
ATOM     19  C   UNL     1      -3.547  11.180  17.852  0.00  0.00    +0.000 A 
ATOM     20  C   UNL     1      -4.132  11.579  16.650  0.00  0.00    +0.000 A 
ATOM     21  N   UNL     1      -3.803  11.097  15.434  0.00  0.00    +0.000 NA
ATOM     22  C   UNL     1      -2.851  10.156  15.426  0.00  0.00    +0.000 A 
ATOM     23  N   UNL     1      -2.233   9.658  16.509  0.00  0.00    +0.000 NA
ATOM     24  C   UNL     1      -2.600  10.181  17.702  0.00  0.00    +0.000 A 
ENDBRANCH  10  19
ENDBRANCH   5   9
BRANCH   1  30
ATOM     25  C   UNL     1       2.644   4.875  20.489  0.00  0.00    +0.000 C 
ATOM     26  C   UNL     1       2.559   6.073  19.584  0.00  0.00    +0.000 A 
ATOM     27  C   UNL     1       3.095   5.968  18.295  0.00  0.00    +0.000 A 
ATOM     28  C   UNL     1       3.069   7.047  17.429  0.00  0.00    +0.000 A 
ATOM     29  C   UNL     1       2.556   8.254  17.878  0.00  0.00    +0.000 A 
ATOM     30  C   UNL     1       2.011   8.416  19.170  0.00  0.00    +0.000 A 
ATOM     31  C   UNL     1       1.944   7.280  20.010  0.00  0.00    +0.000 A 
ATOM     32  C   UNL     1       1.191   7.320  21.316  0.00  0.00    +0.000 C 
ENDBRANCH   1  30
TORSDOF 3
ENDMDL
MODEL 5
REMARK VINA RESULT:      -7.7      2.673      4.752
REMARK  Name = 
REMARK  5 active torsions:
REMARK  status: ('A' for Active; 'I' for Inactive)
REMARK    1  A    between atoms: C_1  and  C_2
REMARK    2  A    between atoms: C_6  and  N_7
REMARK    3  A    between atoms: C_11  and  C_13
REMARK    4  A    between atoms: C_14  and  C_15
REMARK    5  A    between atoms: C_31  and  C_32
REMARK                            x       y       z     vdW  Elec       q    Type
REMARK                         _______ _______ _______ _____ _____    ______ ____
ROOT
ATOM      1  N   UNL     1       1.240   8.342  19.764  0.00  0.00    +0.000 N 
ATOM      2  C   UNL     1       1.120   9.657  19.146  0.00  0.00    +0.000 C 
ATOM      3  C   UNL     1      -0.061  10.384  19.695  0.00  0.00    +0.000 C 
ATOM      4  N   UNL     1      -0.004  10.575  21.138  0.00  0.00    +0.000 N 
ATOM      5  C   UNL     1      -0.271  11.764  21.806  0.00  0.00    +0.000 C 
ATOM      6  O   UNL     1      -0.336  11.795  23.036  0.00  0.00    +0.000 OA
ATOM      7  C   UNL     1       0.186   9.298  21.860  0.00  0.00    +0.000 C 
ATOM      8  C   UNL     1       1.340   8.429  21.256  0.00  0.00    +0.000 C 
ENDROOT
BRANCH   5   9
ATOM      9  C   UNL     1      -0.387  13.073  21.025  0.00  0.00    +0.000 A 
ATOM     10  C   UNL     1      -1.634  13.882  20.857  0.00  0.00    +0.000 A 
ATOM     11  C   UNL     1      -1.634  14.900  19.969  0.00  0.00    +0.000 A 
ATOM     12  C   UNL     1      -0.409  15.320  19.255  0.00  0.00    +0.000 A 
ATOM     13  O   UNL     1      -0.458  16.233  18.436  0.00  0.00    +0.000 OA
ATOM     14  N   UNL     1       0.723  14.643  19.619  0.00  0.00    +0.000 N 
ATOM     15  C   UNL     1       0.749  13.543  20.453  0.00  0.00    +0.000 A 
ATOM     16  C   UNL     1       2.166  13.033  20.535  0.00  0.00    +0.000 C 
ATOM     17  C   UNL     1       2.998  14.008  19.693  0.00  0.00    +0.000 C 
ATOM     18  C   UNL     1       2.026  15.014  19.110  0.00  0.00    +0.000 C 
BRANCH  10  19
ATOM     19  C   UNL     1      -2.939  13.642  21.533  0.00  0.00    +0.000 A 
ATOM     20  C   UNL     1      -3.936  12.840  20.975  0.00  0.00    +0.000 A 
ATOM     21  N   UNL     1      -5.033  12.406  21.629  0.00  0.00    +0.000 NA
ATOM     22  C   UNL     1      -5.143  12.812  22.901  0.00  0.00    +0.000 A 
ATOM     23  N   UNL     1      -4.278  13.609  23.546  0.00  0.00    +0.000 NA
ATOM     24  C   UNL     1      -3.194  14.011  22.842  0.00  0.00    +0.000 A 
ENDBRANCH  10  19
ENDBRANCH   5   9
BRANCH   1  30
ATOM     25  C   UNL     1       3.919   4.130  19.433  0.00  0.00    +0.000 C 
ATOM     26  C   UNL     1       3.513   5.488  18.932  0.00  0.00    +0.000 A 
ATOM     27  C   UNL     1       4.181   6.010  17.817  0.00  0.00    +0.000 A 
ATOM     28  C   UNL     1       3.867   7.267  17.331  0.00  0.00    +0.000 A 
ATOM     29  C   UNL     1       2.920   8.028  18.000  0.00  0.00    +0.000 A 
ATOM     30  C   UNL     1       2.224   7.553  19.132  0.00  0.00    +0.000 A 
ATOM     31  C   UNL     1       2.474   6.227  19.558  0.00  0.00    +0.000 A 
ATOM     32  C   UNL     1       1.625   5.578  20.622  0.00  0.00    +0.000 C 
ENDBRANCH   1  30
TORSDOF 3
ENDMDL
MODEL 6
REMARK VINA RESULT:      -7.6      1.385      4.233
REMARK  Name = 
REMARK  5 active torsions:
REMARK  status: ('A' for Active; 'I' for Inactive)
REMARK    1  A    between atoms: C_1  and  C_2
REMARK    2  A    between atoms: C_6  and  N_7
REMARK    3  A    between atoms: C_11  and  C_13
REMARK    4  A    between atoms: C_14  and  C_15
REMARK    5  A    between atoms: C_31  and  C_32
REMARK                            x       y       z     vdW  Elec       q    Type
REMARK                         _______ _______ _______ _____ _____    ______ ____
ROOT
ATOM      1  N   UNL     1       0.931  10.053  20.024  0.00  0.00    +0.000 N 
ATOM      2  C   UNL     1      -0.513   9.858  20.094  0.00  0.00    +0.000 C 
ATOM      3  C   UNL     1      -1.144  10.930  20.917  0.00  0.00    +0.000 C 
ATOM      4  N   UNL     1      -0.901  12.271  20.404  0.00  0.00    +0.000 N 
ATOM      5  C   UNL     1      -1.861  13.264  20.252  0.00  0.00    +0.000 C 
ATOM      6  O   UNL     1      -1.538  14.413  19.944  0.00  0.00    +0.000 OA
ATOM      7  C   UNL     1       0.543  12.547  20.231  0.00  0.00    +0.000 C 
ATOM      8  C   UNL     1       1.291  11.399  19.474  0.00  0.00    +0.000 C 
ENDROOT
BRANCH   5   9
ATOM      9  C   UNL     1      -3.346  12.918  20.368  0.00  0.00    +0.000 A 
ATOM     10  C   UNL     1      -4.236  13.266  21.518  0.00  0.00    +0.000 A 
ATOM     11  C   UNL     1      -5.469  12.713  21.576  0.00  0.00    +0.000 A 
ATOM     12  C   UNL     1      -6.010  11.883  20.479  0.00  0.00    +0.000 A 
ATOM     13  O   UNL     1      -7.124  11.378  20.583  0.00  0.00    +0.000 OA
ATOM     14  N   UNL     1      -5.194  11.782  19.385  0.00  0.00    +0.000 N 
ATOM     15  C   UNL     1      -3.898  12.254  19.322  0.00  0.00    +0.000 A 
ATOM     16  C   UNL     1      -3.308  11.871  17.988  0.00  0.00    +0.000 C 
ATOM     17  C   UNL     1      -4.439  11.161  17.234  0.00  0.00    +0.000 C 
ATOM     18  C   UNL     1      -5.625  11.112  18.176  0.00  0.00    +0.000 C 
BRANCH  10  19
ATOM     19  C   UNL     1      -3.882  14.127  22.679  0.00  0.00    +0.000 A 
ATOM     20  C   UNL     1      -4.266  15.466  22.764  0.00  0.00    +0.000 A 
ATOM     21  N   UNL     1      -4.173  16.227  23.874  0.00  0.00    +0.000 NA
ATOM     22  C   UNL     1      -3.652  15.617  24.947  0.00  0.00    +0.000 A 
ATOM     23  N   UNL     1      -3.213  14.350  24.991  0.00  0.00    +0.000 NA
ATOM     24  C   UNL     1      -3.334  13.633  23.850  0.00  0.00    +0.000 A 
ENDBRANCH  10  19
ENDBRANCH   5   9
BRANCH   1  30
ATOM     25  C   UNL     1       2.734   5.390  20.228  0.00  0.00    +0.000 C 
ATOM     26  C   UNL     1       2.431   6.666  19.493  0.00  0.00    +0.000 A 
ATOM     27  C   UNL     1       2.861   6.783  18.165  0.00  0.00    +0.000 A 
ATOM     28  C   UNL     1       2.634   7.944  17.449  0.00  0.00    +0.000 A 
ATOM     29  C   UNL     1       2.026   9.016  18.084  0.00  0.00    +0.000 A 
ATOM     30  C   UNL     1       1.580   8.954  19.422  0.00  0.00    +0.000 A 
ATOM     31  C   UNL     1       1.720   7.727  20.113  0.00  0.00    +0.000 A 
ATOM     32  C   UNL     1       1.084   7.518  21.464  0.00  0.00    +0.000 C 
ENDBRANCH   1  30
TORSDOF 3
ENDMDL
MODEL 7
REMARK VINA RESULT:      -7.5      1.737      4.402
REMARK  Name = 
REMARK  5 active torsions:
REMARK  status: ('A' for Active; 'I' for Inactive)
REMARK    1  A    between atoms: C_1  and  C_2
REMARK    2  A    between atoms: C_6  and  N_7
REMARK    3  A    between atoms: C_11  and  C_13
REMARK    4  A    between atoms: C_14  and  C_15
REMARK    5  A    between atoms: C_31  and  C_32
REMARK                            x       y       z     vdW  Elec       q    Type
REMARK                         _______ _______ _______ _____ _____    ______ ____
ROOT
ATOM      1  N   UNL     1       0.633  10.687  20.256  0.00  0.00    +0.000 N 
ATOM      2  C   UNL     1      -0.780  10.426  20.503  0.00  0.00    +0.000 C 
ATOM      3  C   UNL     1      -1.354  11.474  21.395  0.00  0.00    +0.000 C 
ATOM      4  N   UNL     1      -1.240  12.821  20.853  0.00  0.00    +0.000 N 
ATOM      5  C   UNL     1      -2.257  13.767  20.819  0.00  0.00    +0.000 C 
ATOM      6  O   UNL     1      -2.028  14.927  20.471  0.00  0.00    +0.000 OA
ATOM      7  C   UNL     1       0.157  13.162  20.504  0.00  0.00    +0.000 C 
ATOM      8  C   UNL     1       0.859  12.043  19.663  0.00  0.00    +0.000 C 
ENDROOT
BRANCH   5   9
ATOM      9  C   UNL     1      -3.698  13.354  21.117  0.00  0.00    +0.000 A 
ATOM     10  C   UNL     1      -4.466  13.695  22.355  0.00  0.00    +0.000 A 
ATOM     11  C   UNL     1      -5.653  13.086  22.572  0.00  0.00    +0.000 A 
ATOM     12  C   UNL     1      -6.274  12.196  21.568  0.00  0.00    +0.000 A 
ATOM     13  O   UNL     1      -7.341  11.641  21.815  0.00  0.00    +0.000 OA
ATOM     14  N   UNL     1      -5.587  12.099  20.389  0.00  0.00    +0.000 N 
ATOM     15  C   UNL     1      -4.333  12.631  20.162  0.00  0.00    +0.000 A 
ATOM     16  C   UNL     1      -3.883  12.234  18.778  0.00  0.00    +0.000 C 
ATOM     17  C   UNL     1      -5.056  11.447  18.181  0.00  0.00    +0.000 C 
ATOM     18  C   UNL     1      -6.120  11.371  19.257  0.00  0.00    +0.000 C 
BRANCH  10  19
ATOM     19  C   UNL     1      -4.024  14.609  23.444  0.00  0.00    +0.000 A 
ATOM     20  C   UNL     1      -3.157  14.202  24.459  0.00  0.00    +0.000 A 
ATOM     21  N   UNL     1      -2.549  15.032  25.332  0.00  0.00    +0.000 NA
ATOM     22  C   UNL     1      -2.840  16.331  25.190  0.00  0.00    +0.000 A 
ATOM     23  N   UNL     1      -3.681  16.850  24.282  0.00  0.00    +0.000 NA
ATOM     24  C   UNL     1      -4.259  15.973  23.430  0.00  0.00    +0.000 A 
ENDBRANCH  10  19
ENDBRANCH   5   9
BRANCH   1  30
ATOM     25  C   UNL     1       2.566   6.072  20.223  0.00  0.00    +0.000 C 
ATOM     26  C   UNL     1       2.167   7.349  19.538  0.00  0.00    +0.000 A 
ATOM     27  C   UNL     1       2.473   7.496  18.179  0.00  0.00    +0.000 A 
ATOM     28  C   UNL     1       2.154   8.661  17.505  0.00  0.00    +0.000 A 
ATOM     29  C   UNL     1       1.577   9.707  18.210  0.00  0.00    +0.000 A 
ATOM     30  C   UNL     1       1.255   9.614  19.581  0.00  0.00    +0.000 A 
ATOM     31  C   UNL     1       1.487   8.382  20.236  0.00  0.00    +0.000 A 
ATOM     32  C   UNL     1       0.979   8.137  21.635  0.00  0.00    +0.000 C 
ENDBRANCH   1  30
TORSDOF 3
ENDMDL
MODEL 8
REMARK VINA RESULT:      -7.4      3.443      6.635
REMARK  Name = 
REMARK  5 active torsions:
REMARK  status: ('A' for Active; 'I' for Inactive)
REMARK    1  A    between atoms: C_1  and  C_2
REMARK    2  A    between atoms: C_6  and  N_7
REMARK    3  A    between atoms: C_11  and  C_13
REMARK    4  A    between atoms: C_14  and  C_15
REMARK    5  A    between atoms: C_31  and  C_32
REMARK                            x       y       z     vdW  Elec       q    Type
REMARK                         _______ _______ _______ _____ _____    ______ ____
ROOT
ATOM      1  N   UNL     1       2.197  14.536  18.963  0.00  0.00    +0.000 N 
ATOM      2  C   UNL     1       0.764  14.794  19.029  0.00  0.00    +0.000 C 
ATOM      3  C   UNL     1       0.010  13.740  18.290  0.00  0.00    +0.000 C 
ATOM      4  N   UNL     1       0.243  12.397  18.802  0.00  0.00    +0.000 N 
ATOM      5  C   UNL     1      -0.740  11.450  19.063  0.00  0.00    +0.000 C 
ATOM      6  O   UNL     1      -0.438  10.293  19.360  0.00  0.00    +0.000 OA
ATOM      7  C   UNL     1       1.683  12.059  18.841  0.00  0.00    +0.000 C 
ATOM      8  C   UNL     1       2.550  13.183  19.501  0.00  0.00    +0.000 C 
ENDROOT
BRANCH   5   9
ATOM      9  C   UNL     1      -2.213  11.861  19.084  0.00  0.00    +0.000 A 
ATOM     10  C   UNL     1      -2.895  12.608  20.185  0.00  0.00    +0.000 A 
ATOM     11  C   UNL     1      -4.242  12.716  20.160  0.00  0.00    +0.000 A 
ATOM     12  C   UNL     1      -5.048  12.232  19.019  0.00  0.00    +0.000 A 
ATOM     13  O   UNL     1      -6.272  12.325  19.047  0.00  0.00    +0.000 OA
ATOM     14  N   UNL     1      -4.316  11.737  17.973  0.00  0.00    +0.000 N 
ATOM     15  C   UNL     1      -2.951  11.529  17.996  0.00  0.00    +0.000 A 
ATOM     16  C   UNL     1      -2.538  10.891  16.694  0.00  0.00    +0.000 C 
ATOM     17  C   UNL     1      -3.823  10.801  15.861  0.00  0.00    +0.000 C 
ATOM     18  C   UNL     1      -4.942  11.340  16.730  0.00  0.00    +0.000 C 
BRANCH  10  19
ATOM     19  C   UNL     1      -2.242  13.210  21.380  0.00  0.00    +0.000 A 
ATOM     20  C   UNL     1      -2.321  14.573  21.672  0.00  0.00    +0.000 A 
ATOM     21  N   UNL     1      -1.948  15.134  22.840  0.00  0.00    +0.000 NA
ATOM     22  C   UNL     1      -1.456  14.288  23.754  0.00  0.00    +0.000 A 
ATOM     23  N   UNL     1      -1.293  12.966  23.590  0.00  0.00    +0.000 NA
ATOM     24  C   UNL     1      -1.688  12.457  22.400  0.00  0.00    +0.000 A 
ENDBRANCH  10  19
ENDBRANCH   5   9
BRANCH   1  30
ATOM     25  C   UNL     1       6.410  17.227  19.171  0.00  0.00    +0.000 C 
ATOM     26  C   UNL     1       4.984  16.960  19.565  0.00  0.00    +0.000 A 
ATOM     27  C   UNL     1       4.396  17.791  20.528  0.00  0.00    +0.000 A 
ATOM     28  C   UNL     1       3.097  17.574  20.948  0.00  0.00    +0.000 A 
ATOM     29  C   UNL     1       2.401  16.485  20.445  0.00  0.00    +0.000 A 
ATOM     30  C   UNL     1       2.949  15.613  19.480  0.00  0.00    +0.000 A 
ATOM     31  C   UNL     1       4.238  15.904  18.977  0.00  0.00    +0.000 A 
ATOM     32  C   UNL     1       4.804  15.148  17.801  0.00  0.00    +0.000 C 
ENDBRANCH   1  30
TORSDOF 3
ENDMDL
MODEL 9
REMARK VINA RESULT:      -7.3      1.625      4.080
REMARK  Name = 
REMARK  5 active torsions:
REMARK  status: ('A' for Active; 'I' for Inactive)
REMARK    1  A    between atoms: C_1  and  C_2
REMARK    2  A    between atoms: C_6  and  N_7
REMARK    3  A    between atoms: C_11  and  C_13
REMARK    4  A    between atoms: C_14  and  C_15
REMARK    5  A    between atoms: C_31  and  C_32
REMARK                            x       y       z     vdW  Elec       q    Type
REMARK                         _______ _______ _______ _____ _____    ______ ____
ROOT
ATOM      1  N   UNL     1       1.221   9.823  19.835  0.00  0.00    +0.000 N 
ATOM      2  C   UNL     1      -0.182   9.759  20.226  0.00  0.00    +0.000 C 
ATOM      3  C   UNL     1      -0.599  11.034  20.879  0.00  0.00    +0.000 C 
ATOM      4  N   UNL     1      -0.428  12.203  20.027  0.00  0.00    +0.000 N 
ATOM      5  C   UNL     1      -1.370  13.206  19.833  0.00  0.00    +0.000 C 
ATOM      6  O   UNL     1      -1.084  14.227  19.207  0.00  0.00    +0.000 OA
ATOM      7  C   UNL     1       0.956  12.321  19.518  0.00  0.00    +0.000 C 
ATOM      8  C   UNL     1       1.499  10.979  18.924  0.00  0.00    +0.000 C 
ENDROOT
BRANCH   5   9
ATOM      9  C   UNL     1      -2.809  13.009  20.312  0.00  0.00    +0.000 A 
ATOM     10  C   UNL     1      -3.373  13.499  21.608  0.00  0.00    +0.000 A 
ATOM     11  C   UNL     1      -4.597  13.070  21.988  0.00  0.00    +0.000 A 
ATOM     12  C   UNL     1      -5.445  12.239  21.108  0.00  0.00    +0.000 A 
ATOM     13  O   UNL     1      -6.541  11.848  21.502  0.00  0.00    +0.000 OA
ATOM     14  N   UNL     1      -4.921  12.003  19.866  0.00  0.00    +0.000 N 
ATOM     15  C   UNL     1      -3.643  12.347  19.473  0.00  0.00    +0.000 A 
ATOM     16  C   UNL     1      -3.416  11.839  18.071  0.00  0.00    +0.000 C 
ATOM     17  C   UNL     1      -4.746  11.202  17.651  0.00  0.00    +0.000 C 
ATOM     18  C   UNL     1      -5.677  11.315  18.842  0.00  0.00    +0.000 C 
BRANCH  10  19
ATOM     19  C   UNL     1      -2.687  14.383  22.590  0.00  0.00    +0.000 A 
ATOM     20  C   UNL     1      -1.729  13.907  23.487  0.00  0.00    +0.000 A 
ATOM     21  N   UNL     1      -0.920  14.684  24.236  0.00  0.00    +0.000 NA
ATOM     22  C   UNL     1      -1.093  16.004  24.090  0.00  0.00    +0.000 A 
ATOM     23  N   UNL     1      -1.998  16.592  23.292  0.00  0.00    +0.000 NA
ATOM     24  C   UNL     1      -2.780  15.764  22.561  0.00  0.00    +0.000 A 
ENDBRANCH  10  19
ENDBRANCH   5   9
BRANCH   1  30
ATOM     25  C   UNL     1       2.330   5.020  20.690  0.00  0.00    +0.000 C 
ATOM     26  C   UNL     1       2.212   6.214  19.786  0.00  0.00    +0.000 A 
ATOM     27  C   UNL     1       2.645   6.086  18.460  0.00  0.00    +0.000 A 
ATOM     28  C   UNL     1       2.585   7.161  17.591  0.00  0.00    +0.000 A 
ATOM     29  C   UNL     1       2.142   8.385  18.067  0.00  0.00    +0.000 A 
ATOM     30  C   UNL     1       1.701   8.570  19.395  0.00  0.00    +0.000 A 
ATOM     31  C   UNL     1       1.665   7.441  20.247  0.00  0.00    +0.000 A 
ATOM     32  C   UNL     1       1.014   7.511  21.606  0.00  0.00    +0.000 C 
ENDBRANCH   1  30
TORSDOF 3
ENDMDL
