MODEL 1
REMARK VINA RESULT:      -8.1      0.000      0.000
REMARK  Name = 
REMARK  4 active torsions:
REMARK  status: ('A' for Active; 'I' for Inactive)
REMARK    1  A    between atoms: C_1  and  C_2
REMARK    2  A    between atoms: C_2  and  C_3
REMARK    3  A    between atoms: C_7  and  N_8
REMARK    4  A    between atoms: C_9  and  C_11
REMARK                            x       y       z     vdW  Elec       q    Type
REMARK                         _______ _______ _______ _____ _____    ______ ____
ROOT
ATOM      1  C   UNL     1       4.629   4.971  17.494  0.00  0.00    +0.000 A 
ATOM      2  C   UNL     1       3.904   3.893  16.968  0.00  0.00    +0.000 A 
ATOM      3  C   UNL     1       2.526   3.806  17.152  0.00  0.00    +0.000 A 
ATOM      4  C   UNL     1       1.849   4.775  17.889  0.00  0.00    +0.000 A 
ATOM      5  C   UNL     1       2.538   5.840  18.466  0.00  0.00    +0.000 A 
ATOM      6  C   UNL     1       3.922   5.933  18.259  0.00  0.00    +0.000 A 
ENDROOT
BRANCH   1   8
ATOM      7  C   UNL     1       6.663   4.341  16.049  0.00  0.00    +0.000 C 
ATOM      8  C   UNL     1       6.147   5.115  17.287  0.00  0.00    +0.000 C 
ATOM      9  C   UNL     1       6.873   4.565  18.551  0.00  0.00    +0.000 C 
ATOM     10  O   UNL     1       8.194   5.092  18.707  0.00  0.00    +0.000 OA
ATOM     11  C   UNL     1       8.126   6.503  18.809  0.00  0.00    +0.000 C 
ATOM     12  C   UNL     1       7.390   7.137  17.633  0.00  0.00    +0.000 C 
ATOM     13  N   UNL     1       7.678   8.423  17.279  0.00  0.00    +0.000 N 
ATOM     14  N   UNL     1       6.459   6.532  16.976  0.00  0.00    +0.000 NA
ATOM     15  H   UNL     1       8.061   9.051  17.973  0.00  0.00    +0.000 HD
ATOM     16  H   UNL     1       6.997   8.832  16.648  0.00  0.00    +0.000 HD
ENDBRANCH   1   8
BRANCH   5  17
ATOM     17  N   UNL     1       1.902   6.838  19.235  0.00  0.00    +0.000 N 
ATOM     18  C   UNL     1       1.838   8.191  18.943  0.00  0.00    +0.000 C 
ATOM     19  O   UNL     1       2.270   8.745  17.935  0.00  0.00    +0.000 OA
ATOM     20  H   UNL     1       1.411   6.554  20.080  0.00  0.00    +0.000 HD
BRANCH  18  21
ATOM     21  C   UNL     1       1.144   9.028  19.974  0.00  0.00    +0.000 A 
ATOM     22  C   UNL     1       0.943   8.500  21.247  0.00  0.00    +0.000 A 
ATOM     23  C   UNL     1       0.293   9.277  22.203  0.00  0.00    +0.000 A 
ATOM     24  C   UNL     1      -0.140  10.551  21.850  0.00  0.00    +0.000 A 
ATOM     25 CL   UNL     1      -0.947  11.541  22.997  0.00  0.00    +0.000 Cl
ATOM     26  C   UNL     1       0.100  10.999  20.558  0.00  0.00    +0.000 A 
ATOM     27  N   UNL     1       0.740  10.275  19.600  0.00  0.00    +0.000 NA
ENDBRANCH  18  21
ENDBRANCH   5  17
TORSDOF 3
ENDMDL
MODEL 2
REMARK VINA RESULT:      -8.0      1.932      2.548
REMARK  Name = 
REMARK  4 active torsions:
REMARK  status: ('A' for Active; 'I' for Inactive)
REMARK    1  A    between atoms: C_1  and  C_2
REMARK    2  A    between atoms: C_2  and  C_3
REMARK    3  A    between atoms: C_7  and  N_8
REMARK    4  A    between atoms: C_9  and  C_11
REMARK                            x       y       z     vdW  Elec       q    Type
REMARK                         _______ _______ _______ _____ _____    ______ ____
ROOT
ATOM      1  C   UNL     1       4.120   5.091  19.084  0.00  0.00    +0.000 A 
ATOM      2  C   UNL     1       3.735   3.790  19.429  0.00  0.00    +0.000 A 
ATOM      3  C   UNL     1       2.607   3.567  20.216  0.00  0.00    +0.000 A 
ATOM      4  C   UNL     1       1.858   4.640  20.698  0.00  0.00    +0.000 A 
ATOM      5  C   UNL     1       2.231   5.952  20.413  0.00  0.00    +0.000 A 
ATOM      6  C   UNL     1       3.357   6.167  19.603  0.00  0.00    +0.000 A 
ENDROOT
BRANCH   1   8
ATOM      7  C   UNL     1       6.645   5.578  19.008  0.00  0.00    +0.000 C 
ATOM      8  C   UNL     1       5.344   5.374  18.194  0.00  0.00    +0.000 C 
ATOM      9  C   UNL     1       5.069   6.667  17.370  0.00  0.00    +0.000 C 
ATOM     10  O   UNL     1       5.861   6.747  16.181  0.00  0.00    +0.000 OA
ATOM     11  C   UNL     1       5.587   5.626  15.360  0.00  0.00    +0.000 C 
ATOM     12  C   UNL     1       5.786   4.305  16.093  0.00  0.00    +0.000 C 
ATOM     13  N   UNL     1       6.094   3.183  15.379  0.00  0.00    +0.000 N 
ATOM     14  N   UNL     1       5.626   4.174  17.367  0.00  0.00    +0.000 NA
ATOM     15  H   UNL     1       5.829   3.131  14.405  0.00  0.00    +0.000 HD
ATOM     16  H   UNL     1       5.986   2.324  15.907  0.00  0.00    +0.000 HD
ENDBRANCH   1   8
BRANCH   5  17
ATOM     17  N   UNL     1       1.518   7.072  20.891  0.00  0.00    +0.000 N 
ATOM     18  C   UNL     1       1.375   8.293  20.252  0.00  0.00    +0.000 C 
ATOM     19  O   UNL     1       1.791   8.590  19.135  0.00  0.00    +0.000 OA
ATOM     20  H   UNL     1       1.029   6.988  21.779  0.00  0.00    +0.000 HD
BRANCH  18  21
ATOM     21  C   UNL     1       0.609   9.323  21.024  0.00  0.00    +0.000 A 
ATOM     22  C   UNL     1       0.260   9.054  22.345  0.00  0.00    +0.000 A 
ATOM     23  C   UNL     1      -0.457  10.012  23.060  0.00  0.00    +0.000 A 
ATOM     24  C   UNL     1      -0.807  11.199  22.426  0.00  0.00    +0.000 A 
ATOM     25 CL   UNL     1      -1.692  12.404  23.270  0.00  0.00    +0.000 Cl
ATOM     26  C   UNL     1      -0.420  11.385  21.106  0.00  0.00    +0.000 A 
ATOM     27  N   UNL     1       0.288  10.481  20.378  0.00  0.00    +0.000 NA
ENDBRANCH  18  21
ENDBRANCH   5  17
TORSDOF 3
ENDMDL
MODEL 3
REMARK VINA RESULT:      -8.0      0.672      1.110
REMARK  Name = 
REMARK  4 active torsions:
REMARK  status: ('A' for Active; 'I' for Inactive)
REMARK    1  A    between atoms: C_1  and  C_2
REMARK    2  A    between atoms: C_2  and  C_3
REMARK    3  A    between atoms: C_7  and  N_8
REMARK    4  A    between atoms: C_9  and  C_11
REMARK                            x       y       z     vdW  Elec       q    Type
REMARK                         _______ _______ _______ _____ _____    ______ ____
ROOT
ATOM      1  C   UNL     1       4.568   5.024  17.465  0.00  0.00    +0.000 A 
ATOM      2  C   UNL     1       3.816   3.913  17.060  0.00  0.00    +0.000 A 
ATOM      3  C   UNL     1       2.435   3.885  17.245  0.00  0.00    +0.000 A 
ATOM      4  C   UNL     1       1.782   4.950  17.863  0.00  0.00    +0.000 A 
ATOM      5  C   UNL     1       2.499   6.054  18.319  0.00  0.00    +0.000 A 
ATOM      6  C   UNL     1       3.885   6.085  18.111  0.00  0.00    +0.000 A 
ENDROOT
BRANCH   1   8
ATOM      7  C   UNL     1       6.567   4.309  16.012  0.00  0.00    +0.000 C 
ATOM      8  C   UNL     1       6.091   5.102  17.253  0.00  0.00    +0.000 C 
ATOM      9  C   UNL     1       6.797   4.519  18.513  0.00  0.00    +0.000 C 
ATOM     10  O   UNL     1       8.139   4.989  18.665  0.00  0.00    +0.000 OA
ATOM     11  C   UNL     1       8.133   6.401  18.769  0.00  0.00    +0.000 C 
ATOM     12  C   UNL     1       7.421   7.068  17.598  0.00  0.00    +0.000 C 
ATOM     13  N   UNL     1       7.763   8.342  17.245  0.00  0.00    +0.000 N 
ATOM     14  N   UNL     1       6.462   6.506  16.943  0.00  0.00    +0.000 NA
ATOM     15  H   UNL     1       8.175   8.952  17.938  0.00  0.00    +0.000 HD
ATOM     16  H   UNL     1       7.098   8.780  16.617  0.00  0.00    +0.000 HD
ENDBRANCH   1   8
BRANCH   5  17
ATOM     17  N   UNL     1       1.887   7.150  18.966  0.00  0.00    +0.000 N 
ATOM     18  C   UNL     1       1.794   8.445  18.485  0.00  0.00    +0.000 C 
ATOM     19  O   UNL     1       2.170   8.850  17.388  0.00  0.00    +0.000 OA
ATOM     20  H   UNL     1       1.441   6.989  19.866  0.00  0.00    +0.000 HD
BRANCH  18  21
ATOM     21  C   UNL     1       1.140   9.419  19.416  0.00  0.00    +0.000 A 
ATOM     22  C   UNL     1       0.556  10.569  18.889  0.00  0.00    +0.000 A 
ATOM     23  C   UNL     1      -0.047  11.476  19.757  0.00  0.00    +0.000 A 
ATOM     24  C   UNL     1      -0.038  11.207  21.121  0.00  0.00    +0.000 A 
ATOM     25 CL   UNL     1      -0.768  12.300  22.225  0.00  0.00    +0.000 Cl
ATOM     26  C   UNL     1       0.567  10.039  21.563  0.00  0.00    +0.000 A 
ATOM     27  N   UNL     1       1.157   9.123  20.747  0.00  0.00    +0.000 NA
ENDBRANCH  18  21
ENDBRANCH   5  17
TORSDOF 3
ENDMDL
MODEL 4
REMARK VINA RESULT:      -7.9      1.614      1.938
REMARK  Name = 
REMARK  4 active torsions:
REMARK  status: ('A' for Active; 'I' for Inactive)
REMARK    1  A    between atoms: C_1  and  C_2
REMARK    2  A    between atoms: C_2  and  C_3
REMARK    3  A    between atoms: C_7  and  N_8
REMARK    4  A    between atoms: C_9  and  C_11
REMARK                            x       y       z     vdW  Elec       q    Type
REMARK                         _______ _______ _______ _____ _____    ______ ____
ROOT
ATOM      1  C   UNL     1       3.863   5.316  18.837  0.00  0.00    +0.000 A 
ATOM      2  C   UNL     1       3.510   4.019  19.231  0.00  0.00    +0.000 A 
ATOM      3  C   UNL     1       2.458   3.807  20.120  0.00  0.00    +0.000 A 
ATOM      4  C   UNL     1       1.757   4.886  20.655  0.00  0.00    +0.000 A 
ATOM      5  C   UNL     1       2.104   6.194  20.323  0.00  0.00    +0.000 A 
ATOM      6  C   UNL     1       3.151   6.399  19.412  0.00  0.00    +0.000 A 
ENDROOT
BRANCH   1   8
ATOM      7  C   UNL     1       4.598   6.578  16.719  0.00  0.00    +0.000 C 
ATOM      8  C   UNL     1       5.001   5.586  17.837  0.00  0.00    +0.000 C 
ATOM      9  C   UNL     1       5.410   4.236  17.176  0.00  0.00    +0.000 C 
ATOM     10  O   UNL     1       6.738   4.258  16.644  0.00  0.00    +0.000 OA
ATOM     11  C   UNL     1       7.655   4.541  17.685  0.00  0.00    +0.000 C 
ATOM     12  C   UNL     1       7.313   5.828  18.427  0.00  0.00    +0.000 C 
ATOM     13  N   UNL     1       8.308   6.525  19.052  0.00  0.00    +0.000 N 
ATOM     14  N   UNL     1       6.109   6.277  18.543  0.00  0.00    +0.000 NA
ATOM     15  H   UNL     1       9.144   6.036  19.343  0.00  0.00    +0.000 HD
ATOM     16  H   UNL     1       7.966   7.228  19.698  0.00  0.00    +0.000 HD
ENDBRANCH   1   8
BRANCH   5  17
ATOM     17  N   UNL     1       1.437   7.321  20.851  0.00  0.00    +0.000 N 
ATOM     18  C   UNL     1       1.255   8.542  20.222  0.00  0.00    +0.000 C 
ATOM     19  O   UNL     1       1.587   8.834  19.076  0.00  0.00    +0.000 OA
ATOM     20  H   UNL     1       1.017   7.243  21.774  0.00  0.00    +0.000 HD
BRANCH  18  21
ATOM     21  C   UNL     1       0.559   9.580  21.047  0.00  0.00    +0.000 A 
ATOM     22  C   UNL     1      -0.050   9.196  22.240  0.00  0.00    +0.000 A 
ATOM     23  C   UNL     1      -0.702  10.162  23.004  0.00  0.00    +0.000 A 
ATOM     24  C   UNL     1      -0.730  11.474  22.543  0.00  0.00    +0.000 A 
ATOM     25 CL   UNL     1      -1.525  12.694  23.453  0.00  0.00    +0.000 Cl
ATOM     26  C   UNL     1      -0.100  11.770  21.343  0.00  0.00    +0.000 A 
ATOM     27  N   UNL     1       0.555  10.859  20.574  0.00  0.00    +0.000 NA
ENDBRANCH  18  21
ENDBRANCH   5  17
TORSDOF 3
ENDMDL
MODEL 5
REMARK VINA RESULT:      -7.9      2.942      4.087
REMARK  Name = 
REMARK  4 active torsions:
REMARK  status: ('A' for Active; 'I' for Inactive)
REMARK    1  A    between atoms: C_1  and  C_2
REMARK    2  A    between atoms: C_2  and  C_3
REMARK    3  A    between atoms: C_7  and  N_8
REMARK    4  A    between atoms: C_9  and  C_11
REMARK                            x       y       z     vdW  Elec       q    Type
REMARK                         _______ _______ _______ _____ _____    ______ ____
ROOT
ATOM      1  C   UNL     1       3.109   5.160  18.180  0.00  0.00    +0.000 A 
ATOM      2  C   UNL     1       4.241   5.459  17.411  0.00  0.00    +0.000 A 
ATOM      3  C   UNL     1       4.541   6.776  17.068  0.00  0.00    +0.000 A 
ATOM      4  C   UNL     1       3.700   7.817  17.460  0.00  0.00    +0.000 A 
ATOM      5  C   UNL     1       2.541   7.559  18.188  0.00  0.00    +0.000 A 
ATOM      6  C   UNL     1       2.257   6.233  18.547  0.00  0.00    +0.000 A 
ENDROOT
BRANCH   1   8
ATOM      7  C   UNL     1       2.254   2.855  17.422  0.00  0.00    +0.000 C 
ATOM      8  C   UNL     1       2.761   3.721  18.600  0.00  0.00    +0.000 C 
ATOM      9  C   UNL     1       1.647   3.778  19.687  0.00  0.00    +0.000 C 
ATOM     10  O   UNL     1       1.604   2.603  20.501  0.00  0.00    +0.000 OA
ATOM     11  C   UNL     1       2.853   2.436  21.149  0.00  0.00    +0.000 C 
ATOM     12  C   UNL     1       4.019   2.412  20.168  0.00  0.00    +0.000 C 
ATOM     13  N   UNL     1       5.165   1.751  20.506  0.00  0.00    +0.000 N 
ATOM     14  N   UNL     1       4.003   3.034  19.037  0.00  0.00    +0.000 NA
ATOM     15  H   UNL     1       5.385   1.617  21.484  0.00  0.00    +0.000 HD
ATOM     16  H   UNL     1       5.952   1.973  19.907  0.00  0.00    +0.000 HD
ENDBRANCH   1   8
BRANCH   5  17
ATOM     17  N   UNL     1       1.648   8.574  18.594  0.00  0.00    +0.000 N 
ATOM     18  C   UNL     1       1.242   8.847  19.889  0.00  0.00    +0.000 C 
ATOM     19  O   UNL     1       1.633   8.293  20.913  0.00  0.00    +0.000 OA
ATOM     20  H   UNL     1       1.275   9.199  17.882  0.00  0.00    +0.000 HD
BRANCH  18  21
ATOM     21  C   UNL     1       0.238   9.951  20.017  0.00  0.00    +0.000 A 
ATOM     22  C   UNL     1      -0.478  10.346  18.889  0.00  0.00    +0.000 A 
ATOM     23  C   UNL     1      -1.407  11.377  19.008  0.00  0.00    +0.000 A 
ATOM     24  C   UNL     1      -1.582  11.981  20.248  0.00  0.00    +0.000 A 
ATOM     25 CL   UNL     1      -2.716  13.257  20.438  0.00  0.00    +0.000 Cl
ATOM     26  C   UNL     1      -0.827  11.528  21.320  0.00  0.00    +0.000 A 
ATOM     27  N   UNL     1       0.082  10.518  21.247  0.00  0.00    +0.000 NA
ENDBRANCH  18  21
ENDBRANCH   5  17
TORSDOF 3
ENDMDL
MODEL 6
REMARK VINA RESULT:      -7.8      4.180      6.702
REMARK  Name = 
REMARK  4 active torsions:
REMARK  status: ('A' for Active; 'I' for Inactive)
REMARK    1  A    between atoms: C_1  and  C_2
REMARK    2  A    between atoms: C_2  and  C_3
REMARK    3  A    between atoms: C_7  and  N_8
REMARK    4  A    between atoms: C_9  and  C_11
REMARK                            x       y       z     vdW  Elec       q    Type
REMARK                         _______ _______ _______ _____ _____    ______ ____
ROOT
ATOM      1  C   UNL     1       4.597   5.256  17.437  0.00  0.00    +0.000 A 
ATOM      2  C   UNL     1       5.071   4.408  16.427  0.00  0.00    +0.000 A 
ATOM      3  C   UNL     1       6.225   4.727  15.715  0.00  0.00    +0.000 A 
ATOM      4  C   UNL     1       6.912   5.911  15.976  0.00  0.00    +0.000 A 
ATOM      5  C   UNL     1       6.451   6.802  16.942  0.00  0.00    +0.000 A 
ATOM      6  C   UNL     1       5.300   6.465  17.669  0.00  0.00    +0.000 A 
ENDROOT
BRANCH   1   8
ATOM      7  C   UNL     1       2.144   5.849  17.938  0.00  0.00    +0.000 C 
ATOM      8  C   UNL     1       3.341   4.923  18.263  0.00  0.00    +0.000 C 
ATOM      9  C   UNL     1       3.688   5.076  19.774  0.00  0.00    +0.000 C 
ATOM     10  O   UNL     1       2.812   4.328  20.623  0.00  0.00    +0.000 OA
ATOM     11  C   UNL     1       2.890   2.955  20.283  0.00  0.00    +0.000 C 
ATOM     12  C   UNL     1       2.609   2.705  18.806  0.00  0.00    +0.000 C 
ATOM     13  N   UNL     1       2.119   1.492  18.415  0.00  0.00    +0.000 N 
ATOM     14  N   UNL     1       2.859   3.571  17.883  0.00  0.00    +0.000 NA
ATOM     15  H   UNL     1       2.293   0.681  18.992  0.00  0.00    +0.000 HD
ATOM     16  H   UNL     1       2.175   1.336  17.414  0.00  0.00    +0.000 HD
ENDBRANCH   1   8
BRANCH   5  17
ATOM     17  N   UNL     1       7.100   8.022  17.232  0.00  0.00    +0.000 N 
ATOM     18  C   UNL     1       8.075   8.230  18.194  0.00  0.00    +0.000 C 
ATOM     19  O   UNL     1       8.586   7.378  18.917  0.00  0.00    +0.000 OA
ATOM     20  H   UNL     1       6.863   8.838  16.672  0.00  0.00    +0.000 HD
BRANCH  18  21
ATOM     21  C   UNL     1       8.545   9.646  18.320  0.00  0.00    +0.000 A 
ATOM     22  C   UNL     1       9.470   9.963  19.312  0.00  0.00    +0.000 A 
ATOM     23  C   UNL     1       9.903  11.282  19.432  0.00  0.00    +0.000 A 
ATOM     24  C   UNL     1       9.390  12.238  18.562  0.00  0.00    +0.000 A 
ATOM     25 CL   UNL     1       9.895  13.875  18.677  0.00  0.00    +0.000 Cl
ATOM     26  C   UNL     1       8.470  11.837  17.603  0.00  0.00    +0.000 A 
ATOM     27  N   UNL     1       8.030  10.559  17.447  0.00  0.00    +0.000 NA
ENDBRANCH  18  21
ENDBRANCH   5  17
TORSDOF 3
ENDMDL
MODEL 7
REMARK VINA RESULT:      -7.7      2.976      3.966
REMARK  Name = 
REMARK  4 active torsions:
REMARK  status: ('A' for Active; 'I' for Inactive)
REMARK    1  A    between atoms: C_1  and  C_2
REMARK    2  A    between atoms: C_2  and  C_3
REMARK    3  A    between atoms: C_7  and  N_8
REMARK    4  A    between atoms: C_9  and  C_11
REMARK                            x       y       z     vdW  Elec       q    Type
REMARK                         _______ _______ _______ _____ _____    ______ ____
ROOT
ATOM      1  C   UNL     1       2.819   5.167  18.530  0.00  0.00    +0.000 A 
ATOM      2  C   UNL     1       3.678   5.547  17.490  0.00  0.00    +0.000 A 
ATOM      3  C   UNL     1       3.906   6.893  17.212  0.00  0.00    +0.000 A 
ATOM      4  C   UNL     1       3.259   7.885  17.946  0.00  0.00    +0.000 A 
ATOM      5  C   UNL     1       2.363   7.551  18.960  0.00  0.00    +0.000 A 
ATOM      6  C   UNL     1       2.155   6.194  19.248  0.00  0.00    +0.000 A 
ENDROOT
BRANCH   1   8
ATOM      7  C   UNL     1       2.019   2.871  17.689  0.00  0.00    +0.000 C 
ATOM      8  C   UNL     1       2.564   3.691  18.883  0.00  0.00    +0.000 C 
ATOM      9  C   UNL     1       1.522   3.631  20.040  0.00  0.00    +0.000 C 
ATOM     10  O   UNL     1       1.585   2.410  20.782  0.00  0.00    +0.000 OA
ATOM     11  C   UNL     1       2.879   2.267  21.339  0.00  0.00    +0.000 C 
ATOM     12  C   UNL     1       3.979   2.356  20.287  0.00  0.00    +0.000 C 
ATOM     13  N   UNL     1       5.172   1.733  20.512  0.00  0.00    +0.000 N 
ATOM     14  N   UNL     1       3.861   3.040  19.199  0.00  0.00    +0.000 NA
ATOM     15  H   UNL     1       5.462   1.553  21.464  0.00  0.00    +0.000 HD
ATOM     16  H   UNL     1       5.908   2.027  19.879  0.00  0.00    +0.000 HD
ENDBRANCH   1   8
BRANCH   5  17
ATOM     17  N   UNL     1       1.670   8.517  19.720  0.00  0.00    +0.000 N 
ATOM     18  C   UNL     1       0.961   9.601  19.228  0.00  0.00    +0.000 C 
ATOM     19  O   UNL     1       0.762   9.873  18.047  0.00  0.00    +0.000 OA
ATOM     20  H   UNL     1       1.653   8.412  20.732  0.00  0.00    +0.000 HD
BRANCH  18  21
ATOM     21  C   UNL     1       0.373  10.498  20.274  0.00  0.00    +0.000 A 
ATOM     22  C   UNL     1       0.074   9.967  21.527  0.00  0.00    +0.000 A 
ATOM     23  C   UNL     1      -0.478  10.801  22.497  0.00  0.00    +0.000 A 
ATOM     24  C   UNL     1      -0.720  12.133  22.177  0.00  0.00    +0.000 A 
ATOM     25 CL   UNL     1      -1.401  13.194  23.342  0.00  0.00    +0.000 Cl
ATOM     26  C   UNL     1      -0.394  12.579  20.904  0.00  0.00    +0.000 A 
ATOM     27  N   UNL     1       0.155  11.800  19.933  0.00  0.00    +0.000 NA
ENDBRANCH  18  21
ENDBRANCH   5  17
TORSDOF 3
ENDMDL
MODEL 8
REMARK VINA RESULT:      -7.7      1.975      2.622
REMARK  Name = 
REMARK  4 active torsions:
REMARK  status: ('A' for Active; 'I' for Inactive)
REMARK    1  A    between atoms: C_1  and  C_2
REMARK    2  A    between atoms: C_2  and  C_3
REMARK    3  A    between atoms: C_7  and  N_8
REMARK    4  A    between atoms: C_9  and  C_11
REMARK                            x       y       z     vdW  Elec       q    Type
REMARK                         _______ _______ _______ _____ _____    ______ ____
ROOT
ATOM      1  C   UNL     1       4.596   4.812  18.885  0.00  0.00    +0.000 A 
ATOM      2  C   UNL     1       4.334   3.501  19.305  0.00  0.00    +0.000 A 
ATOM      3  C   UNL     1       3.264   3.227  20.154  0.00  0.00    +0.000 A 
ATOM      4  C   UNL     1       2.453   4.258  20.624  0.00  0.00    +0.000 A 
ATOM      5  C   UNL     1       2.705   5.581  20.266  0.00  0.00    +0.000 A 
ATOM      6  C   UNL     1       3.772   5.847  19.395  0.00  0.00    +0.000 A 
ENDROOT
BRANCH   1   8
ATOM      7  C   UNL     1       7.132   5.163  18.629  0.00  0.00    +0.000 C 
ATOM      8  C   UNL     1       5.753   5.149  17.927  0.00  0.00    +0.000 C 
ATOM      9  C   UNL     1       5.495   6.558  17.316  0.00  0.00    +0.000 C 
ATOM     10  O   UNL     1       6.181   6.761  16.078  0.00  0.00    +0.000 OA
ATOM     11  C   UNL     1       5.759   5.785  15.143  0.00  0.00    +0.000 C 
ATOM     12  C   UNL     1       5.931   4.364  15.668  0.00  0.00    +0.000 C 
ATOM     13  N   UNL     1       6.096   3.339  14.781  0.00  0.00    +0.000 N 
ATOM     14  N   UNL     1       5.877   4.064  16.921  0.00  0.00    +0.000 NA
ATOM     15  H   UNL     1       5.743   3.440  13.839  0.00  0.00    +0.000 HD
ATOM     16  H   UNL     1       5.977   2.421  15.196  0.00  0.00    +0.000 HD
ENDBRANCH   1   8
BRANCH   5  17
ATOM     17  N   UNL     1       1.924   6.662  20.728  0.00  0.00    +0.000 N 
ATOM     18  C   UNL     1       1.706   7.862  20.072  0.00  0.00    +0.000 C 
ATOM     19  O   UNL     1       2.101   8.168  18.950  0.00  0.00    +0.000 OA
ATOM     20  H   UNL     1       1.443   6.561  21.619  0.00  0.00    +0.000 HD
BRANCH  18  21
ATOM     21  C   UNL     1       0.879   8.855  20.831  0.00  0.00    +0.000 A 
ATOM     22  C   UNL     1       0.145   9.803  20.121  0.00  0.00    +0.000 A 
ATOM     23  C   UNL     1      -0.620  10.729  20.828  0.00  0.00    +0.000 A 
ATOM     24  C   UNL     1      -0.616  10.679  22.218  0.00  0.00    +0.000 A 
ATOM     25 CL   UNL     1      -1.542  11.804  23.127  0.00  0.00    +0.000 Cl
ATOM     26  C   UNL     1       0.145   9.704  22.846  0.00  0.00    +0.000 A 
ATOM     27  N   UNL     1       0.896   8.776  22.192  0.00  0.00    +0.000 NA
ENDBRANCH  18  21
ENDBRANCH   5  17
TORSDOF 3
ENDMDL
MODEL 9
REMARK VINA RESULT:      -7.7      2.971      4.388
REMARK  Name = 
REMARK  4 active torsions:
REMARK  status: ('A' for Active; 'I' for Inactive)
REMARK    1  A    between atoms: C_1  and  C_2
REMARK    2  A    between atoms: C_2  and  C_3
REMARK    3  A    between atoms: C_7  and  N_8
REMARK    4  A    between atoms: C_9  and  C_11
REMARK                            x       y       z     vdW  Elec       q    Type
REMARK                         _______ _______ _______ _____ _____    ______ ____
ROOT
ATOM      1  C   UNL     1       3.216   5.113  18.064  0.00  0.00    +0.000 A 
ATOM      2  C   UNL     1       4.362   5.409  17.314  0.00  0.00    +0.000 A 
ATOM      3  C   UNL     1       4.677   6.726  16.988  0.00  0.00    +0.000 A 
ATOM      4  C   UNL     1       3.840   7.771  17.379  0.00  0.00    +0.000 A 
ATOM      5  C   UNL     1       2.669   7.515  18.089  0.00  0.00    +0.000 A 
ATOM      6  C   UNL     1       2.369   6.189  18.431  0.00  0.00    +0.000 A 
ENDROOT
BRANCH   1   8
ATOM      7  C   UNL     1       3.778   2.614  17.821  0.00  0.00    +0.000 C 
ATOM      8  C   UNL     1       2.851   3.672  18.466  0.00  0.00    +0.000 C 
ATOM      9  C   UNL     1       1.388   3.388  18.015  0.00  0.00    +0.000 C 
ATOM     10  O   UNL     1       0.775   2.327  18.752  0.00  0.00    +0.000 OA
ATOM     11  C   UNL     1       0.761   2.660  20.128  0.00  0.00    +0.000 C 
ATOM     12  C   UNL     1       2.149   2.999  20.659  0.00  0.00    +0.000 C 
ATOM     13  N   UNL     1       2.422   2.817  21.984  0.00  0.00    +0.000 N 
ATOM     14  N   UNL     1       3.081   3.506  19.924  0.00  0.00    +0.000 NA
ATOM     15  H   UNL     1       1.661   2.829  22.650  0.00  0.00    +0.000 HD
ATOM     16  H   UNL     1       3.276   3.272  22.288  0.00  0.00    +0.000 HD
ENDBRANCH   1   8
BRANCH   5  17
ATOM     17  N   UNL     1       1.780   8.535  18.493  0.00  0.00    +0.000 N 
ATOM     18  C   UNL     1       1.344   8.786  19.783  0.00  0.00    +0.000 C 
ATOM     19  O   UNL     1       1.702   8.207  20.805  0.00  0.00    +0.000 OA
ATOM     20  H   UNL     1       1.433   9.179  17.785  0.00  0.00    +0.000 HD
BRANCH  18  21
ATOM     21  C   UNL     1       0.351   9.902  19.908  0.00  0.00    +0.000 A 
ATOM     22  C   UNL     1      -0.327  10.331  18.770  0.00  0.00    +0.000 A 
ATOM     23  C   UNL     1      -1.246  11.372  18.887  0.00  0.00    +0.000 A 
ATOM     24  C   UNL     1      -1.447  11.952  20.134  0.00  0.00    +0.000 A 
ATOM     25 CL   UNL     1      -2.568  13.239  20.322  0.00  0.00    +0.000 Cl
ATOM     26  C   UNL     1      -0.727  11.465  21.216  0.00  0.00    +0.000 A 
ATOM     27  N   UNL     1       0.170  10.444  21.146  0.00  0.00    +0.000 NA
ENDBRANCH  18  21
ENDBRANCH   5  17
TORSDOF 3
ENDMDL
