MODEL 1
REMARK VINA RESULT:      -8.1      0.000      0.000
REMARK  Name = 
REMARK  9 active torsions:
REMARK  status: ('A' for Active; 'I' for Inactive)
REMARK    1  A    between atoms: C_1  and  C_2
REMARK    2  A    between atoms: C_4  and  C_5
REMARK    3  A    between atoms: C_7  and  S_8
REMARK    4  A    between atoms: S_8  and  C_11
REMARK    5  A    between atoms: N_13  and  C_14
REMARK    6  A    between atoms: C_14  and  C_15
REMARK    7  A    between atoms: C_15  and  O_17
REMARK    8  A    between atoms: C_21  and  C_22
REMARK    9  A    between atoms: N_24  and  C_25
REMARK                            x       y       z     vdW  Elec       q    Type
REMARK                         _______ _______ _______ _____ _____    ______ ____
ROOT
ATOM      1  C   UNL     1      -1.014  11.822  20.304  0.00  0.00    +0.000 A 
ATOM      2  N   UNL     1      -1.619  12.520  21.282  0.00  0.00    +0.000 NA
ATOM      3  N   UNL     1      -1.455  11.758  22.398  0.00  0.00    +0.000 N 
ATOM      4  C   UNL     1      -0.688  10.633  22.173  0.00  0.00    +0.000 A 
ATOM      5  C   UNL     1      -0.220   9.607  23.010  0.00  0.00    +0.000 A 
ATOM      6  C   UNL     1       0.506   8.562  22.436  0.00  0.00    +0.000 A 
ATOM      7  C   UNL     1       0.806   8.559  21.068  0.00  0.00    +0.000 A 
ATOM      8  C   UNL     1       0.359   9.596  20.243  0.00  0.00    +0.000 A 
ATOM      9  C   UNL     1      -0.404  10.641  20.803  0.00  0.00    +0.000 A 
ENDROOT
BRANCH   7  10
ATOM     10  C   UNL     1       1.565   7.412  20.534  0.00  0.00    +0.000 C 
ATOM     11  O   UNL     1       2.440   7.644  19.712  0.00  0.00    +0.000 OA
ATOM     12  N   UNL     1       1.154   6.155  20.973  0.00  0.00    +0.000 N 
ATOM     13  H   UNL     1       0.265   6.094  21.457  0.00  0.00    +0.000 HD
BRANCH  12  14
ATOM     14  C   UNL     1       1.702   4.942  20.517  0.00  0.00    +0.000 A 
ATOM     15  C   UNL     1       1.635   4.555  19.171  0.00  0.00    +0.000 A 
ATOM     16  C   UNL     1       2.003   3.270  18.785  0.00  0.00    +0.000 A 
ATOM     17  C   UNL     1       2.480   2.374  19.733  0.00  0.00    +0.000 A 
ATOM     18  C   UNL     1       2.648   2.782  21.055  0.00  0.00    +0.000 A 
ATOM     19  C   UNL     1       2.271   4.070  21.446  0.00  0.00    +0.000 A 
ENDBRANCH  12  14
ENDBRANCH   7  10
BRANCH   1  20
ATOM     20  S   UNL     1      -0.902  12.349  18.636  0.00  0.00    +0.000 S 
ATOM     21  O   UNL     1       0.301  11.717  18.127  0.00  0.00    +0.000 OA
ATOM     22  O   UNL     1      -1.027  13.794  18.692  0.00  0.00    +0.000 OA
BRANCH  20  29
ATOM     23  C   UNL     1      -6.042  11.334  18.203  0.00  0.00    +0.000 C 
ATOM     24  C   UNL     1      -4.671  11.276  17.597  0.00  0.00    +0.000 A 
ATOM     25  C   UNL     1      -4.474  10.730  16.320  0.00  0.00    +0.000 A 
ATOM     26  C   UNL     1      -3.197  10.674  15.747  0.00  0.00    +0.000 A 
ATOM     27  C   UNL     1      -2.992  10.106  14.373  0.00  0.00    +0.000 C 
ATOM     28  C   UNL     1      -2.103  11.166  16.469  0.00  0.00    +0.000 A 
ATOM     29  C   UNL     1      -2.289  11.690  17.753  0.00  0.00    +0.000 A 
ATOM     30  C   UNL     1      -3.569  11.768  18.309  0.00  0.00    +0.000 A 
ENDBRANCH  20  29
ENDBRANCH   1  20
BRANCH   3  31
ATOM     31  C   UNL     1      -1.928  12.355  23.643  0.00  0.00    +0.000 C 
BRANCH  31  32
ATOM     32  C   UNL     1      -3.396  12.635  23.816  0.00  0.00    +0.000 C 
ATOM     33  O   UNL     1      -4.226  11.943  24.379  0.00  0.00    +0.000 OA
BRANCH  32  34
ATOM     34  O   UNL     1      -3.758  13.821  23.250  0.00  0.00    +0.000 OA
ATOM     35  H   UNL     1      -3.274  14.074  22.439  0.00  0.00    +0.000 HD
ENDBRANCH  32  34
ENDBRANCH  31  32
ENDBRANCH   3  31
TORSDOF 7
ENDMDL
MODEL 2
REMARK VINA RESULT:      -8.1      2.584      3.404
REMARK  Name = 
REMARK  9 active torsions:
REMARK  status: ('A' for Active; 'I' for Inactive)
REMARK    1  A    between atoms: C_1  and  C_2
REMARK    2  A    between atoms: C_4  and  C_5
REMARK    3  A    between atoms: C_7  and  S_8
REMARK    4  A    between atoms: S_8  and  C_11
REMARK    5  A    between atoms: N_13  and  C_14
REMARK    6  A    between atoms: C_14  and  C_15
REMARK    7  A    between atoms: C_15  and  O_17
REMARK    8  A    between atoms: C_21  and  C_22
REMARK    9  A    between atoms: N_24  and  C_25
REMARK                            x       y       z     vdW  Elec       q    Type
REMARK                         _______ _______ _______ _____ _____    ______ ____
ROOT
ATOM      1  C   UNL     1      -2.232  11.301  18.777  0.00  0.00    +0.000 A 
ATOM      2  N   UNL     1      -2.477  12.288  19.659  0.00  0.00    +0.000 NA
ATOM      3  N   UNL     1      -1.342  12.368  20.406  0.00  0.00    +0.000 N 
ATOM      4  C   UNL     1      -0.349  11.516  19.968  0.00  0.00    +0.000 A 
ATOM      5  C   UNL     1       0.976  11.291  20.381  0.00  0.00    +0.000 A 
ATOM      6  C   UNL     1       1.709  10.291  19.741  0.00  0.00    +0.000 A 
ATOM      7  C   UNL     1       1.160   9.561  18.679  0.00  0.00    +0.000 A 
ATOM      8  C   UNL     1      -0.150   9.805  18.256  0.00  0.00    +0.000 A 
ATOM      9  C   UNL     1      -0.915  10.789  18.914  0.00  0.00    +0.000 A 
ENDROOT
BRANCH   7  10
ATOM     10  C   UNL     1       1.993   8.511  18.064  0.00  0.00    +0.000 C 
ATOM     11  O   UNL     1       2.447   8.726  16.949  0.00  0.00    +0.000 OA
ATOM     12  N   UNL     1       2.122   7.332  18.797  0.00  0.00    +0.000 N 
ATOM     13  H   UNL     1       1.497   7.197  19.583  0.00  0.00    +0.000 HD
BRANCH  12  14
ATOM     14  C   UNL     1       2.810   6.192  18.341  0.00  0.00    +0.000 A 
ATOM     15  C   UNL     1       4.196   6.194  18.129  0.00  0.00    +0.000 A 
ATOM     16  C   UNL     1       4.816   5.124  17.491  0.00  0.00    +0.000 A 
ATOM     17  C   UNL     1       4.063   4.025  17.097  0.00  0.00    +0.000 A 
ATOM     18  C   UNL     1       2.703   3.968  17.396  0.00  0.00    +0.000 A 
ATOM     19  C   UNL     1       2.078   5.045  18.029  0.00  0.00    +0.000 A 
ENDBRANCH  12  14
ENDBRANCH   7  10
BRANCH   1  20
ATOM     20  S   UNL     1      -3.360  10.775  17.543  0.00  0.00    +0.000 S 
ATOM     21  O   UNL     1      -3.440   9.336  17.702  0.00  0.00    +0.000 OA
ATOM     22  O   UNL     1      -2.873  11.371  16.313  0.00  0.00    +0.000 OA
BRANCH  20  29
ATOM     23  C   UNL     1      -7.343  14.046  16.499  0.00  0.00    +0.000 C 
ATOM     24  C   UNL     1      -6.766  12.968  17.370  0.00  0.00    +0.000 A 
ATOM     25  C   UNL     1      -7.486  12.472  18.467  0.00  0.00    +0.000 A 
ATOM     26  C   UNL     1      -6.955  11.464  19.283  0.00  0.00    +0.000 A 
ATOM     27  C   UNL     1      -7.734  10.923  20.446  0.00  0.00    +0.000 C 
ATOM     28  C   UNL     1      -5.683  10.955  18.997  0.00  0.00    +0.000 A 
ATOM     29  C   UNL     1      -4.950  11.462  17.918  0.00  0.00    +0.000 A 
ATOM     30  C   UNL     1      -5.495  12.448  17.091  0.00  0.00    +0.000 A 
ENDBRANCH  20  29
ENDBRANCH   1  20
BRANCH   3  31
ATOM     31  C   UNL     1      -1.302  13.458  21.376  0.00  0.00    +0.000 C 
BRANCH  31  32
ATOM     32  C   UNL     1      -1.068  13.143  22.828  0.00  0.00    +0.000 C 
ATOM     33  O   UNL     1      -1.126  12.055  23.375  0.00  0.00    +0.000 OA
BRANCH  32  34
ATOM     34  O   UNL     1      -0.758  14.259  23.547  0.00  0.00    +0.000 OA
ATOM     35  H   UNL     1      -1.487  14.895  23.686  0.00  0.00    +0.000 HD
ENDBRANCH  32  34
ENDBRANCH  31  32
ENDBRANCH   3  31
TORSDOF 7
ENDMDL
MODEL 3
REMARK VINA RESULT:      -8.0      2.920      3.626
REMARK  Name = 
REMARK  9 active torsions:
REMARK  status: ('A' for Active; 'I' for Inactive)
REMARK    1  A    between atoms: C_1  and  C_2
REMARK    2  A    between atoms: C_4  and  C_5
REMARK    3  A    between atoms: C_7  and  S_8
REMARK    4  A    between atoms: S_8  and  C_11
REMARK    5  A    between atoms: N_13  and  C_14
REMARK    6  A    between atoms: C_14  and  C_15
REMARK    7  A    between atoms: C_15  and  O_17
REMARK    8  A    between atoms: C_21  and  C_22
REMARK    9  A    between atoms: N_24  and  C_25
REMARK                            x       y       z     vdW  Elec       q    Type
REMARK                         _______ _______ _______ _____ _____    ______ ____
ROOT
ATOM      1  C   UNL     1      -2.257  11.344  18.559  0.00  0.00    +0.000 A 
ATOM      2  N   UNL     1      -2.491  12.411  19.345  0.00  0.00    +0.000 NA
ATOM      3  N   UNL     1      -1.334  12.585  20.039  0.00  0.00    +0.000 N 
ATOM      4  C   UNL     1      -0.339  11.709  19.655  0.00  0.00    +0.000 A 
ATOM      5  C   UNL     1       1.002  11.549  20.042  0.00  0.00    +0.000 A 
ATOM      6  C   UNL     1       1.733  10.500  19.481  0.00  0.00    +0.000 A 
ATOM      7  C   UNL     1       1.164   9.657  18.519  0.00  0.00    +0.000 A 
ATOM      8  C   UNL     1      -0.165   9.836  18.119  0.00  0.00    +0.000 A 
ATOM      9  C   UNL     1      -0.926  10.870  18.701  0.00  0.00    +0.000 A 
ENDROOT
BRANCH   7  10
ATOM     10  C   UNL     1       1.996   8.563  17.985  0.00  0.00    +0.000 C 
ATOM     11  O   UNL     1       2.548   8.743  16.908  0.00  0.00    +0.000 OA
ATOM     12  N   UNL     1       2.013   7.390  18.737  0.00  0.00    +0.000 N 
ATOM     13  H   UNL     1       1.320   7.294  19.472  0.00  0.00    +0.000 HD
BRANCH  12  14
ATOM     14  C   UNL     1       2.684   6.215  18.351  0.00  0.00    +0.000 A 
ATOM     15  C   UNL     1       4.075   6.172  18.188  0.00  0.00    +0.000 A 
ATOM     16  C   UNL     1       4.687   5.062  17.614  0.00  0.00    +0.000 A 
ATOM     17  C   UNL     1       3.918   3.968  17.237  0.00  0.00    +0.000 A 
ATOM     18  C   UNL     1       2.547   3.959  17.490  0.00  0.00    +0.000 A 
ATOM     19  C   UNL     1       1.931   5.077  18.059  0.00  0.00    +0.000 A 
ENDBRANCH  12  14
ENDBRANCH   7  10
BRANCH   1  20
ATOM     20  S   UNL     1      -3.415  10.677  17.425  0.00  0.00    +0.000 S 
ATOM     21  O   UNL     1      -3.436   9.254  17.710  0.00  0.00    +0.000 OA
ATOM     22  O   UNL     1      -3.000  11.179  16.129  0.00  0.00    +0.000 OA
BRANCH  20  29
ATOM     23  C   UNL     1      -7.743  10.867  20.404  0.00  0.00    +0.000 C 
ATOM     24  C   UNL     1      -6.969  11.404  19.236  0.00  0.00    +0.000 A 
ATOM     25  C   UNL     1      -7.482  12.452  18.457  0.00  0.00    +0.000 A 
ATOM     26  C   UNL     1      -6.763  12.960  17.367  0.00  0.00    +0.000 A 
ATOM     27  C   UNL     1      -7.306  14.093  16.545  0.00  0.00    +0.000 C 
ATOM     28  C   UNL     1      -5.518  12.402  17.051  0.00  0.00    +0.000 A 
ATOM     29  C   UNL     1      -5.012  11.341  17.810  0.00  0.00    +0.000 A 
ATOM     30  C   UNL     1      -5.720  10.856  18.913  0.00  0.00    +0.000 A 
ENDBRANCH  20  29
ENDBRANCH   1  20
BRANCH   3  31
ATOM     31  C   UNL     1      -1.283  13.769  20.892  0.00  0.00    +0.000 C 
BRANCH  31  32
ATOM     32  C   UNL     1      -0.701  15.045  20.347  0.00  0.00    +0.000 C 
ATOM     33  O   UNL     1      -0.062  15.890  20.949  0.00  0.00    +0.000 OA
BRANCH  32  34
ATOM     34  O   UNL     1      -0.963  15.197  19.018  0.00  0.00    +0.000 OA
ATOM     35  H   UNL     1      -1.092  16.115  18.710  0.00  0.00    +0.000 HD
ENDBRANCH  32  34
ENDBRANCH  31  32
ENDBRANCH   3  31
TORSDOF 7
ENDMDL
MODEL 4
REMARK VINA RESULT:      -7.9      0.216      1.517
REMARK  Name = 
REMARK  9 active torsions:
REMARK  status: ('A' for Active; 'I' for Inactive)
REMARK    1  A    between atoms: C_1  and  C_2
REMARK    2  A    between atoms: C_4  and  C_5
REMARK    3  A    between atoms: C_7  and  S_8
REMARK    4  A    between atoms: S_8  and  C_11
REMARK    5  A    between atoms: N_13  and  C_14
REMARK    6  A    between atoms: C_14  and  C_15
REMARK    7  A    between atoms: C_15  and  O_17
REMARK    8  A    between atoms: C_21  and  C_22
REMARK    9  A    between atoms: N_24  and  C_25
REMARK                            x       y       z     vdW  Elec       q    Type
REMARK                         _______ _______ _______ _____ _____    ______ ____
ROOT
ATOM      1  C   UNL     1      -0.876  11.866  20.252  0.00  0.00    +0.000 A 
ATOM      2  N   UNL     1      -1.443  12.604  21.224  0.00  0.00    +0.000 NA
ATOM      3  N   UNL     1      -1.277  11.866  22.355  0.00  0.00    +0.000 N 
ATOM      4  C   UNL     1      -0.544  10.716  22.145  0.00  0.00    +0.000 A 
ATOM      5  C   UNL     1      -0.086   9.698  22.998  0.00  0.00    +0.000 A 
ATOM      6  C   UNL     1       0.600   8.621  22.437  0.00  0.00    +0.000 A 
ATOM      7  C   UNL     1       0.872   8.575  21.064  0.00  0.00    +0.000 A 
ATOM      8  C   UNL     1       0.436   9.602  20.222  0.00  0.00    +0.000 A 
ATOM      9  C   UNL     1      -0.288  10.681  20.769  0.00  0.00    +0.000 A 
ENDROOT
BRANCH   7  10
ATOM     10  C   UNL     1       1.589   7.395  20.545  0.00  0.00    +0.000 C 
ATOM     11  O   UNL     1       2.500   7.588  19.752  0.00  0.00    +0.000 OA
ATOM     12  N   UNL     1       1.102   6.157  20.961  0.00  0.00    +0.000 N 
ATOM     13  H   UNL     1       0.197   6.138  21.416  0.00  0.00    +0.000 HD
BRANCH  12  14
ATOM     14  C   UNL     1       1.604   4.921  20.512  0.00  0.00    +0.000 A 
ATOM     15  C   UNL     1       1.456   4.496  19.184  0.00  0.00    +0.000 A 
ATOM     16  C   UNL     1       1.780   3.194  18.818  0.00  0.00    +0.000 A 
ATOM     17  C   UNL     1       2.293   2.318  19.765  0.00  0.00    +0.000 A 
ATOM     18  C   UNL     1       2.541   2.761  21.063  0.00  0.00    +0.000 A 
ATOM     19  C   UNL     1       2.209   4.067  21.434  0.00  0.00    +0.000 A 
ENDBRANCH  12  14
ENDBRANCH   7  10
BRANCH   1  20
ATOM     20  S   UNL     1      -0.784  12.348  18.570  0.00  0.00    +0.000 S 
ATOM     21  O   UNL     1       0.389  11.669  18.053  0.00  0.00    +0.000 OA
ATOM     22  O   UNL     1      -0.868  13.796  18.591  0.00  0.00    +0.000 OA
BRANCH  20  29
ATOM     23  C   UNL     1      -3.071  10.121  14.392  0.00  0.00    +0.000 C 
ATOM     24  C   UNL     1      -3.200  10.653  15.790  0.00  0.00    +0.000 A 
ATOM     25  C   UNL     1      -4.433  10.621  16.457  0.00  0.00    +0.000 A 
ATOM     26  C   UNL     1      -4.559  11.113  17.763  0.00  0.00    +0.000 A 
ATOM     27  C   UNL     1      -5.875  11.063  18.482  0.00  0.00    +0.000 C 
ATOM     28  C   UNL     1      -3.435  11.650  18.402  0.00  0.00    +0.000 A 
ATOM     29  C   UNL     1      -2.207  11.706  17.732  0.00  0.00    +0.000 A 
ATOM     30  C   UNL     1      -2.080  11.189  16.439  0.00  0.00    +0.000 A 
ENDBRANCH  20  29
ENDBRANCH   1  20
BRANCH   3  31
ATOM     31  C   UNL     1      -1.708  12.507  23.594  0.00  0.00    +0.000 C 
BRANCH  31  32
ATOM     32  C   UNL     1      -3.175  12.742  23.830  0.00  0.00    +0.000 C 
ATOM     33  O   UNL     1      -4.044  11.908  24.016  0.00  0.00    +0.000 OA
BRANCH  32  34
ATOM     34  O   UNL     1      -3.485  14.069  23.823  0.00  0.00    +0.000 OA
ATOM     35  H   UNL     1      -3.015  14.615  23.163  0.00  0.00    +0.000 HD
ENDBRANCH  32  34
ENDBRANCH  31  32
ENDBRANCH   3  31
TORSDOF 7
ENDMDL
MODEL 5
REMARK VINA RESULT:      -7.9      1.455      2.344
REMARK  Name = 
REMARK  9 active torsions:
REMARK  status: ('A' for Active; 'I' for Inactive)
REMARK    1  A    between atoms: C_1  and  C_2
REMARK    2  A    between atoms: C_4  and  C_5
REMARK    3  A    between atoms: C_7  and  S_8
REMARK    4  A    between atoms: S_8  and  C_11
REMARK    5  A    between atoms: N_13  and  C_14
REMARK    6  A    between atoms: C_14  and  C_15
REMARK    7  A    between atoms: C_15  and  O_17
REMARK    8  A    between atoms: C_21  and  C_22
REMARK    9  A    between atoms: N_24  and  C_25
REMARK                            x       y       z     vdW  Elec       q    Type
REMARK                         _______ _______ _______ _____ _____    ______ ____
ROOT
ATOM      1  C   UNL     1      -1.004  11.833  20.301  0.00  0.00    +0.000 A 
ATOM      2  N   UNL     1      -1.613  12.463  21.322  0.00  0.00    +0.000 NA
ATOM      3  N   UNL     1      -1.419  11.646  22.393  0.00  0.00    +0.000 N 
ATOM      4  C   UNL     1      -0.630  10.552  22.099  0.00  0.00    +0.000 A 
ATOM      5  C   UNL     1      -0.129   9.493  22.873  0.00  0.00    +0.000 A 
ATOM      6  C   UNL     1       0.612   8.497  22.235  0.00  0.00    +0.000 A 
ATOM      7  C   UNL     1       0.896   8.575  20.866  0.00  0.00    +0.000 A 
ATOM      8  C   UNL     1       0.416   9.645  20.104  0.00  0.00    +0.000 A 
ATOM      9  C   UNL     1      -0.363  10.641  20.728  0.00  0.00    +0.000 A 
ENDROOT
BRANCH   7  10
ATOM     10  C   UNL     1       1.673   7.476  20.262  0.00  0.00    +0.000 C 
ATOM     11  O   UNL     1       2.029   6.563  20.994  0.00  0.00    +0.000 OA
ATOM     12  N   UNL     1       1.989   7.627  18.913  0.00  0.00    +0.000 N 
ATOM     13  H   UNL     1       1.844   8.540  18.496  0.00  0.00    +0.000 HD
BRANCH  12  14
ATOM     14  C   UNL     1       2.787   6.725  18.184  0.00  0.00    +0.000 A 
ATOM     15  C   UNL     1       2.464   5.366  18.076  0.00  0.00    +0.000 A 
ATOM     16  C   UNL     1       3.369   4.465  17.524  0.00  0.00    +0.000 A 
ATOM     17  C   UNL     1       4.588   4.921  17.038  0.00  0.00    +0.000 A 
ATOM     18  C   UNL     1       4.875   6.285  17.048  0.00  0.00    +0.000 A 
ATOM     19  C   UNL     1       3.970   7.190  17.609  0.00  0.00    +0.000 A 
ENDBRANCH  12  14
ENDBRANCH   7  10
BRANCH   1  20
ATOM     20  S   UNL     1      -0.924  12.452  18.663  0.00  0.00    +0.000 S 
ATOM     21  O   UNL     1       0.294  11.888  18.112  0.00  0.00    +0.000 OA
ATOM     22  O   UNL     1      -1.096  13.887  18.798  0.00  0.00    +0.000 OA
BRANCH  20  29
ATOM     23  C   UNL     1      -2.957  10.090  14.428  0.00  0.00    +0.000 C 
ATOM     24  C   UNL     1      -3.172  10.679  15.793  0.00  0.00    +0.000 A 
ATOM     25  C   UNL     1      -4.447  10.690  16.375  0.00  0.00    +0.000 A 
ATOM     26  C   UNL     1      -4.654  11.235  17.649  0.00  0.00    +0.000 A 
ATOM     27  C   UNL     1      -6.017  11.230  18.279  0.00  0.00    +0.000 C 
ATOM     28  C   UNL     1      -3.568  11.783  18.342  0.00  0.00    +0.000 A 
ATOM     29  C   UNL     1      -2.297  11.796  17.756  0.00  0.00    +0.000 A 
ATOM     30  C   UNL     1      -2.091  11.227  16.496  0.00  0.00    +0.000 A 
ENDBRANCH  20  29
ENDBRANCH   1  20
BRANCH   3  31
ATOM     31  C   UNL     1      -1.889  12.164  23.674  0.00  0.00    +0.000 C 
BRANCH  31  32
ATOM     32  C   UNL     1      -3.333  12.560  23.823  0.00  0.00    +0.000 C 
ATOM     33  O   UNL     1      -4.227  11.933  24.365  0.00  0.00    +0.000 OA
BRANCH  32  34
ATOM     34  O   UNL     1      -3.587  13.776  23.263  0.00  0.00    +0.000 OA
ATOM     35  H   UNL     1      -4.332  14.278  23.648  0.00  0.00    +0.000 HD
ENDBRANCH  32  34
ENDBRANCH  31  32
ENDBRANCH   3  31
TORSDOF 7
ENDMDL
MODEL 6
REMARK VINA RESULT:      -7.9      0.984      1.898
REMARK  Name = 
REMARK  9 active torsions:
REMARK  status: ('A' for Active; 'I' for Inactive)
REMARK    1  A    between atoms: C_1  and  C_2
REMARK    2  A    between atoms: C_4  and  C_5
REMARK    3  A    between atoms: C_7  and  S_8
REMARK    4  A    between atoms: S_8  and  C_11
REMARK    5  A    between atoms: N_13  and  C_14
REMARK    6  A    between atoms: C_14  and  C_15
REMARK    7  A    between atoms: C_15  and  O_17
REMARK    8  A    between atoms: C_21  and  C_22
REMARK    9  A    between atoms: N_24  and  C_25
REMARK                            x       y       z     vdW  Elec       q    Type
REMARK                         _______ _______ _______ _____ _____    ______ ____
ROOT
ATOM      1  C   UNL     1      -0.970  11.735  20.202  0.00  0.00    +0.000 A 
ATOM      2  N   UNL     1      -1.599  12.253  21.273  0.00  0.00    +0.000 NA
ATOM      3  N   UNL     1      -1.326  11.383  22.283  0.00  0.00    +0.000 N 
ATOM      4  C   UNL     1      -0.469  10.370  21.904  0.00  0.00    +0.000 A 
ATOM      5  C   UNL     1       0.120   9.300  22.599  0.00  0.00    +0.000 A 
ATOM      6  C   UNL     1       0.915   8.403  21.884  0.00  0.00    +0.000 A 
ATOM      7  C   UNL     1       1.163   8.589  20.519  0.00  0.00    +0.000 A 
ATOM      8  C   UNL     1       0.594   9.670  19.837  0.00  0.00    +0.000 A 
ATOM      9  C   UNL     1      -0.238  10.565  20.538  0.00  0.00    +0.000 A 
ENDROOT
BRANCH   7  10
ATOM     10  C   UNL     1       2.002   7.590  19.830  0.00  0.00    +0.000 C 
ATOM     11  O   UNL     1       2.473   7.895  18.743  0.00  0.00    +0.000 OA
ATOM     12  N   UNL     1       2.116   6.354  20.464  0.00  0.00    +0.000 N 
ATOM     13  H   UNL     1       1.479   6.156  21.227  0.00  0.00    +0.000 HD
BRANCH  12  14
ATOM     14  C   UNL     1       2.806   5.252  19.924  0.00  0.00    +0.000 A 
ATOM     15  C   UNL     1       4.182   5.294  19.659  0.00  0.00    +0.000 A 
ATOM     16  C   UNL     1       4.796   4.270  18.944  0.00  0.00    +0.000 A 
ATOM     17  C   UNL     1       4.050   3.177  18.525  0.00  0.00    +0.000 A 
ATOM     18  C   UNL     1       2.704   3.077  18.873  0.00  0.00    +0.000 A 
ATOM     19  C   UNL     1       2.084   4.108  19.584  0.00  0.00    +0.000 A 
ENDBRANCH  12  14
ENDBRANCH   7  10
BRANCH   1  20
ATOM     20  S   UNL     1      -0.968  12.463  18.608  0.00  0.00    +0.000 S 
ATOM     21  O   UNL     1       0.260  12.000  17.989  0.00  0.00    +0.000 OA
ATOM     22  O   UNL     1      -1.207  13.875  18.842  0.00  0.00    +0.000 OA
BRANCH  20  29
ATOM     23  C   UNL     1      -2.962  10.071  14.372  0.00  0.00    +0.000 C 
ATOM     24  C   UNL     1      -3.189  10.666  15.731  0.00  0.00    +0.000 A 
ATOM     25  C   UNL     1      -4.469  10.677  16.304  0.00  0.00    +0.000 A 
ATOM     26  C   UNL     1      -4.687  11.229  17.573  0.00  0.00    +0.000 A 
ATOM     27  C   UNL     1      -6.054  11.224  18.192  0.00  0.00    +0.000 C 
ATOM     28  C   UNL     1      -3.607  11.784  18.270  0.00  0.00    +0.000 A 
ATOM     29  C   UNL     1      -2.332  11.797  17.694  0.00  0.00    +0.000 A 
ATOM     30  C   UNL     1      -2.115  11.221  16.439  0.00  0.00    +0.000 A 
ENDBRANCH  20  29
ENDBRANCH   1  20
BRANCH   3  31
ATOM     31  C   UNL     1      -1.804  11.782  23.604  0.00  0.00    +0.000 C 
BRANCH  31  32
ATOM     32  C   UNL     1      -2.969  12.727  23.711  0.00  0.00    +0.000 C 
ATOM     33  O   UNL     1      -2.997  13.820  24.250  0.00  0.00    +0.000 OA
BRANCH  32  34
ATOM     34  O   UNL     1      -4.085  12.229  23.109  0.00  0.00    +0.000 OA
ATOM     35  H   UNL     1      -4.939  12.571  23.439  0.00  0.00    +0.000 HD
ENDBRANCH  32  34
ENDBRANCH  31  32
ENDBRANCH   3  31
TORSDOF 7
ENDMDL
MODEL 7
REMARK VINA RESULT:      -7.9      2.452      3.136
REMARK  Name = 
REMARK  9 active torsions:
REMARK  status: ('A' for Active; 'I' for Inactive)
REMARK    1  A    between atoms: C_1  and  C_2
REMARK    2  A    between atoms: C_4  and  C_5
REMARK    3  A    between atoms: C_7  and  S_8
REMARK    4  A    between atoms: S_8  and  C_11
REMARK    5  A    between atoms: N_13  and  C_14
REMARK    6  A    between atoms: C_14  and  C_15
REMARK    7  A    between atoms: C_15  and  O_17
REMARK    8  A    between atoms: C_21  and  C_22
REMARK    9  A    between atoms: N_24  and  C_25
REMARK                            x       y       z     vdW  Elec       q    Type
REMARK                         _______ _______ _______ _____ _____    ______ ____
ROOT
ATOM      1  C   UNL     1      -2.225  11.344  18.804  0.00  0.00    +0.000 A 
ATOM      2  N   UNL     1      -2.483  12.380  19.623  0.00  0.00    +0.000 NA
ATOM      3  N   UNL     1      -1.373  12.482  20.404  0.00  0.00    +0.000 N 
ATOM      4  C   UNL     1      -0.380  11.593  20.047  0.00  0.00    +0.000 A 
ATOM      5  C   UNL     1       0.925  11.370  20.517  0.00  0.00    +0.000 A 
ATOM      6  C   UNL     1       1.663  10.327  19.956  0.00  0.00    +0.000 A 
ATOM      7  C   UNL     1       1.139   9.550  18.916  0.00  0.00    +0.000 A 
ATOM      8  C   UNL     1      -0.152   9.791  18.435  0.00  0.00    +0.000 A 
ATOM      9  C   UNL     1      -0.922  10.820  19.013  0.00  0.00    +0.000 A 
ENDROOT
BRANCH   7  10
ATOM     10  C   UNL     1       1.974   8.456  18.386  0.00  0.00    +0.000 C 
ATOM     11  O   UNL     1       2.428   8.583  17.257  0.00  0.00    +0.000 OA
ATOM     12  N   UNL     1       2.106   7.340  19.210  0.00  0.00    +0.000 N 
ATOM     13  H   UNL     1       1.481   7.266  20.005  0.00  0.00    +0.000 HD
BRANCH  12  14
ATOM     14  C   UNL     1       2.797   6.169  18.846  0.00  0.00    +0.000 A 
ATOM     15  C   UNL     1       4.122   5.935  19.238  0.00  0.00    +0.000 A 
ATOM     16  C   UNL     1       4.842   4.872  18.700  0.00  0.00    +0.000 A 
ATOM     17  C   UNL     1       4.231   4.010  17.800  0.00  0.00    +0.000 A 
ATOM     18  C   UNL     1       2.882   4.173  17.484  0.00  0.00    +0.000 A 
ATOM     19  C   UNL     1       2.161   5.244  18.017  0.00  0.00    +0.000 A 
ENDBRANCH  12  14
ENDBRANCH   7  10
BRANCH   1  20
ATOM     20  S   UNL     1      -3.319  10.771  17.560  0.00  0.00    +0.000 S 
ATOM     21  O   UNL     1      -3.354   9.331  17.731  0.00  0.00    +0.000 OA
ATOM     22  O   UNL     1      -2.835  11.371  16.331  0.00  0.00    +0.000 OA
BRANCH  20  29
ATOM     23  C   UNL     1      -7.699  10.919  20.466  0.00  0.00    +0.000 C 
ATOM     24  C   UNL     1      -6.916  11.453  19.302  0.00  0.00    +0.000 A 
ATOM     25  C   UNL     1      -7.438  12.477  18.497  0.00  0.00    +0.000 A 
ATOM     26  C   UNL     1      -6.712  12.982  17.411  0.00  0.00    +0.000 A 
ATOM     27  C   UNL     1      -7.265  14.090  16.562  0.00  0.00    +0.000 C 
ATOM     28  C   UNL     1      -5.451  12.446  17.124  0.00  0.00    +0.000 A 
ATOM     29  C   UNL     1      -4.936  11.408  17.909  0.00  0.00    +0.000 A 
ATOM     30  C   UNL     1      -5.652  10.926  19.008  0.00  0.00    +0.000 A 
ENDBRANCH  20  29
ENDBRANCH   1  20
BRANCH   3  31
ATOM     31  C   UNL     1      -1.348  13.621  21.317  0.00  0.00    +0.000 C 
BRANCH  31  32
ATOM     32  C   UNL     1      -1.494  13.384  22.795  0.00  0.00    +0.000 C 
ATOM     33  O   UNL     1      -0.929  13.968  23.704  0.00  0.00    +0.000 OA
BRANCH  32  34
ATOM     34  O   UNL     1      -2.383  12.387  23.065  0.00  0.00    +0.000 OA
ATOM     35  H   UNL     1      -3.251  12.455  22.621  0.00  0.00    +0.000 HD
ENDBRANCH  32  34
ENDBRANCH  31  32
ENDBRANCH   3  31
TORSDOF 7
ENDMDL
MODEL 8
REMARK VINA RESULT:      -7.9      2.497      3.130
REMARK  Name = 
REMARK  9 active torsions:
REMARK  status: ('A' for Active; 'I' for Inactive)
REMARK    1  A    between atoms: C_1  and  C_2
REMARK    2  A    between atoms: C_4  and  C_5
REMARK    3  A    between atoms: C_7  and  S_8
REMARK    4  A    between atoms: S_8  and  C_11
REMARK    5  A    between atoms: N_13  and  C_14
REMARK    6  A    between atoms: C_14  and  C_15
REMARK    7  A    between atoms: C_15  and  O_17
REMARK    8  A    between atoms: C_21  and  C_22
REMARK    9  A    between atoms: N_24  and  C_25
REMARK                            x       y       z     vdW  Elec       q    Type
REMARK                         _______ _______ _______ _____ _____    ______ ____
ROOT
ATOM      1  C   UNL     1      -2.258  11.366  18.750  0.00  0.00    +0.000 A 
ATOM      2  N   UNL     1      -2.513  12.410  19.561  0.00  0.00    +0.000 NA
ATOM      3  N   UNL     1      -1.395  12.530  20.326  0.00  0.00    +0.000 N 
ATOM      4  C   UNL     1      -0.400  11.643  19.967  0.00  0.00    +0.000 A 
ATOM      5  C   UNL     1       0.913  11.436  20.424  0.00  0.00    +0.000 A 
ATOM      6  C   UNL     1       1.651  10.391  19.866  0.00  0.00    +0.000 A 
ATOM      7  C   UNL     1       1.120   9.598  18.842  0.00  0.00    +0.000 A 
ATOM      8  C   UNL     1      -0.179   9.824  18.374  0.00  0.00    +0.000 A 
ATOM      9  C   UNL     1      -0.949  10.855  18.950  0.00  0.00    +0.000 A 
ENDROOT
BRANCH   7  10
ATOM     10  C   UNL     1       1.956   8.504  18.315  0.00  0.00    +0.000 C 
ATOM     11  O   UNL     1       2.437   8.643  17.199  0.00  0.00    +0.000 OA
ATOM     12  N   UNL     1       2.058   7.374  19.125  0.00  0.00    +0.000 N 
ATOM     13  H   UNL     1       1.414   7.295  19.903  0.00  0.00    +0.000 HD
BRANCH  12  14
ATOM     14  C   UNL     1       2.746   6.201  18.759  0.00  0.00    +0.000 A 
ATOM     15  C   UNL     1       2.187   5.251  17.893  0.00  0.00    +0.000 A 
ATOM     16  C   UNL     1       2.799   4.015  17.709  0.00  0.00    +0.000 A 
ATOM     17  C   UNL     1       3.995   3.734  18.357  0.00  0.00    +0.000 A 
ATOM     18  C   UNL     1       4.611   4.710  19.138  0.00  0.00    +0.000 A 
ATOM     19  C   UNL     1       3.994   5.949  19.330  0.00  0.00    +0.000 A 
ENDBRANCH  12  14
ENDBRANCH   7  10
BRANCH   1  20
ATOM     20  S   UNL     1      -3.363  10.770  17.528  0.00  0.00    +0.000 S 
ATOM     21  O   UNL     1      -3.398   9.334  17.727  0.00  0.00    +0.000 OA
ATOM     22  O   UNL     1      -2.890  11.347  16.283  0.00  0.00    +0.000 OA
BRANCH  20  29
ATOM     23  C   UNL     1      -7.732  10.955  20.448  0.00  0.00    +0.000 C 
ATOM     24  C   UNL     1      -6.952  11.478  19.277  0.00  0.00    +0.000 A 
ATOM     25  C   UNL     1      -7.473  12.498  18.467  0.00  0.00    +0.000 A 
ATOM     26  C   UNL     1      -6.749  12.993  17.375  0.00  0.00    +0.000 A 
ATOM     27  C   UNL     1      -7.300  14.097  16.520  0.00  0.00    +0.000 C 
ATOM     28  C   UNL     1      -5.491  12.450  17.087  0.00  0.00    +0.000 A 
ATOM     29  C   UNL     1      -4.976  11.416  17.877  0.00  0.00    +0.000 A 
ATOM     30  C   UNL     1      -5.690  10.944  18.982  0.00  0.00    +0.000 A 
ENDBRANCH  20  29
ENDBRANCH   1  20
BRANCH   3  31
ATOM     31  C   UNL     1      -1.367  13.680  21.225  0.00  0.00    +0.000 C 
BRANCH  31  32
ATOM     32  C   UNL     1      -2.538  14.623  21.251  0.00  0.00    +0.000 C 
ATOM     33  O   UNL     1      -3.357  14.771  22.141  0.00  0.00    +0.000 OA
BRANCH  32  34
ATOM     34  O   UNL     1      -2.620  15.365  20.110  0.00  0.00    +0.000 OA
ATOM     35  H   UNL     1      -3.236  16.123  20.136  0.00  0.00    +0.000 HD
ENDBRANCH  32  34
ENDBRANCH  31  32
ENDBRANCH   3  31
TORSDOF 7
ENDMDL
MODEL 9
REMARK VINA RESULT:      -7.8      2.596      3.454
REMARK  Name = 
REMARK  9 active torsions:
REMARK  status: ('A' for Active; 'I' for Inactive)
REMARK    1  A    between atoms: C_1  and  C_2
REMARK    2  A    between atoms: C_4  and  C_5
REMARK    3  A    between atoms: C_7  and  S_8
REMARK    4  A    between atoms: S_8  and  C_11
REMARK    5  A    between atoms: N_13  and  C_14
REMARK    6  A    between atoms: C_14  and  C_15
REMARK    7  A    between atoms: C_15  and  O_17
REMARK    8  A    between atoms: C_21  and  C_22
REMARK    9  A    between atoms: N_24  and  C_25
REMARK                            x       y       z     vdW  Elec       q    Type
REMARK                         _______ _______ _______ _____ _____    ______ ____
ROOT
ATOM      1  C   UNL     1      -2.274  11.347  18.768  0.00  0.00    +0.000 A 
ATOM      2  N   UNL     1      -2.517  12.343  19.641  0.00  0.00    +0.000 NA
ATOM      3  N   UNL     1      -1.377  12.436  20.378  0.00  0.00    +0.000 N 
ATOM      4  C   UNL     1      -0.384  11.583  19.943  0.00  0.00    +0.000 A 
ATOM      5  C   UNL     1       0.945  11.369  20.349  0.00  0.00    +0.000 A 
ATOM      6  C   UNL     1       1.678  10.364  19.715  0.00  0.00    +0.000 A 
ATOM      7  C   UNL     1       1.125   9.620  18.666  0.00  0.00    +0.000 A 
ATOM      8  C   UNL     1      -0.190   9.854  18.249  0.00  0.00    +0.000 A 
ATOM      9  C   UNL     1      -0.954  10.842  18.902  0.00  0.00    +0.000 A 
ENDROOT
BRANCH   7  10
ATOM     10  C   UNL     1       1.958   8.567  18.057  0.00  0.00    +0.000 C 
ATOM     11  O   UNL     1       2.480   8.809  16.978  0.00  0.00    +0.000 OA
ATOM     12  N   UNL     1       2.009   7.358  18.748  0.00  0.00    +0.000 N 
ATOM     13  H   UNL     1       1.336   7.214  19.493  0.00  0.00    +0.000 HD
BRANCH  12  14
ATOM     14  C   UNL     1       2.685   6.213  18.287  0.00  0.00    +0.000 A 
ATOM     15  C   UNL     1       2.002   5.060  17.877  0.00  0.00    +0.000 A 
ATOM     16  C   UNL     1       2.695   3.881  17.619  0.00  0.00    +0.000 A 
ATOM     17  C   UNL     1       4.079   3.856  17.727  0.00  0.00    +0.000 A 
ATOM     18  C   UNL     1       4.775   5.024  18.033  0.00  0.00    +0.000 A 
ATOM     19  C   UNL     1       4.080   6.206  18.300  0.00  0.00    +0.000 A 
ENDBRANCH  12  14
ENDBRANCH   7  10
BRANCH   1  20
ATOM     20  S   UNL     1      -3.409  10.803  17.549  0.00  0.00    +0.000 S 
ATOM     21  O   UNL     1      -3.495   9.367  17.736  0.00  0.00    +0.000 OA
ATOM     22  O   UNL     1      -2.922  11.371  16.306  0.00  0.00    +0.000 OA
BRANCH  20  29
ATOM     23  C   UNL     1      -7.366  14.091  16.466  0.00  0.00    +0.000 C 
ATOM     24  C   UNL     1      -6.799  13.018  17.349  0.00  0.00    +0.000 A 
ATOM     25  C   UNL     1      -7.523  12.538  18.450  0.00  0.00    +0.000 A 
ATOM     26  C   UNL     1      -7.001  11.535  19.276  0.00  0.00    +0.000 A 
ATOM     27  C   UNL     1      -7.785  11.011  20.444  0.00  0.00    +0.000 C 
ATOM     28  C   UNL     1      -5.732  11.013  18.998  0.00  0.00    +0.000 A 
ATOM     29  C   UNL     1      -4.994  11.504  17.915  0.00  0.00    +0.000 A 
ATOM     30  C   UNL     1      -5.531  12.486  17.077  0.00  0.00    +0.000 A 
ENDBRANCH  20  29
ENDBRANCH   1  20
BRANCH   3  31
ATOM     31  C   UNL     1      -1.335  13.537  21.336  0.00  0.00    +0.000 C 
BRANCH  31  32
ATOM     32  C   UNL     1      -2.273  14.700  21.163  0.00  0.00    +0.000 C 
ATOM     33  O   UNL     1      -3.087  15.128  21.963  0.00  0.00    +0.000 OA
BRANCH  32  34
ATOM     34  O   UNL     1      -2.131  15.292  19.944  0.00  0.00    +0.000 OA
ATOM     35  H   UNL     1      -2.249  16.262  19.922  0.00  0.00    +0.000 HD
ENDBRANCH  32  34
ENDBRANCH  31  32
ENDBRANCH   3  31
TORSDOF 7
ENDMDL
