MODEL 1
REMARK VINA RESULT:      -5.7      0.000      0.000
REMARK  Name = 
REMARK  6 active torsions:
REMARK  status: ('A' for Active; 'I' for Inactive)
REMARK    1  A    between atoms: C_1  and  O_2
REMARK    2  A    between atoms: O_2  and  C_3
REMARK    3  A    between atoms: C_6  and  C_7
REMARK    4  A    between atoms: C_8  and  C_9
REMARK    5  A    between atoms: C_12  and  O_13
REMARK    6  A    between atoms: O_13  and  C_14
REMARK                            x       y       z     vdW  Elec       q    Type
REMARK                         _______ _______ _______ _____ _____    ______ ____
ROOT
ATOM      1  C   UNL     1       1.804   3.748  19.376  0.00  0.00    +0.000 A 
ATOM      2  C   UNL     1       2.027   2.683  18.491  0.00  0.00    +0.000 A 
ATOM      3  C   UNL     1       2.958   2.790  17.454  0.00  0.00    +0.000 A 
ATOM      4  C   UNL     1       3.655   3.981  17.249  0.00  0.00    +0.000 A 
ATOM      5  C   UNL     1       3.393   5.059  18.103  0.00  0.00    +0.000 A 
ATOM      6  C   UNL     1       2.466   4.965  19.155  0.00  0.00    +0.000 A 
ENDROOT
BRANCH   1   8
ATOM      7  C   UNL     1       1.345   2.800  21.501  0.00  0.00    +0.000 C 
ATOM      8  O   UNL     1       0.929   3.632  20.421  0.00  0.00    +0.000 OA
ENDBRANCH   1   8
BRANCH   4   9
ATOM      9  C   UNL     1       4.678   4.044  16.195  0.00  0.00    +0.000 C 
ATOM     10  C   UNL     1       5.890   4.590  16.367  0.00  0.00    +0.000 C 
BRANCH  10  11
ATOM     11  C   UNL     1       6.867   4.594  15.263  0.00  0.00    +0.000 C 
ATOM     12  O   UNL     1       7.652   5.521  15.105  0.00  0.00    +0.000 OA
ENDBRANCH  10  11
ENDBRANCH   4   9
BRANCH   6  13
ATOM     13  O   UNL     1       2.367   6.139  19.854  0.00  0.00    +0.000 OA
ATOM     14  C   UNL     1       2.380   7.370  19.148  0.00  0.00    +0.000 C 
ENDBRANCH   6  13
TORSDOF 4
ENDMDL
MODEL 2
REMARK VINA RESULT:      -5.6      1.490      2.788
REMARK  Name = 
REMARK  6 active torsions:
REMARK  status: ('A' for Active; 'I' for Inactive)
REMARK    1  A    between atoms: C_1  and  O_2
REMARK    2  A    between atoms: O_2  and  C_3
REMARK    3  A    between atoms: C_6  and  C_7
REMARK    4  A    between atoms: C_8  and  C_9
REMARK    5  A    between atoms: C_12  and  O_13
REMARK    6  A    between atoms: O_13  and  C_14
REMARK                            x       y       z     vdW  Elec       q    Type
REMARK                         _______ _______ _______ _____ _____    ______ ____
ROOT
ATOM      1  C   UNL     1       2.593   5.020  18.603  0.00  0.00    +0.000 A 
ATOM      2  C   UNL     1       3.254   6.241  18.399  0.00  0.00    +0.000 A 
ATOM      3  C   UNL     1       4.286   6.354  17.462  0.00  0.00    +0.000 A 
ATOM      4  C   UNL     1       4.713   5.238  16.741  0.00  0.00    +0.000 A 
ATOM      5  C   UNL     1       4.085   4.011  16.984  0.00  0.00    +0.000 A 
ATOM      6  C   UNL     1       3.041   3.882  17.916  0.00  0.00    +0.000 A 
ENDROOT
BRANCH   1   8
ATOM      7  C   UNL     1       1.895   4.596  20.829  0.00  0.00    +0.000 C 
ATOM      8  O   UNL     1       1.551   4.916  19.483  0.00  0.00    +0.000 OA
ENDBRANCH   1   8
BRANCH   4   9
ATOM      9  C   UNL     1       5.752   5.401  15.713  0.00  0.00    +0.000 C 
ATOM     10  C   UNL     1       5.956   4.526  14.718  0.00  0.00    +0.000 C 
BRANCH  10  11
ATOM     11  C   UNL     1       7.008   4.775  13.716  0.00  0.00    +0.000 C 
ATOM     12  O   UNL     1       7.946   5.530  13.946  0.00  0.00    +0.000 OA
ENDBRANCH  10  11
ENDBRANCH   4   9
BRANCH   6  13
ATOM     13  O   UNL     1       2.582   2.593  17.993  0.00  0.00    +0.000 OA
ATOM     14  C   UNL     1       3.488   1.555  18.329  0.00  0.00    +0.000 C 
ENDBRANCH   6  13
TORSDOF 4
ENDMDL
MODEL 3
REMARK VINA RESULT:      -5.6      1.764      5.859
REMARK  Name = 
REMARK  6 active torsions:
REMARK  status: ('A' for Active; 'I' for Inactive)
REMARK    1  A    between atoms: C_1  and  O_2
REMARK    2  A    between atoms: O_2  and  C_3
REMARK    3  A    between atoms: C_6  and  C_7
REMARK    4  A    between atoms: C_8  and  C_9
REMARK    5  A    between atoms: C_12  and  O_13
REMARK    6  A    between atoms: O_13  and  C_14
REMARK                            x       y       z     vdW  Elec       q    Type
REMARK                         _______ _______ _______ _____ _____    ______ ____
ROOT
ATOM      1  C   UNL     1       6.480   4.515  16.325  0.00  0.00    +0.000 A 
ATOM      2  C   UNL     1       5.195   4.232  15.839  0.00  0.00    +0.000 A 
ATOM      3  C   UNL     1       4.117   4.058  16.712  0.00  0.00    +0.000 A 
ATOM      4  C   UNL     1       4.307   4.117  18.093  0.00  0.00    +0.000 A 
ATOM      5  C   UNL     1       5.600   4.350  18.575  0.00  0.00    +0.000 A 
ATOM      6  C   UNL     1       6.694   4.535  17.711  0.00  0.00    +0.000 A 
ENDROOT
BRANCH   1   8
ATOM      7  C   UNL     1       7.202   4.865  14.093  0.00  0.00    +0.000 C 
ATOM      8  O   UNL     1       7.529   4.734  15.474  0.00  0.00    +0.000 OA
ENDBRANCH   1   8
BRANCH   4   9
ATOM      9  C   UNL     1       3.144   4.000  18.985  0.00  0.00    +0.000 C 
ATOM     10  C   UNL     1       2.874   4.867  19.971  0.00  0.00    +0.000 C 
BRANCH  10  11
ATOM     11  C   UNL     1       1.673   4.688  20.808  0.00  0.00    +0.000 C 
ATOM     12  O   UNL     1       0.719   4.020  20.425  0.00  0.00    +0.000 OA
ENDBRANCH  10  11
ENDBRANCH   4   9
BRANCH   6  13
ATOM     13  O   UNL     1       7.859   4.740  18.401  0.00  0.00    +0.000 OA
ATOM     14  C   UNL     1       7.944   5.825  19.311  0.00  0.00    +0.000 C 
ENDBRANCH   6  13
TORSDOF 4
ENDMDL
MODEL 4
REMARK VINA RESULT:      -5.6      1.928      5.963
REMARK  Name = 
REMARK  6 active torsions:
REMARK  status: ('A' for Active; 'I' for Inactive)
REMARK    1  A    between atoms: C_1  and  O_2
REMARK    2  A    between atoms: O_2  and  C_3
REMARK    3  A    between atoms: C_6  and  C_7
REMARK    4  A    between atoms: C_8  and  C_9
REMARK    5  A    between atoms: C_12  and  O_13
REMARK    6  A    between atoms: O_13  and  C_14
REMARK                            x       y       z     vdW  Elec       q    Type
REMARK                         _______ _______ _______ _____ _____    ______ ____
ROOT
ATOM      1  C   UNL     1       6.265   6.140  16.862  0.00  0.00    +0.000 A 
ATOM      2  C   UNL     1       5.276   6.728  17.665  0.00  0.00    +0.000 A 
ATOM      3  C   UNL     1       4.061   6.079  17.901  0.00  0.00    +0.000 A 
ATOM      4  C   UNL     1       3.787   4.848  17.302  0.00  0.00    +0.000 A 
ATOM      5  C   UNL     1       4.757   4.289  16.461  0.00  0.00    +0.000 A 
ATOM      6  C   UNL     1       5.987   4.925  16.220  0.00  0.00    +0.000 A 
ENDROOT
BRANCH   1   8
ATOM      7  C   UNL     1       7.732   7.906  17.458  0.00  0.00    +0.000 C 
ATOM      8  O   UNL     1       7.475   6.749  16.666  0.00  0.00    +0.000 OA
ENDBRANCH   1   8
BRANCH   4   9
ATOM      9  C   UNL     1       2.530   4.156  17.623  0.00  0.00    +0.000 C 
ATOM     10  C   UNL     1       2.215   3.720  18.851  0.00  0.00    +0.000 C 
BRANCH  10  11
ATOM     11  C   UNL     1       0.923   3.051  19.092  0.00  0.00    +0.000 C 
ATOM     12  O   UNL     1       0.578   2.071  18.442  0.00  0.00    +0.000 OA
ENDBRANCH  10  11
ENDBRANCH   4   9
BRANCH   6  13
ATOM     13  O   UNL     1       6.775   4.202  15.364  0.00  0.00    +0.000 OA
ATOM     14  C   UNL     1       6.320   3.957  14.043  0.00  0.00    +0.000 C 
ENDBRANCH   6  13
TORSDOF 4
ENDMDL
MODEL 5
REMARK VINA RESULT:      -5.6      1.616      5.831
REMARK  Name = 
REMARK  6 active torsions:
REMARK  status: ('A' for Active; 'I' for Inactive)
REMARK    1  A    between atoms: C_1  and  O_2
REMARK    2  A    between atoms: O_2  and  C_3
REMARK    3  A    between atoms: C_6  and  C_7
REMARK    4  A    between atoms: C_8  and  C_9
REMARK    5  A    between atoms: C_12  and  O_13
REMARK    6  A    between atoms: O_13  and  C_14
REMARK                            x       y       z     vdW  Elec       q    Type
REMARK                         _______ _______ _______ _____ _____    ______ ____
ROOT
ATOM      1  C   UNL     1       6.376   5.191  15.833  0.00  0.00    +0.000 A 
ATOM      2  C   UNL     1       5.639   3.999  15.897  0.00  0.00    +0.000 A 
ATOM      3  C   UNL     1       4.503   3.898  16.706  0.00  0.00    +0.000 A 
ATOM      4  C   UNL     1       4.105   4.971  17.505  0.00  0.00    +0.000 A 
ATOM      5  C   UNL     1       4.874   6.141  17.476  0.00  0.00    +0.000 A 
ATOM      6  C   UNL     1       6.013   6.262  16.663  0.00  0.00    +0.000 A 
ENDROOT
BRANCH   1   8
ATOM      7  C   UNL     1       7.282   4.863  13.665  0.00  0.00    +0.000 C 
ATOM      8  O   UNL     1       7.461   5.311  15.006  0.00  0.00    +0.000 OA
ENDBRANCH   1   8
BRANCH   4   9
ATOM      9  C   UNL     1       2.868   4.861  18.293  0.00  0.00    +0.000 C 
ATOM     10  C   UNL     1       2.292   3.693  18.612  0.00  0.00    +0.000 C 
BRANCH  10  11
ATOM     11  C   UNL     1       1.061   3.671  19.424  0.00  0.00    +0.000 C 
ATOM     12  O   UNL     1       0.957   4.336  20.448  0.00  0.00    +0.000 OA
ENDBRANCH  10  11
ENDBRANCH   4   9
BRANCH   6  13
ATOM     13  O   UNL     1       6.609   7.488  16.800  0.00  0.00    +0.000 OA
ATOM     14  C   UNL     1       7.708   7.628  17.686  0.00  0.00    +0.000 C 
ENDBRANCH   6  13
TORSDOF 4
ENDMDL
MODEL 6
REMARK VINA RESULT:      -5.6      2.829      4.472
REMARK  Name = 
REMARK  6 active torsions:
REMARK  status: ('A' for Active; 'I' for Inactive)
REMARK    1  A    between atoms: C_1  and  O_2
REMARK    2  A    between atoms: O_2  and  C_3
REMARK    3  A    between atoms: C_6  and  C_7
REMARK    4  A    between atoms: C_8  and  C_9
REMARK    5  A    between atoms: C_12  and  O_13
REMARK    6  A    between atoms: O_13  and  C_14
REMARK                            x       y       z     vdW  Elec       q    Type
REMARK                         _______ _______ _______ _____ _____    ______ ____
ROOT
ATOM      1  C   UNL     1       6.407   4.736  18.264  0.00  0.00    +0.000 A 
ATOM      2  C   UNL     1       7.353   4.799  17.230  0.00  0.00    +0.000 A 
ATOM      3  C   UNL     1       6.992   4.524  15.907  0.00  0.00    +0.000 A 
ATOM      4  C   UNL     1       5.689   4.135  15.595  0.00  0.00    +0.000 A 
ATOM      5  C   UNL     1       4.761   4.025  16.638  0.00  0.00    +0.000 A 
ATOM      6  C   UNL     1       5.105   4.305  17.971  0.00  0.00    +0.000 A 
ENDROOT
BRANCH   1   8
ATOM      7  C   UNL     1       7.982   5.733  19.731  0.00  0.00    +0.000 C 
ATOM      8  O   UNL     1       6.744   5.050  19.553  0.00  0.00    +0.000 OA
ENDBRANCH   1   8
BRANCH   4   9
ATOM      9  C   UNL     1       5.320   3.921  14.187  0.00  0.00    +0.000 C 
ATOM     10  C   UNL     1       6.202   3.608  13.227  0.00  0.00    +0.000 C 
BRANCH  10  11
ATOM     11  C   UNL     1       5.744   3.390  11.843  0.00  0.00    +0.000 C 
ATOM     12  O   UNL     1       4.554   3.282  11.571  0.00  0.00    +0.000 OA
ENDBRANCH  10  11
ENDBRANCH   4   9
BRANCH   6  13
ATOM     13  O   UNL     1       4.045   4.125  18.820  0.00  0.00    +0.000 OA
ATOM     14  C   UNL     1       3.909   2.892  19.507  0.00  0.00    +0.000 C 
ENDBRANCH   6  13
TORSDOF 4
ENDMDL
MODEL 7
REMARK VINA RESULT:      -5.6      1.328      2.301
REMARK  Name = 
REMARK  6 active torsions:
REMARK  status: ('A' for Active; 'I' for Inactive)
REMARK    1  A    between atoms: C_1  and  O_2
REMARK    2  A    between atoms: O_2  and  C_3
REMARK    3  A    between atoms: C_6  and  C_7
REMARK    4  A    between atoms: C_8  and  C_9
REMARK    5  A    between atoms: C_12  and  O_13
REMARK    6  A    between atoms: O_13  and  C_14
REMARK                            x       y       z     vdW  Elec       q    Type
REMARK                         _______ _______ _______ _____ _____    ______ ____
ROOT
ATOM      1  C   UNL     1       2.924   4.712  19.693  0.00  0.00    +0.000 A 
ATOM      2  C   UNL     1       4.259   5.134  19.601  0.00  0.00    +0.000 A 
ATOM      3  C   UNL     1       4.952   5.075  18.388  0.00  0.00    +0.000 A 
ATOM      4  C   UNL     1       4.341   4.549  17.249  0.00  0.00    +0.000 A 
ATOM      5  C   UNL     1       3.026   4.082  17.357  0.00  0.00    +0.000 A 
ATOM      6  C   UNL     1       2.313   4.141  18.566  0.00  0.00    +0.000 A 
ENDROOT
BRANCH   1   8
ATOM      7  C   UNL     1       2.235   3.658  21.703  0.00  0.00    +0.000 C 
ATOM      8  O   UNL     1       2.227   4.812  20.866  0.00  0.00    +0.000 OA
ENDBRANCH   1   8
BRANCH   4   9
ATOM      9  C   UNL     1       5.069   4.564  15.971  0.00  0.00    +0.000 C 
ATOM     10  C   UNL     1       6.398   4.714  15.875  0.00  0.00    +0.000 C 
BRANCH  10  11
ATOM     11  C   UNL     1       7.052   4.697  14.553  0.00  0.00    +0.000 C 
ATOM     12  O   UNL     1       7.831   5.581  14.213  0.00  0.00    +0.000 OA
ENDBRANCH  10  11
ENDBRANCH   4   9
BRANCH   6  13
ATOM     13  O   UNL     1       1.051   3.623  18.440  0.00  0.00    +0.000 OA
ATOM     14  C   UNL     1       0.835   2.248  18.715  0.00  0.00    +0.000 C 
ENDBRANCH   6  13
TORSDOF 4
ENDMDL
MODEL 8
REMARK VINA RESULT:      -5.6      2.367      3.292
REMARK  Name = 
REMARK  6 active torsions:
REMARK  status: ('A' for Active; 'I' for Inactive)
REMARK    1  A    between atoms: C_1  and  O_2
REMARK    2  A    between atoms: O_2  and  C_3
REMARK    3  A    between atoms: C_6  and  C_7
REMARK    4  A    between atoms: C_8  and  C_9
REMARK    5  A    between atoms: C_12  and  O_13
REMARK    6  A    between atoms: O_13  and  C_14
REMARK                            x       y       z     vdW  Elec       q    Type
REMARK                         _______ _______ _______ _____ _____    ______ ____
ROOT
ATOM      1  C   UNL     1       4.401   4.398  18.773  0.00  0.00    +0.000 A 
ATOM      2  C   UNL     1       3.735   4.052  17.588  0.00  0.00    +0.000 A 
ATOM      3  C   UNL     1       4.419   3.992  16.369  0.00  0.00    +0.000 A 
ATOM      4  C   UNL     1       5.773   4.321  16.300  0.00  0.00    +0.000 A 
ATOM      5  C   UNL     1       6.421   4.714  17.477  0.00  0.00    +0.000 A 
ATOM      6  C   UNL     1       5.751   4.772  18.711  0.00  0.00    +0.000 A 
ENDROOT
BRANCH   1   8
ATOM      7  C   UNL     1       2.647   5.311  20.083  0.00  0.00    +0.000 C 
ATOM      8  O   UNL     1       3.747   4.412  19.976  0.00  0.00    +0.000 OA
ENDBRANCH   1   8
BRANCH   4   9
ATOM      9  C   UNL     1       6.483   4.182  15.020  0.00  0.00    +0.000 C 
ATOM     10  C   UNL     1       5.870   3.931  13.854  0.00  0.00    +0.000 C 
BRANCH  10  11
ATOM     11  C   UNL     1       6.656   3.826  12.611  0.00  0.00    +0.000 C 
ATOM     12  O   UNL     1       6.556   2.854  11.871  0.00  0.00    +0.000 OA
ENDBRANCH  10  11
ENDBRANCH   4   9
BRANCH   6  13
ATOM     13  O   UNL     1       6.578   5.187  19.721  0.00  0.00    +0.000 OA
ATOM     14  C   UNL     1       7.834   5.761  19.397  0.00  0.00    +0.000 C 
ENDBRANCH   6  13
TORSDOF 4
ENDMDL
MODEL 9
REMARK VINA RESULT:      -5.4      2.205      3.625
REMARK  Name = 
REMARK  6 active torsions:
REMARK  status: ('A' for Active; 'I' for Inactive)
REMARK    1  A    between atoms: C_1  and  O_2
REMARK    2  A    between atoms: O_2  and  C_3
REMARK    3  A    between atoms: C_6  and  C_7
REMARK    4  A    between atoms: C_8  and  C_9
REMARK    5  A    between atoms: C_12  and  O_13
REMARK    6  A    between atoms: O_13  and  C_14
REMARK                            x       y       z     vdW  Elec       q    Type
REMARK                         _______ _______ _______ _____ _____    ______ ____
ROOT
ATOM      1  C   UNL     1       4.417   5.363  18.426  0.00  0.00    +0.000 A 
ATOM      2  C   UNL     1       4.770   6.450  17.612  0.00  0.00    +0.000 A 
ATOM      3  C   UNL     1       5.149   6.259  16.280  0.00  0.00    +0.000 A 
ATOM      4  C   UNL     1       5.229   4.973  15.744  0.00  0.00    +0.000 A 
ATOM      5  C   UNL     1       4.925   3.888  16.574  0.00  0.00    +0.000 A 
ATOM      6  C   UNL     1       4.534   4.062  17.913  0.00  0.00    +0.000 A 
ENDROOT
BRANCH   1   8
ATOM      7  C   UNL     1       2.592   5.638  19.915  0.00  0.00    +0.000 C 
ATOM      8  O   UNL     1       4.000   5.548  19.716  0.00  0.00    +0.000 OA
ENDBRANCH   1   8
BRANCH   4   9
ATOM      9  C   UNL     1       5.562   4.807  14.321  0.00  0.00    +0.000 C 
ATOM     10  C   UNL     1       6.229   3.752  13.833  0.00  0.00    +0.000 C 
BRANCH  10  11
ATOM     11  C   UNL     1       6.505   3.653  12.388  0.00  0.00    +0.000 C 
ATOM     12  O   UNL     1       6.589   2.567  11.825  0.00  0.00    +0.000 OA
ENDBRANCH  10  11
ENDBRANCH   4   9
BRANCH   6  13
ATOM     13  O   UNL     1       4.293   2.865  18.534  0.00  0.00    +0.000 OA
ATOM     14  C   UNL     1       3.267   2.021  18.037  0.00  0.00    +0.000 C 
ENDBRANCH   6  13
TORSDOF 4
ENDMDL
