MODEL 1
REMARK VINA RESULT:      -6.9      0.000      0.000
REMARK  Name = 
REMARK  4 active torsions:
REMARK  status: ('A' for Active; 'I' for Inactive)
REMARK    1  A    between atoms: C_1  and  C_2
REMARK    2  A    between atoms: C_9  and  C_10
REMARK    3  A    between atoms: C_10  and  C_11
REMARK    4  A    between atoms: N_13  and  C_14
REMARK                            x       y       z     vdW  Elec       q    Type
REMARK                         _______ _______ _______ _____ _____    ______ ____
ROOT
ATOM      1  C   UNL     1       2.350   7.382  18.518  0.00  0.00    +0.000 C 
ATOM      2  O   UNL     1       3.157   8.124  17.969  0.00  0.00    +0.000 OA
ATOM      3  N   UNL     1       1.600   7.769  19.626  0.00  0.00    +0.000 N 
ATOM      4  H   UNL     1       0.752   7.218  19.704  0.00  0.00    +0.000 HD
ENDROOT
BRANCH   3   5
ATOM      5  C   UNL     1       1.375   9.179  19.949  0.00  0.00    +0.000 C 
ATOM      6  C   UNL     1       0.506   9.891  18.894  0.00  0.00    +0.000 C 
ATOM      7  O   UNL     1       0.254  11.212  19.405  0.00  0.00    +0.000 OA
ATOM      8  C   UNL     1       0.073  10.921  20.754  0.00  0.00    +0.000 A 
ATOM      9  N   UNL     1      -0.624  11.771  21.518  0.00  0.00    +0.000 NA
ATOM     10  C   UNL     1      -0.913  11.294  22.743  0.00  0.00    +0.000 A 
ATOM     11  C   UNL     1      -0.553  10.012  23.183  0.00  0.00    +0.000 A 
ATOM     12  C   UNL     1       0.212   9.180  22.349  0.00  0.00    +0.000 A 
ATOM     13  C   UNL     1       0.556   9.656  21.102  0.00  0.00    +0.000 A 
ENDBRANCH   3   5
BRANCH   1  14
ATOM     14  C   UNL     1       2.124   5.928  18.056  0.00  0.00    +0.000 C 
BRANCH  14  23
ATOM     15  C   UNL     1       0.872   4.242  20.303  0.00  0.00    +0.000 C 
ATOM     16  C   UNL     1       2.288   4.037  19.825  0.00  0.00    +0.000 A 
ATOM     17  C   UNL     1       3.011   2.979  20.427  0.00  0.00    +0.000 A 
ATOM     18  C   UNL     1       4.310   2.682  20.034  0.00  0.00    +0.000 A 
ATOM     19 CL   UNL     1       5.147   1.364  20.758  0.00  0.00    +0.000 Cl
ATOM     20  C   UNL     1       4.912   3.431  19.038  0.00  0.00    +0.000 A 
ATOM     21  C   UNL     1       4.214   4.496  18.426  0.00  0.00    +0.000 A 
ATOM     22 CL   UNL     1       5.032   5.314  17.148  0.00  0.00    +0.000 Cl
ATOM     23  C   UNL     1       2.893   4.830  18.805  0.00  0.00    +0.000 A 
ENDBRANCH  14  23
ENDBRANCH   1  14
TORSDOF 3
ENDMDL
MODEL 2
REMARK VINA RESULT:      -6.7      1.237      1.925
REMARK  Name = 
REMARK  4 active torsions:
REMARK  status: ('A' for Active; 'I' for Inactive)
REMARK    1  A    between atoms: C_1  and  C_2
REMARK    2  A    between atoms: C_9  and  C_10
REMARK    3  A    between atoms: C_10  and  C_11
REMARK    4  A    between atoms: N_13  and  C_14
REMARK                            x       y       z     vdW  Elec       q    Type
REMARK                         _______ _______ _______ _____ _____    ______ ____
ROOT
ATOM      1  C   UNL     1       2.429   7.154  18.440  0.00  0.00    +0.000 C 
ATOM      2  O   UNL     1       3.250   7.874  17.882  0.00  0.00    +0.000 OA
ATOM      3  N   UNL     1       1.739   7.544  19.586  0.00  0.00    +0.000 N 
ATOM      4  H   UNL     1       0.868   7.032  19.680  0.00  0.00    +0.000 HD
ENDROOT
BRANCH   3   5
ATOM      5  C   UNL     1       1.595   8.953  19.955  0.00  0.00    +0.000 C 
ATOM      6  C   UNL     1       0.854   9.770  18.878  0.00  0.00    +0.000 C 
ATOM      7  O   UNL     1       0.663  11.085  19.429  0.00  0.00    +0.000 OA
ATOM      8  C   UNL     1       0.369  10.755  20.749  0.00  0.00    +0.000 A 
ATOM      9  N   UNL     1      -0.315  11.624  21.502  0.00  0.00    +0.000 NA
ATOM     10  C   UNL     1      -0.722  11.123  22.683  0.00  0.00    +0.000 A 
ATOM     11  C   UNL     1      -0.487   9.801  23.089  0.00  0.00    +0.000 A 
ATOM     12  C   UNL     1       0.271   8.947  22.271  0.00  0.00    +0.000 A 
ATOM     13  C   UNL     1       0.734   9.444  21.072  0.00  0.00    +0.000 A 
ENDBRANCH   3   5
BRANCH   1  14
ATOM     14  C   UNL     1       2.115   5.727  17.947  0.00  0.00    +0.000 C 
BRANCH  14  23
ATOM     15  C   UNL     1       4.944   4.862  17.108  0.00  0.00    +0.000 C 
ATOM     16  C   UNL     1       4.197   4.206  18.241  0.00  0.00    +0.000 A 
ATOM     17  C   UNL     1       4.886   3.194  18.951  0.00  0.00    +0.000 A 
ATOM     18  C   UNL     1       4.301   2.551  20.035  0.00  0.00    +0.000 A 
ATOM     19 CL   UNL     1       5.182   1.352  20.901  0.00  0.00    +0.000 Cl
ATOM     20  C   UNL     1       3.022   2.901  20.430  0.00  0.00    +0.000 A 
ATOM     21  C   UNL     1       2.310   3.904  19.734  0.00  0.00    +0.000 A 
ATOM     22 CL   UNL     1       0.755   4.311  20.356  0.00  0.00    +0.000 Cl
ATOM     23  C   UNL     1       2.872   4.574  18.623  0.00  0.00    +0.000 A 
ENDBRANCH  14  23
ENDBRANCH   1  14
TORSDOF 3
ENDMDL
MODEL 3
REMARK VINA RESULT:      -6.6      2.464      3.900
REMARK  Name = 
REMARK  4 active torsions:
REMARK  status: ('A' for Active; 'I' for Inactive)
REMARK    1  A    between atoms: C_1  and  C_2
REMARK    2  A    between atoms: C_9  and  C_10
REMARK    3  A    between atoms: C_10  and  C_11
REMARK    4  A    between atoms: N_13  and  C_14
REMARK                            x       y       z     vdW  Elec       q    Type
REMARK                         _______ _______ _______ _____ _____    ______ ____
ROOT
ATOM      1  C   UNL     1       2.971   4.963  19.717  0.00  0.00    +0.000 C 
ATOM      2  O   UNL     1       1.987   4.395  20.178  0.00  0.00    +0.000 OA
ATOM      3  N   UNL     1       2.925   6.256  19.201  0.00  0.00    +0.000 N 
ATOM      4  H   UNL     1       3.839   6.694  19.230  0.00  0.00    +0.000 HD
ENDROOT
BRANCH   3   5
ATOM      5  C   UNL     1       1.854   7.188  19.557  0.00  0.00    +0.000 C 
ATOM      6  C   UNL     1       1.889   7.581  21.047  0.00  0.00    +0.000 C 
ATOM      7  O   UNL     1       0.882   8.595  21.221  0.00  0.00    +0.000 OA
ATOM      8  C   UNL     1       1.052   9.310  20.039  0.00  0.00    +0.000 A 
ATOM      9  N   UNL     1       0.647  10.585  19.985  0.00  0.00    +0.000 NA
ATOM     10  C   UNL     1       1.044  11.238  18.877  0.00  0.00    +0.000 A 
ATOM     11  C   UNL     1       1.838  10.659  17.876  0.00  0.00    +0.000 A 
ATOM     12  C   UNL     1       2.199   9.304  17.971  0.00  0.00    +0.000 A 
ATOM     13  C   UNL     1       1.774   8.599  19.076  0.00  0.00    +0.000 A 
ENDBRANCH   3   5
BRANCH   1  14
ATOM     14  C   UNL     1       4.350   4.276  19.626  0.00  0.00    +0.000 C 
BRANCH  14  23
ATOM     15  C   UNL     1       3.100   3.253  17.009  0.00  0.00    +0.000 C 
ATOM     16  C   UNL     1       4.466   3.890  17.063  0.00  0.00    +0.000 A 
ATOM     17  C   UNL     1       5.137   4.050  15.827  0.00  0.00    +0.000 A 
ATOM     18  C   UNL     1       6.385   4.657  15.761  0.00  0.00    +0.000 A 
ATOM     19 CL   UNL     1       7.157   4.872  14.238  0.00  0.00    +0.000 Cl
ATOM     20  C   UNL     1       6.986   5.114  16.921  0.00  0.00    +0.000 A 
ATOM     21  C   UNL     1       6.340   4.961  18.168  0.00  0.00    +0.000 A 
ATOM     22 CL   UNL     1       7.146   5.631  19.536  0.00  0.00    +0.000 Cl
ATOM     23  C   UNL     1       5.072   4.341  18.272  0.00  0.00    +0.000 A 
ENDBRANCH  14  23
ENDBRANCH   1  14
TORSDOF 3
ENDMDL
MODEL 4
REMARK VINA RESULT:      -6.5      1.923      2.717
REMARK  Name = 
REMARK  4 active torsions:
REMARK  status: ('A' for Active; 'I' for Inactive)
REMARK    1  A    between atoms: C_1  and  C_2
REMARK    2  A    between atoms: C_9  and  C_10
REMARK    3  A    between atoms: C_10  and  C_11
REMARK    4  A    between atoms: N_13  and  C_14
REMARK                            x       y       z     vdW  Elec       q    Type
REMARK                         _______ _______ _______ _____ _____    ______ ____
ROOT
ATOM      1  C   UNL     1       2.259   8.189  18.110  0.00  0.00    +0.000 C 
ATOM      2  O   UNL     1       2.600   9.128  17.398  0.00  0.00    +0.000 OA
ATOM      3  N   UNL     1       1.713   8.364  19.380  0.00  0.00    +0.000 N 
ATOM      4  H   UNL     1       1.153   7.563  19.650  0.00  0.00    +0.000 HD
ENDROOT
BRANCH   3   5
ATOM      5  C   UNL     1       1.100   9.630  19.787  0.00  0.00    +0.000 C 
ATOM      6  C   UNL     1      -0.130   9.987  18.930  0.00  0.00    +0.000 C 
ATOM      7  O   UNL     1      -0.706  11.166  19.524  0.00  0.00    +0.000 OA
ATOM      8  C   UNL     1      -0.534  10.867  20.872  0.00  0.00    +0.000 A 
ATOM      9  N   UNL     1      -1.320  11.460  21.778  0.00  0.00    +0.000 NA
ATOM     10  C   UNL     1      -1.210  10.948  23.018  0.00  0.00    +0.000 A 
ATOM     11  C   UNL     1      -0.376   9.868  23.341  0.00  0.00    +0.000 A 
ATOM     12  C   UNL     1       0.455   9.312  22.355  0.00  0.00    +0.000 A 
ATOM     13  C   UNL     1       0.393   9.841  21.084  0.00  0.00    +0.000 A 
ENDBRANCH   3   5
BRANCH   1  14
ATOM     14  C   UNL     1       2.444   6.720  17.679  0.00  0.00    +0.000 C 
BRANCH  14  23
ATOM     15  C   UNL     1       4.634   7.106  15.555  0.00  0.00    +0.000 C 
ATOM     16  C   UNL     1       4.868   6.341  16.834  0.00  0.00    +0.000 A 
ATOM     17  C   UNL     1       6.177   5.846  17.044  0.00  0.00    +0.000 A 
ATOM     18  C   UNL     1       6.507   5.159  18.205  0.00  0.00    +0.000 A 
ATOM     19 CL   UNL     1       8.119   4.605  18.448  0.00  0.00    +0.000 Cl
ATOM     20  C   UNL     1       5.543   4.950  19.175  0.00  0.00    +0.000 A 
ATOM     21  C   UNL     1       4.227   5.429  18.987  0.00  0.00    +0.000 A 
ATOM     22 CL   UNL     1       3.126   5.178  20.290  0.00  0.00    +0.000 Cl
ATOM     23  C   UNL     1       3.854   6.126  17.814  0.00  0.00    +0.000 A 
ENDBRANCH  14  23
ENDBRANCH   1  14
TORSDOF 3
ENDMDL
MODEL 5
REMARK VINA RESULT:      -6.5      2.568      4.260
REMARK  Name = 
REMARK  4 active torsions:
REMARK  status: ('A' for Active; 'I' for Inactive)
REMARK    1  A    between atoms: C_1  and  C_2
REMARK    2  A    between atoms: C_9  and  C_10
REMARK    3  A    between atoms: C_10  and  C_11
REMARK    4  A    between atoms: N_13  and  C_14
REMARK                            x       y       z     vdW  Elec       q    Type
REMARK                         _______ _______ _______ _____ _____    ______ ____
ROOT
ATOM      1  C   UNL     1       3.432   5.418  19.455  0.00  0.00    +0.000 C 
ATOM      2  O   UNL     1       2.611   4.732  20.054  0.00  0.00    +0.000 OA
ATOM      3  N   UNL     1       3.113   6.644  18.875  0.00  0.00    +0.000 N 
ATOM      4  H   UNL     1       3.937   7.227  18.777  0.00  0.00    +0.000 HD
ENDROOT
BRANCH   3   5
ATOM      5  C   UNL     1       1.939   7.411  19.295  0.00  0.00    +0.000 C 
ATOM      6  C   UNL     1       1.883   7.607  20.823  0.00  0.00    +0.000 C 
ATOM      7  O   UNL     1       0.771   8.485  21.076  0.00  0.00    +0.000 OA
ATOM      8  C   UNL     1       0.905   9.362  20.004  0.00  0.00    +0.000 A 
ATOM      9  N   UNL     1       0.373  10.587  20.091  0.00  0.00    +0.000 NA
ATOM     10  C   UNL     1       0.737  11.415  19.095  0.00  0.00    +0.000 A 
ATOM     11  C   UNL     1       1.621  11.053  18.068  0.00  0.00    +0.000 A 
ATOM     12  C   UNL     1       2.117   9.740  18.008  0.00  0.00    +0.000 A 
ATOM     13  C   UNL     1       1.730   8.858  18.993  0.00  0.00    +0.000 A 
ENDBRANCH   3   5
BRANCH   1  14
ATOM     14  C   UNL     1       4.892   4.963  19.249  0.00  0.00    +0.000 C 
BRANCH  14  23
ATOM     15  C   UNL     1       7.546   6.322  18.500  0.00  0.00    +0.000 C 
ATOM     16  C   UNL     1       6.686   5.607  17.489  0.00  0.00    +0.000 A 
ATOM     17  C   UNL     1       7.188   5.539  16.168  0.00  0.00    +0.000 A 
ATOM     18  C   UNL     1       6.491   4.872  15.168  0.00  0.00    +0.000 A 
ATOM     19 CL   UNL     1       7.149   4.773  13.580  0.00  0.00    +0.000 Cl
ATOM     20  C   UNL     1       5.284   4.264  15.464  0.00  0.00    +0.000 A 
ATOM     21  C   UNL     1       4.757   4.322  16.774  0.00  0.00    +0.000 A 
ATOM     22 CL   UNL     1       3.285   3.469  17.048  0.00  0.00    +0.000 Cl
ATOM     23  C   UNL     1       5.437   4.998  17.814  0.00  0.00    +0.000 A 
ENDBRANCH  14  23
ENDBRANCH   1  14
TORSDOF 3
ENDMDL
MODEL 6
REMARK VINA RESULT:      -6.5      2.424      3.384
REMARK  Name = 
REMARK  4 active torsions:
REMARK  status: ('A' for Active; 'I' for Inactive)
REMARK    1  A    between atoms: C_1  and  C_2
REMARK    2  A    between atoms: C_9  and  C_10
REMARK    3  A    between atoms: C_10  and  C_11
REMARK    4  A    between atoms: N_13  and  C_14
REMARK                            x       y       z     vdW  Elec       q    Type
REMARK                         _______ _______ _______ _____ _____    ______ ____
ROOT
ATOM      1  C   UNL     1       2.867   6.667  18.972  0.00  0.00    +0.000 C 
ATOM      2  O   UNL     1       2.217   6.800  17.941  0.00  0.00    +0.000 OA
ATOM      3  N   UNL     1       2.604   7.396  20.130  0.00  0.00    +0.000 N 
ATOM      4  H   UNL     1       2.947   6.912  20.953  0.00  0.00    +0.000 HD
ENDROOT
BRANCH   3   5
ATOM      5  C   UNL     1       1.304   8.029  20.363  0.00  0.00    +0.000 C 
ATOM      6  C   UNL     1       1.097   8.418  21.840  0.00  0.00    +0.000 C 
ATOM      7  O   UNL     1      -0.143   9.146  21.895  0.00  0.00    +0.000 OA
ATOM      8  C   UNL     1      -0.046   9.881  20.717  0.00  0.00    +0.000 A 
ATOM      9  N   UNL     1      -0.749  11.013  20.594  0.00  0.00    +0.000 NA
ATOM     10  C   UNL     1      -0.424  11.745  19.513  0.00  0.00    +0.000 A 
ATOM     11  C   UNL     1       0.583  11.384  18.605  0.00  0.00    +0.000 A 
ATOM     12  C   UNL     1       1.260  10.164  18.765  0.00  0.00    +0.000 A 
ATOM     13  C   UNL     1       0.921   9.375  19.842  0.00  0.00    +0.000 A 
ENDBRANCH   3   5
BRANCH   1  14
ATOM     14  C   UNL     1       4.070   5.706  19.069  0.00  0.00    +0.000 C 
BRANCH  14  23
ATOM     15  C   UNL     1       3.093   3.098  17.767  0.00  0.00    +0.000 C 
ATOM     16  C   UNL     1       4.153   3.971  17.142  0.00  0.00    +0.000 A 
ATOM     17  C   UNL     1       4.648   3.559  15.882  0.00  0.00    +0.000 A 
ATOM     18  C   UNL     1       5.600   4.311  15.205  0.00  0.00    +0.000 A 
ATOM     19 CL   UNL     1       6.152   3.804  13.655  0.00  0.00    +0.000 Cl
ATOM     20  C   UNL     1       6.076   5.481  15.768  0.00  0.00    +0.000 A 
ATOM     21  C   UNL     1       5.602   5.911  17.029  0.00  0.00    +0.000 A 
ATOM     22 CL   UNL     1       6.209   7.419  17.602  0.00  0.00    +0.000 Cl
ATOM     23  C   UNL     1       4.639   5.167  17.749  0.00  0.00    +0.000 A 
ENDBRANCH  14  23
ENDBRANCH   1  14
TORSDOF 3
ENDMDL
MODEL 7
REMARK VINA RESULT:      -6.5      3.255      7.619
REMARK  Name = 
REMARK  4 active torsions:
REMARK  status: ('A' for Active; 'I' for Inactive)
REMARK    1  A    between atoms: C_1  and  C_2
REMARK    2  A    between atoms: C_9  and  C_10
REMARK    3  A    between atoms: C_10  and  C_11
REMARK    4  A    between atoms: N_13  and  C_14
REMARK                            x       y       z     vdW  Elec       q    Type
REMARK                         _______ _______ _______ _____ _____    ______ ____
ROOT
ATOM      1  C   UNL     1       2.180   6.260  20.312  0.00  0.00    +0.000 C 
ATOM      2  O   UNL     1       1.244   5.485  20.146  0.00  0.00    +0.000 OA
ATOM      3  N   UNL     1       3.493   5.941  19.972  0.00  0.00    +0.000 N 
ATOM      4  H   UNL     1       4.042   6.779  19.810  0.00  0.00    +0.000 HD
ENDROOT
BRANCH   3   5
ATOM      5  C   UNL     1       3.804   4.882  19.010  0.00  0.00    +0.000 C 
ATOM      6  C   UNL     1       2.840   4.880  17.808  0.00  0.00    +0.000 C 
ATOM      7  O   UNL     1       3.343   3.892  16.889  0.00  0.00    +0.000 OA
ATOM      8  C   UNL     1       4.710   4.116  17.018  0.00  0.00    +0.000 A 
ATOM      9  N   UNL     1       5.529   3.744  16.026  0.00  0.00    +0.000 NA
ATOM     10  C   UNL     1       6.791   4.192  16.161  0.00  0.00    +0.000 A 
ATOM     11  C   UNL     1       7.218   5.003  17.222  0.00  0.00    +0.000 A 
ATOM     12  C   UNL     1       6.322   5.328  18.254  0.00  0.00    +0.000 A 
ATOM     13  C   UNL     1       5.033   4.852  18.163  0.00  0.00    +0.000 A 
ENDBRANCH   3   5
BRANCH   1  14
ATOM     14  C   UNL     1       1.994   7.649  20.956  0.00  0.00    +0.000 C 
BRANCH  14  23
ATOM     15  C   UNL     1      -0.413   9.014  22.297  0.00  0.00    +0.000 C 
ATOM     16  C   UNL     1      -0.014   9.289  20.868  0.00  0.00    +0.000 A 
ATOM     17  C   UNL     1      -0.775  10.261  20.176  0.00  0.00    +0.000 A 
ATOM     18  C   UNL     1      -0.469  10.614  18.867  0.00  0.00    +0.000 A 
ATOM     19 CL   UNL     1      -1.390  11.828  18.067  0.00  0.00    +0.000 Cl
ATOM     20  C   UNL     1       0.596  10.007  18.226  0.00  0.00    +0.000 A 
ATOM     21  C   UNL     1       1.367   9.029  18.893  0.00  0.00    +0.000 A 
ATOM     22 CL   UNL     1       2.714   8.392  18.025  0.00  0.00    +0.000 Cl
ATOM     23  C   UNL     1       1.080   8.641  20.222  0.00  0.00    +0.000 A 
ENDBRANCH  14  23
ENDBRANCH   1  14
TORSDOF 3
ENDMDL
MODEL 8
REMARK VINA RESULT:      -6.4      3.791      7.638
REMARK  Name = 
REMARK  4 active torsions:
REMARK  status: ('A' for Active; 'I' for Inactive)
REMARK    1  A    between atoms: C_1  and  C_2
REMARK    2  A    between atoms: C_9  and  C_10
REMARK    3  A    between atoms: C_10  and  C_11
REMARK    4  A    between atoms: N_13  and  C_14
REMARK                            x       y       z     vdW  Elec       q    Type
REMARK                         _______ _______ _______ _____ _____    ______ ____
ROOT
ATOM      1  C   UNL     1       1.415   9.194  18.628  0.00  0.00    +0.000 C 
ATOM      2  O   UNL     1       0.666   9.176  17.657  0.00  0.00    +0.000 OA
ATOM      3  N   UNL     1       2.155   8.085  19.032  0.00  0.00    +0.000 N 
ATOM      4  H   UNL     1       2.969   8.364  19.568  0.00  0.00    +0.000 HD
ENDROOT
BRANCH   3   5
ATOM      5  C   UNL     1       2.447   6.980  18.117  0.00  0.00    +0.000 C 
ATOM      6  C   UNL     1       3.935   6.926  17.718  0.00  0.00    +0.000 C 
ATOM      7  O   UNL     1       4.101   5.726  16.941  0.00  0.00    +0.000 OA
ATOM      8  C   UNL     1       3.268   4.862  17.647  0.00  0.00    +0.000 A 
ATOM      9  N   UNL     1       3.468   3.542  17.554  0.00  0.00    +0.000 NA
ATOM     10  C   UNL     1       2.749   2.817  18.431  0.00  0.00    +0.000 A 
ATOM     11  C   UNL     1       1.889   3.381  19.385  0.00  0.00    +0.000 A 
ATOM     12  C   UNL     1       1.692   4.772  19.408  0.00  0.00    +0.000 A 
ATOM     13  C   UNL     1       2.385   5.537  18.496  0.00  0.00    +0.000 A 
ENDBRANCH   3   5
BRANCH   1  14
ATOM     14  C   UNL     1       1.575  10.441  19.521  0.00  0.00    +0.000 C 
BRANCH  14  23
ATOM     15  C   UNL     1       1.304   9.165  22.305  0.00  0.00    +0.000 C 
ATOM     16  C   UNL     1       0.326  10.187  21.781  0.00  0.00    +0.000 A 
ATOM     17  C   UNL     1      -0.709  10.581  22.661  0.00  0.00    +0.000 A 
ATOM     18  C   UNL     1      -1.641  11.542  22.290  0.00  0.00    +0.000 A 
ATOM     19 CL   UNL     1      -2.864  12.028  23.399  0.00  0.00    +0.000 Cl
ATOM     20  C   UNL     1      -1.561  12.124  21.037  0.00  0.00    +0.000 A 
ATOM     21  C   UNL     1      -0.541  11.744  20.137  0.00  0.00    +0.000 A 
ATOM     22 CL   UNL     1      -0.492  12.586  18.634  0.00  0.00    +0.000 Cl
ATOM     23  C   UNL     1       0.420  10.764  20.480  0.00  0.00    +0.000 A 
ENDBRANCH  14  23
ENDBRANCH   1  14
TORSDOF 3
ENDMDL
MODEL 9
REMARK VINA RESULT:      -6.4      2.336      2.707
REMARK  Name = 
REMARK  4 active torsions:
REMARK  status: ('A' for Active; 'I' for Inactive)
REMARK    1  A    between atoms: C_1  and  C_2
REMARK    2  A    between atoms: C_9  and  C_10
REMARK    3  A    between atoms: C_10  and  C_11
REMARK    4  A    between atoms: N_13  and  C_14
REMARK                            x       y       z     vdW  Elec       q    Type
REMARK                         _______ _______ _______ _____ _____    ______ ____
ROOT
ATOM      1  C   UNL     1       2.428   7.644  18.757  0.00  0.00    +0.000 C 
ATOM      2  O   UNL     1       2.232   7.442  19.950  0.00  0.00    +0.000 OA
ATOM      3  N   UNL     1       1.720   8.597  18.027  0.00  0.00    +0.000 N 
ATOM      4  H   UNL     1       2.245   8.896  17.212  0.00  0.00    +0.000 HD
ENDROOT
BRANCH   3   5
ATOM      5  C   UNL     1       1.030   9.711  18.680  0.00  0.00    +0.000 C 
ATOM      6  C   UNL     1       1.747  11.057  18.457  0.00  0.00    +0.000 C 
ATOM      7  O   UNL     1       0.895  12.067  19.027  0.00  0.00    +0.000 OA
ATOM      8  C   UNL     1      -0.351  11.573  18.652  0.00  0.00    +0.000 A 
ATOM      9  N   UNL     1      -1.390  12.414  18.574  0.00  0.00    +0.000 NA
ATOM     10  C   UNL     1      -2.486  11.878  18.006  0.00  0.00    +0.000 A 
ATOM     11  C   UNL     1      -2.541  10.569  17.506  0.00  0.00    +0.000 A 
ATOM     12  C   UNL     1      -1.430   9.721  17.652  0.00  0.00    +0.000 A 
ATOM     13  C   UNL     1      -0.306  10.230  18.264  0.00  0.00    +0.000 A 
ENDBRANCH   3   5
BRANCH   1  14
ATOM     14  C   UNL     1       3.450   6.827  17.940  0.00  0.00    +0.000 C 
BRANCH  14  23
ATOM     15  C   UNL     1       1.152   4.880  17.320  0.00  0.00    +0.000 C 
ATOM     16  C   UNL     1       2.465   4.427  17.907  0.00  0.00    +0.000 A 
ATOM     17  C   UNL     1       2.618   3.035  18.113  0.00  0.00    +0.000 A 
ATOM     18  C   UNL     1       3.802   2.510  18.615  0.00  0.00    +0.000 A 
ATOM     19 CL   UNL     1       3.971   0.808  18.816  0.00  0.00    +0.000 Cl
ATOM     20  C   UNL     1       4.851   3.357  18.923  0.00  0.00    +0.000 A 
ATOM     21  C   UNL     1       4.721   4.752  18.733  0.00  0.00    +0.000 A 
ATOM     22 CL   UNL     1       6.115   5.705  19.079  0.00  0.00    +0.000 Cl
ATOM     23  C   UNL     1       3.529   5.321  18.229  0.00  0.00    +0.000 A 
ENDBRANCH  14  23
ENDBRANCH   1  14
TORSDOF 3
ENDMDL
