MODEL 1
REMARK VINA RESULT:      -8.9      0.000      0.000
REMARK  Name = 
REMARK  9 active torsions:
REMARK  status: ('A' for Active; 'I' for Inactive)
REMARK    1  A    between atoms: C_1  and  O_2
REMARK    2  A    between atoms: O_2  and  C_3
REMARK    3  A    between atoms: C_8  and  O_9
REMARK    4  A    between atoms: O_9  and  C_10
REMARK    5  A    between atoms: N_13  and  C_14
REMARK    6  A    between atoms: C_14  and  C_15
REMARK    7  A    between atoms: C_15  and  C_16
REMARK    8  A    between atoms: C_16  and  C_17
REMARK    9  A    between atoms: C_17  and  N_18
REMARK                            x       y       z     vdW  Elec       q    Type
REMARK                         _______ _______ _______ _____ _____    ______ ____
ROOT
ATOM      1  C   UNL     1       0.669  10.606  18.811  0.00  0.00    +0.000 C 
ENDROOT
BRANCH   1  10
ATOM      2  C   UNL     1      -5.625  12.187  18.101  0.00  0.00    +0.000 A 
ATOM      3  C   UNL     1      -4.722  11.558  17.225  0.00  0.00    +0.000 A 
ATOM      4  C   UNL     1      -3.390  11.334  17.594  0.00  0.00    +0.000 A 
ATOM      5  C   UNL     1      -2.969  11.740  18.864  0.00  0.00    +0.000 A 
ATOM      6  C   UNL     1      -3.857  12.381  19.734  0.00  0.00    +0.000 A 
ATOM      7  C   UNL     1      -5.190  12.609  19.370  0.00  0.00    +0.000 A 
ATOM      8  C   UNL     1      -1.565  11.520  19.315  0.00  0.00    +0.000 C 
ATOM      9  O   UNL     1      -1.192  11.980  20.389  0.00  0.00    +0.000 OA
ATOM     10  N   UNL     1      -0.731  10.811  18.457  0.00  0.00    +0.000 N 
ATOM     11  C   UNL     1      -1.316   9.985  17.408  0.00  0.00    +0.000 C 
ATOM     12  C   UNL     1      -2.401  10.730  16.637  0.00  0.00    +0.000 C 
BRANCH   2  14
ATOM     13  C   UNL     1      -7.308  13.490  17.022  0.00  0.00    +0.000 C 
ATOM     14  O   UNL     1      -6.900  12.255  17.596  0.00  0.00    +0.000 OA
ENDBRANCH   2  14
BRANCH   7  15
ATOM     15  O   UNL     1      -6.093  13.199  20.210  0.00  0.00    +0.000 OA
ATOM     16  C   UNL     1      -6.348  12.572  21.463  0.00  0.00    +0.000 C 
ENDBRANCH   7  15
ENDBRANCH   1  10
BRANCH   1  17
ATOM     17  C   UNL     1       0.912   9.226  19.433  0.00  0.00    +0.000 C 
BRANCH  17  18
ATOM     18  C   UNL     1       1.835   8.326  18.603  0.00  0.00    +0.000 C 
BRANCH  18  19
ATOM     19  C   UNL     1       2.523   7.270  19.469  0.00  0.00    +0.000 C 
BRANCH  19  20
ATOM     20  N   UNL     1       2.809   6.036  18.757  0.00  0.00    +0.000 N 
ATOM     21  C   UNL     1       3.759   5.901  17.763  0.00  0.00    +0.000 A 
ATOM     22  C   UNL     1       4.644   6.831  17.191  0.00  0.00    +0.000 A 
ATOM     23  C   UNL     1       5.489   6.411  16.161  0.00  0.00    +0.000 A 
ATOM     24  C   UNL     1       5.466   5.091  15.720  0.00  0.00    +0.000 A 
ATOM     25  C   UNL     1       4.609   4.162  16.319  0.00  0.00    +0.000 A 
ATOM     26  C   UNL     1       3.739   4.568  17.357  0.00  0.00    +0.000 A 
ATOM     27  C   UNL     1       2.779   3.887  18.167  0.00  0.00    +0.000 A 
ATOM     28  C   UNL     1       2.354   2.546  18.250  0.00  0.00    +0.000 A 
ATOM     29  C   UNL     1       1.375   2.184  19.181  0.00  0.00    +0.000 A 
ATOM     30  C   UNL     1       0.813   3.137  20.022  0.00  0.00    +0.000 A 
ATOM     31  C   UNL     1       1.212   4.474  19.959  0.00  0.00    +0.000 A 
ATOM     32  C   UNL     1       2.203   4.825  19.027  0.00  0.00    +0.000 A 
ENDBRANCH  19  20
ENDBRANCH  18  19
ENDBRANCH  17  18
ENDBRANCH   1  17
TORSDOF 7
ENDMDL
MODEL 2
REMARK VINA RESULT:      -8.8      1.887      3.758
REMARK  Name = 
REMARK  9 active torsions:
REMARK  status: ('A' for Active; 'I' for Inactive)
REMARK    1  A    between atoms: C_1  and  O_2
REMARK    2  A    between atoms: O_2  and  C_3
REMARK    3  A    between atoms: C_8  and  O_9
REMARK    4  A    between atoms: O_9  and  C_10
REMARK    5  A    between atoms: N_13  and  C_14
REMARK    6  A    between atoms: C_14  and  C_15
REMARK    7  A    between atoms: C_15  and  C_16
REMARK    8  A    between atoms: C_16  and  C_17
REMARK    9  A    between atoms: C_17  and  N_18
REMARK                            x       y       z     vdW  Elec       q    Type
REMARK                         _______ _______ _______ _____ _____    ______ ____
ROOT
ATOM      1  C   UNL     1       1.115   9.514  19.844  0.00  0.00    +0.000 C 
ENDROOT
BRANCH   1  10
ATOM      2  C   UNL     1      -3.715  13.473  21.745  0.00  0.00    +0.000 A 
ATOM      3  C   UNL     1      -3.279  13.091  20.463  0.00  0.00    +0.000 A 
ATOM      4  C   UNL     1      -2.189  12.227  20.295  0.00  0.00    +0.000 A 
ATOM      5  C   UNL     1      -1.541  11.737  21.433  0.00  0.00    +0.000 A 
ATOM      6  C   UNL     1      -1.958  12.127  22.710  0.00  0.00    +0.000 A 
ATOM      7  C   UNL     1      -3.047  12.991  22.884  0.00  0.00    +0.000 A 
ATOM      8  C   UNL     1      -0.380  10.808  21.316  0.00  0.00    +0.000 C 
ATOM      9  O   UNL     1       0.238  10.479  22.323  0.00  0.00    +0.000 OA
ATOM     10  N   UNL     1      -0.041  10.381  20.037  0.00  0.00    +0.000 N 
ATOM     11  C   UNL     1      -1.017  10.495  18.960  0.00  0.00    +0.000 C 
ATOM     12  C   UNL     1      -1.671  11.873  18.930  0.00  0.00    +0.000 C 
BRANCH   2  14
ATOM     13  C   UNL     1      -6.007  13.709  21.124  0.00  0.00    +0.000 C 
ATOM     14  O   UNL     1      -4.837  14.263  21.713  0.00  0.00    +0.000 OA
ENDBRANCH   2  14
BRANCH   7  15
ATOM     15  O   UNL     1      -3.505  13.361  24.118  0.00  0.00    +0.000 OA
ATOM     16  C   UNL     1      -4.380  12.469  24.801  0.00  0.00    +0.000 C 
ENDBRANCH   7  15
ENDBRANCH   1  10
BRANCH   1  17
ATOM     17  C   UNL     1       1.615   9.530  18.395  0.00  0.00    +0.000 C 
BRANCH  17  18
ATOM     18  C   UNL     1       1.941   8.138  17.837  0.00  0.00    +0.000 C 
BRANCH  18  19
ATOM     19  C   UNL     1       2.583   7.242  18.897  0.00  0.00    +0.000 C 
BRANCH  19  20
ATOM     20  N   UNL     1       2.945   5.927  18.398  0.00  0.00    +0.000 N 
ATOM     21  C   UNL     1       2.349   4.743  18.789  0.00  0.00    +0.000 A 
ATOM     22  C   UNL     1       1.317   4.481  19.707  0.00  0.00    +0.000 A 
ATOM     23  C   UNL     1       0.932   3.157  19.928  0.00  0.00    +0.000 A 
ATOM     24  C   UNL     1       1.548   2.116  19.239  0.00  0.00    +0.000 A 
ATOM     25  C   UNL     1       2.548   2.387  18.299  0.00  0.00    +0.000 A 
ATOM     26  C   UNL     1       2.959   3.719  18.068  0.00  0.00    +0.000 A 
ATOM     27  C   UNL     1       3.914   4.323  17.191  0.00  0.00    +0.000 A 
ATOM     28  C   UNL     1       4.790   3.815  16.212  0.00  0.00    +0.000 A 
ATOM     29  C   UNL     1       5.615   4.690  15.497  0.00  0.00    +0.000 A 
ATOM     30  C   UNL     1       5.582   6.057  15.749  0.00  0.00    +0.000 A 
ATOM     31  C   UNL     1       4.726   6.586  16.717  0.00  0.00    +0.000 A 
ATOM     32  C   UNL     1       3.895   5.700  17.422  0.00  0.00    +0.000 A 
ENDBRANCH  19  20
ENDBRANCH  18  19
ENDBRANCH  17  18
ENDBRANCH   1  17
TORSDOF 7
ENDMDL
MODEL 3
REMARK VINA RESULT:      -8.7      0.558      2.856
REMARK  Name = 
REMARK  9 active torsions:
REMARK  status: ('A' for Active; 'I' for Inactive)
REMARK    1  A    between atoms: C_1  and  O_2
REMARK    2  A    between atoms: O_2  and  C_3
REMARK    3  A    between atoms: C_8  and  O_9
REMARK    4  A    between atoms: O_9  and  C_10
REMARK    5  A    between atoms: N_13  and  C_14
REMARK    6  A    between atoms: C_14  and  C_15
REMARK    7  A    between atoms: C_15  and  C_16
REMARK    8  A    between atoms: C_16  and  C_17
REMARK    9  A    between atoms: C_17  and  N_18
REMARK                            x       y       z     vdW  Elec       q    Type
REMARK                         _______ _______ _______ _____ _____    ______ ____
ROOT
ATOM      1  C   UNL     1       0.612  10.276  19.085  0.00  0.00    +0.000 C 
ENDROOT
BRANCH   1  10
ATOM      2  C   UNL     1      -5.494  12.284  17.948  0.00  0.00    +0.000 A 
ATOM      3  C   UNL     1      -4.567  11.621  17.124  0.00  0.00    +0.000 A 
ATOM      4  C   UNL     1      -3.285  11.301  17.586  0.00  0.00    +0.000 A 
ATOM      5  C   UNL     1      -2.939  11.643  18.897  0.00  0.00    +0.000 A 
ATOM      6  C   UNL     1      -3.850  12.318  19.717  0.00  0.00    +0.000 A 
ATOM      7  C   UNL     1      -5.134  12.642  19.259  0.00  0.00    +0.000 A 
ATOM      8  C   UNL     1      -1.591  11.320  19.446  0.00  0.00    +0.000 C 
ATOM      9  O   UNL     1      -1.276  11.725  20.560  0.00  0.00    +0.000 OA
ATOM     10  N   UNL     1      -0.740  10.582  18.632  0.00  0.00    +0.000 N 
ATOM     11  C   UNL     1      -1.292   9.825  17.515  0.00  0.00    +0.000 C 
ATOM     12  C   UNL     1      -2.264  10.660  16.689  0.00  0.00    +0.000 C 
BRANCH   2  14
ATOM     13  C   UNL     1      -6.998  13.721  16.778  0.00  0.00    +0.000 C 
ATOM     14  O   UNL     1      -6.719  12.449  17.350  0.00  0.00    +0.000 OA
ENDBRANCH   2  14
BRANCH   7  15
ATOM     15  O   UNL     1      -6.062  13.266  20.047  0.00  0.00    +0.000 OA
ATOM     16  C   UNL     1      -6.083  12.948  21.435  0.00  0.00    +0.000 C 
ENDBRANCH   7  15
ENDBRANCH   1  10
BRANCH   1  17
ATOM     17  C   UNL     1       1.515   9.806  17.938  0.00  0.00    +0.000 C 
BRANCH  17  18
ATOM     18  C   UNL     1       1.611   8.280  17.811  0.00  0.00    +0.000 C 
BRANCH  18  19
ATOM     19  C   UNL     1       2.546   7.684  18.864  0.00  0.00    +0.000 C 
BRANCH  19  20
ATOM     20  N   UNL     1       2.931   6.312  18.583  0.00  0.00    +0.000 N 
ATOM     21  C   UNL     1       2.413   5.200  19.220  0.00  0.00    +0.000 A 
ATOM     22  C   UNL     1       1.456   5.076  20.241  0.00  0.00    +0.000 A 
ATOM     23  C   UNL     1       1.143   3.803  20.721  0.00  0.00    +0.000 A 
ATOM     24  C   UNL     1       1.758   2.674  20.186  0.00  0.00    +0.000 A 
ATOM     25  C   UNL     1       2.682   2.802  19.144  0.00  0.00    +0.000 A 
ATOM     26  C   UNL     1       3.020   4.082  18.650  0.00  0.00    +0.000 A 
ATOM     27  C   UNL     1       3.889   4.547  17.615  0.00  0.00    +0.000 A 
ATOM     28  C   UNL     1       4.721   3.898  16.681  0.00  0.00    +0.000 A 
ATOM     29  C   UNL     1       5.459   4.655  15.765  0.00  0.00    +0.000 A 
ATOM     30  C   UNL     1       5.383   6.043  15.771  0.00  0.00    +0.000 A 
ATOM     31  C   UNL     1       4.570   6.712  16.689  0.00  0.00    +0.000 A 
ATOM     32  C   UNL     1       3.825   5.942  17.597  0.00  0.00    +0.000 A 
ENDBRANCH  19  20
ENDBRANCH  18  19
ENDBRANCH  17  18
ENDBRANCH   1  17
TORSDOF 7
ENDMDL
MODEL 4
REMARK VINA RESULT:      -8.7      1.237      2.114
REMARK  Name = 
REMARK  9 active torsions:
REMARK  status: ('A' for Active; 'I' for Inactive)
REMARK    1  A    between atoms: C_1  and  O_2
REMARK    2  A    between atoms: O_2  and  C_3
REMARK    3  A    between atoms: C_8  and  O_9
REMARK    4  A    between atoms: O_9  and  C_10
REMARK    5  A    between atoms: N_13  and  C_14
REMARK    6  A    between atoms: C_14  and  C_15
REMARK    7  A    between atoms: C_15  and  C_16
REMARK    8  A    between atoms: C_16  and  C_17
REMARK    9  A    between atoms: C_17  and  N_18
REMARK                            x       y       z     vdW  Elec       q    Type
REMARK                         _______ _______ _______ _____ _____    ______ ____
ROOT
ATOM      1  C   UNL     1       1.263  10.347  18.195  0.00  0.00    +0.000 C 
ENDROOT
BRANCH   1  10
ATOM      2  C   UNL     1      -4.606  12.696  19.822  0.00  0.00    +0.000 A 
ATOM      3  C   UNL     1      -3.337  12.888  20.399  0.00  0.00    +0.000 A 
ATOM      4  C   UNL     1      -2.201  12.256  19.879  0.00  0.00    +0.000 A 
ATOM      5  C   UNL     1      -2.346  11.430  18.761  0.00  0.00    +0.000 A 
ATOM      6  C   UNL     1      -3.607  11.221  18.192  0.00  0.00    +0.000 A 
ATOM      7  C   UNL     1      -4.747  11.850  18.709  0.00  0.00    +0.000 A 
ATOM      8  C   UNL     1      -1.171  10.738  18.159  0.00  0.00    +0.000 C 
ATOM      9  O   UNL     1      -1.340   9.936  17.246  0.00  0.00    +0.000 OA
ATOM     10  N   UNL     1       0.076  11.028  18.700  0.00  0.00    +0.000 N 
ATOM     11  C   UNL     1       0.250  12.237  19.496  0.00  0.00    +0.000 C 
ATOM     12  C   UNL     1      -0.856  12.397  20.534  0.00  0.00    +0.000 C 
BRANCH   2  14
ATOM     13  C   UNL     1      -6.125  12.966  21.643  0.00  0.00    +0.000 C 
ATOM     14  O   UNL     1      -5.584  13.451  20.421  0.00  0.00    +0.000 OA
ENDBRANCH   2  14
BRANCH   7  15
ATOM     15  O   UNL     1      -5.988  11.698  18.155  0.00  0.00    +0.000 OA
ATOM     16  C   UNL     1      -6.804  10.630  18.626  0.00  0.00    +0.000 C 
ENDBRANCH   7  15
ENDBRANCH   1  10
BRANCH   1  17
ATOM     17  C   UNL     1       1.531   9.029  18.931  0.00  0.00    +0.000 C 
BRANCH  17  18
ATOM     18  C   UNL     1       2.164   7.945  18.050  0.00  0.00    +0.000 C 
BRANCH  18  19
ATOM     19  C   UNL     1       3.049   7.001  18.864  0.00  0.00    +0.000 C 
BRANCH  19  20
ATOM     20  N   UNL     1       3.271   5.718  18.219  0.00  0.00    +0.000 N 
ATOM     21  C   UNL     1       4.263   5.462  17.291  0.00  0.00    +0.000 A 
ATOM     22  C   UNL     1       5.255   6.291  16.739  0.00  0.00    +0.000 A 
ATOM     23  C   UNL     1       6.120   5.760  15.781  0.00  0.00    +0.000 A 
ATOM     24  C   UNL     1       6.011   4.428  15.389  0.00  0.00    +0.000 A 
ATOM     25  C   UNL     1       5.046   3.599  15.970  0.00  0.00    +0.000 A 
ATOM     26  C   UNL     1       4.155   4.120  16.936  0.00  0.00    +0.000 A 
ATOM     27  C   UNL     1       3.095   3.555  17.711  0.00  0.00    +0.000 A 
ATOM     28  C   UNL     1       2.554   2.258  17.819  0.00  0.00    +0.000 A 
ATOM     29  C   UNL     1       1.495   2.018  18.701  0.00  0.00    +0.000 A 
ATOM     30  C   UNL     1       0.968   3.050  19.469  0.00  0.00    +0.000 A 
ATOM     31  C   UNL     1       1.481   4.345  19.379  0.00  0.00    +0.000 A 
ATOM     32  C   UNL     1       2.551   4.573  18.497  0.00  0.00    +0.000 A 
ENDBRANCH  19  20
ENDBRANCH  18  19
ENDBRANCH  17  18
ENDBRANCH   1  17
TORSDOF 7
ENDMDL
MODEL 5
REMARK VINA RESULT:      -8.7      2.319      4.089
REMARK  Name = 
REMARK  9 active torsions:
REMARK  status: ('A' for Active; 'I' for Inactive)
REMARK    1  A    between atoms: C_1  and  O_2
REMARK    2  A    between atoms: O_2  and  C_3
REMARK    3  A    between atoms: C_8  and  O_9
REMARK    4  A    between atoms: O_9  and  C_10
REMARK    5  A    between atoms: N_13  and  C_14
REMARK    6  A    between atoms: C_14  and  C_15
REMARK    7  A    between atoms: C_15  and  C_16
REMARK    8  A    between atoms: C_16  and  C_17
REMARK    9  A    between atoms: C_17  and  N_18
REMARK                            x       y       z     vdW  Elec       q    Type
REMARK                         _______ _______ _______ _____ _____    ______ ____
ROOT
ATOM      1  C   UNL     1       1.438   8.610  21.681  0.00  0.00    +0.000 C 
ENDROOT
BRANCH   1  10
ATOM      2  C   UNL     1      -3.032  13.368  21.672  0.00  0.00    +0.000 A 
ATOM      3  C   UNL     1      -2.255  12.822  20.633  0.00  0.00    +0.000 A 
ATOM      4  C   UNL     1      -1.331  11.800  20.879  0.00  0.00    +0.000 A 
ATOM      5  C   UNL     1      -1.196  11.317  22.184  0.00  0.00    +0.000 A 
ATOM      6  C   UNL     1      -1.953  11.866  23.225  0.00  0.00    +0.000 A 
ATOM      7  C   UNL     1      -2.878  12.890  22.985  0.00  0.00    +0.000 A 
ATOM      8  C   UNL     1      -0.235  10.223  22.504  0.00  0.00    +0.000 C 
ATOM      9  O   UNL     1      -0.058   9.892  23.672  0.00  0.00    +0.000 OA
ATOM     10  N   UNL     1       0.443   9.648  21.435  0.00  0.00    +0.000 N 
ATOM     11  C   UNL     1      -0.077   9.813  20.083  0.00  0.00    +0.000 C 
ATOM     12  C   UNL     1      -0.446  11.263  19.790  0.00  0.00    +0.000 C 
BRANCH   2  14
ATOM     13  C   UNL     1      -5.204  13.838  20.804  0.00  0.00    +0.000 C 
ATOM     14  O   UNL     1      -3.931  14.307  21.231  0.00  0.00    +0.000 OA
ENDBRANCH   2  14
BRANCH   7  15
ATOM     15  O   UNL     1      -3.660  13.423  23.972  0.00  0.00    +0.000 OA
ATOM     16  C   UNL     1      -4.440  12.530  24.763  0.00  0.00    +0.000 C 
ENDBRANCH   7  15
ENDBRANCH   1  10
BRANCH   1  17
ATOM     17  C   UNL     1       1.370   7.485  20.641  0.00  0.00    +0.000 C 
BRANCH  17  18
ATOM     18  C   UNL     1       2.633   7.362  19.779  0.00  0.00    +0.000 C 
BRANCH  18  19
ATOM     19  C   UNL     1       2.301   6.928  18.351  0.00  0.00    +0.000 C 
BRANCH  19  20
ATOM     20  N   UNL     1       2.900   5.658  17.980  0.00  0.00    +0.000 N 
ATOM     21  C   UNL     1       2.398   4.417  18.325  0.00  0.00    +0.000 A 
ATOM     22  C   UNL     1       1.268   4.048  19.074  0.00  0.00    +0.000 A 
ATOM     23  C   UNL     1       1.018   2.691  19.292  0.00  0.00    +0.000 A 
ATOM     24  C   UNL     1       1.865   1.721  18.762  0.00  0.00    +0.000 A 
ATOM     25  C   UNL     1       2.966   2.095  17.986  0.00  0.00    +0.000 A 
ATOM     26  C   UNL     1       3.243   3.463  17.761  0.00  0.00    +0.000 A 
ATOM     27  C   UNL     1       4.249   4.162  17.024  0.00  0.00    +0.000 A 
ATOM     28  C   UNL     1       5.332   3.746  16.225  0.00  0.00    +0.000 A 
ATOM     29  C   UNL     1       6.150   4.702  15.613  0.00  0.00    +0.000 A 
ATOM     30  C   UNL     1       5.907   6.059  15.791  0.00  0.00    +0.000 A 
ATOM     31  C   UNL     1       4.843   6.498  16.582  0.00  0.00    +0.000 A 
ATOM     32  C   UNL     1       4.021   5.530  17.183  0.00  0.00    +0.000 A 
ENDBRANCH  19  20
ENDBRANCH  18  19
ENDBRANCH  17  18
ENDBRANCH   1  17
TORSDOF 7
ENDMDL
MODEL 6
REMARK VINA RESULT:      -8.7      2.119      3.113
REMARK  Name = 
REMARK  9 active torsions:
REMARK  status: ('A' for Active; 'I' for Inactive)
REMARK    1  A    between atoms: C_1  and  O_2
REMARK    2  A    between atoms: O_2  and  C_3
REMARK    3  A    between atoms: C_8  and  O_9
REMARK    4  A    between atoms: O_9  and  C_10
REMARK    5  A    between atoms: N_13  and  C_14
REMARK    6  A    between atoms: C_14  and  C_15
REMARK    7  A    between atoms: C_15  and  C_16
REMARK    8  A    between atoms: C_16  and  C_17
REMARK    9  A    between atoms: C_17  and  N_18
REMARK                            x       y       z     vdW  Elec       q    Type
REMARK                         _______ _______ _______ _____ _____    ______ ____
ROOT
ATOM      1  C   UNL     1       0.441   9.902  18.125  0.00  0.00    +0.000 C 
ENDROOT
BRANCH   1  10
ATOM      2  C   UNL     1      -2.854  12.849  22.929  0.00  0.00    +0.000 A 
ATOM      3  C   UNL     1      -1.893  11.823  22.957  0.00  0.00    +0.000 A 
ATOM      4  C   UNL     1      -1.324  11.329  21.777  0.00  0.00    +0.000 A 
ATOM      5  C   UNL     1      -1.724  11.883  20.557  0.00  0.00    +0.000 A 
ATOM      6  C   UNL     1      -2.692  12.892  20.520  0.00  0.00    +0.000 A 
ATOM      7  C   UNL     1      -3.265  13.389  21.697  0.00  0.00    +0.000 A 
ATOM      8  C   UNL     1      -1.147  11.402  19.269  0.00  0.00    +0.000 C 
ATOM      9  O   UNL     1      -1.591  11.829  18.208  0.00  0.00    +0.000 OA
ATOM     10  N   UNL     1      -0.132  10.455  19.347  0.00  0.00    +0.000 N 
ATOM     11  C   UNL     1       0.592  10.282  20.600  0.00  0.00    +0.000 C 
ATOM     12  C   UNL     1      -0.352  10.183  21.793  0.00  0.00    +0.000 C 
BRANCH   2  14
ATOM     13  C   UNL     1      -4.326  12.554  24.784  0.00  0.00    +0.000 C 
ATOM     14  O   UNL     1      -3.243  13.252  24.183  0.00  0.00    +0.000 OA
ENDBRANCH   2  14
BRANCH   7  15
ATOM     15  O   UNL     1      -4.185  14.400  21.700  0.00  0.00    +0.000 OA
ATOM     16  C   UNL     1      -5.560  14.053  21.560  0.00  0.00    +0.000 C 
ENDBRANCH   7  15
ENDBRANCH   1  10
BRANCH   1  17
ATOM     17  C   UNL     1       1.876   9.406  18.332  0.00  0.00    +0.000 C 
BRANCH  17  18
ATOM     18  C   UNL     1       2.143   8.017  17.738  0.00  0.00    +0.000 C 
BRANCH  18  19
ATOM     19  C   UNL     1       2.868   7.108  18.730  0.00  0.00    +0.000 C 
BRANCH  19  20
ATOM     20  N   UNL     1       3.129   5.777  18.210  0.00  0.00    +0.000 N 
ATOM     21  C   UNL     1       4.109   5.468  17.286  0.00  0.00    +0.000 A 
ATOM     22  C   UNL     1       5.054   6.275  16.629  0.00  0.00    +0.000 A 
ATOM     23  C   UNL     1       5.919   5.684  15.706  0.00  0.00    +0.000 A 
ATOM     24  C   UNL     1       5.856   4.317  15.451  0.00  0.00    +0.000 A 
ATOM     25  C   UNL     1       4.938   3.514  16.136  0.00  0.00    +0.000 A 
ATOM     26  C   UNL     1       4.048   4.093  17.069  0.00  0.00    +0.000 A 
ATOM     27  C   UNL     1       3.030   3.568  17.923  0.00  0.00    +0.000 A 
ATOM     28  C   UNL     1       2.545   2.269  18.173  0.00  0.00    +0.000 A 
ATOM     29  C   UNL     1       1.517   2.078  19.102  0.00  0.00    +0.000 A 
ATOM     30  C   UNL     1       0.965   3.160  19.778  0.00  0.00    +0.000 A 
ATOM     31  C   UNL     1       1.422   4.459  19.546  0.00  0.00    +0.000 A 
ATOM     32  C   UNL     1       2.462   4.638  18.619  0.00  0.00    +0.000 A 
ENDBRANCH  19  20
ENDBRANCH  18  19
ENDBRANCH  17  18
ENDBRANCH   1  17
TORSDOF 7
ENDMDL
MODEL 7
REMARK VINA RESULT:      -8.6      2.042      2.674
REMARK  Name = 
REMARK  9 active torsions:
REMARK  status: ('A' for Active; 'I' for Inactive)
REMARK    1  A    between atoms: C_1  and  O_2
REMARK    2  A    between atoms: O_2  and  C_3
REMARK    3  A    between atoms: C_8  and  O_9
REMARK    4  A    between atoms: O_9  and  C_10
REMARK    5  A    between atoms: N_13  and  C_14
REMARK    6  A    between atoms: C_14  and  C_15
REMARK    7  A    between atoms: C_15  and  C_16
REMARK    8  A    between atoms: C_16  and  C_17
REMARK    9  A    between atoms: C_17  and  N_18
REMARK                            x       y       z     vdW  Elec       q    Type
REMARK                         _______ _______ _______ _____ _____    ______ ____
ROOT
ATOM      1  C   UNL     1       1.185   9.641  19.789  0.00  0.00    +0.000 C 
ENDROOT
BRANCH   1  10
ATOM      2  C   UNL     1      -3.638  13.477  21.942  0.00  0.00    +0.000 A 
ATOM      3  C   UNL     1      -3.269  13.094  20.640  0.00  0.00    +0.000 A 
ATOM      4  C   UNL     1      -2.166  12.261  20.415  0.00  0.00    +0.000 A 
ATOM      5  C   UNL     1      -1.436  11.803  21.515  0.00  0.00    +0.000 A 
ATOM      6  C   UNL     1      -1.787  12.194  22.812  0.00  0.00    +0.000 A 
ATOM      7  C   UNL     1      -2.888  13.028  23.043  0.00  0.00    +0.000 A 
ATOM      8  C   UNL     1      -0.257  10.907  21.337  0.00  0.00    +0.000 C 
ATOM      9  O   UNL     1       0.430  10.606  22.308  0.00  0.00    +0.000 OA
ATOM     10  N   UNL     1       0.017  10.476  20.044  0.00  0.00    +0.000 N 
ATOM     11  C   UNL     1      -1.025  10.550  19.027  0.00  0.00    +0.000 C 
ATOM     12  C   UNL     1      -1.721  11.907  19.024  0.00  0.00    +0.000 C 
BRANCH   2  14
ATOM     13  C   UNL     1      -4.921  15.245  20.981  0.00  0.00    +0.000 C 
ATOM     14  O   UNL     1      -4.783  14.234  21.971  0.00  0.00    +0.000 OA
ENDBRANCH   2  14
BRANCH   7  15
ATOM     15  O   UNL     1      -3.282  13.398  24.299  0.00  0.00    +0.000 OA
ATOM     16  C   UNL     1      -2.859  14.669  24.784  0.00  0.00    +0.000 C 
ENDBRANCH   7  15
ENDBRANCH   1  10
BRANCH   1  17
ATOM     17  C   UNL     1       1.577   9.631  18.307  0.00  0.00    +0.000 C 
BRANCH  17  18
ATOM     18  C   UNL     1       1.994   8.250  17.786  0.00  0.00    +0.000 C 
BRANCH  18  19
ATOM     19  C   UNL     1       2.540   7.365  18.908  0.00  0.00    +0.000 C 
BRANCH  19  20
ATOM     20  N   UNL     1       2.885   6.024  18.468  0.00  0.00    +0.000 N 
ATOM     21  C   UNL     1       3.833   5.728  17.506  0.00  0.00    +0.000 A 
ATOM     22  C   UNL     1       4.661   6.558  16.732  0.00  0.00    +0.000 A 
ATOM     23  C   UNL     1       5.518   5.973  15.798  0.00  0.00    +0.000 A 
ATOM     24  C   UNL     1       5.562   4.589  15.647  0.00  0.00    +0.000 A 
ATOM     25  C   UNL     1       4.762   3.767  16.447  0.00  0.00    +0.000 A 
ATOM     26  C   UNL     1       3.880   4.340  17.392  0.00  0.00    +0.000 A 
ATOM     27  C   UNL     1       2.965   3.799  18.348  0.00  0.00    +0.000 A 
ATOM     28  C   UNL     1       2.614   2.487  18.721  0.00  0.00    +0.000 A 
ATOM     29  C   UNL     1       1.664   2.283  19.728  0.00  0.00    +0.000 A 
ATOM     30  C   UNL     1       1.059   3.363  20.359  0.00  0.00    +0.000 A 
ATOM     31  C   UNL     1       1.385   4.674  20.005  0.00  0.00    +0.000 A 
ATOM     32  C   UNL     1       2.348   4.868  19.000  0.00  0.00    +0.000 A 
ENDBRANCH  19  20
ENDBRANCH  18  19
ENDBRANCH  17  18
ENDBRANCH   1  17
TORSDOF 7
ENDMDL
MODEL 8
REMARK VINA RESULT:      -8.6      2.579      3.046
REMARK  Name = 
REMARK  9 active torsions:
REMARK  status: ('A' for Active; 'I' for Inactive)
REMARK    1  A    between atoms: C_1  and  O_2
REMARK    2  A    between atoms: O_2  and  C_3
REMARK    3  A    between atoms: C_8  and  O_9
REMARK    4  A    between atoms: O_9  and  C_10
REMARK    5  A    between atoms: N_13  and  C_14
REMARK    6  A    between atoms: C_14  and  C_15
REMARK    7  A    between atoms: C_15  and  C_16
REMARK    8  A    between atoms: C_16  and  C_17
REMARK    9  A    between atoms: C_17  and  N_18
REMARK                            x       y       z     vdW  Elec       q    Type
REMARK                         _______ _______ _______ _____ _____    ______ ____
ROOT
ATOM      1  C   UNL     1       1.515   8.824  21.595  0.00  0.00    +0.000 C 
ENDROOT
BRANCH   1  10
ATOM      2  C   UNL     1      -3.219  13.303  21.972  0.00  0.00    +0.000 A 
ATOM      3  C   UNL     1      -2.447  12.858  20.883  0.00  0.00    +0.000 A 
ATOM      4  C   UNL     1      -1.458  11.881  21.047  0.00  0.00    +0.000 A 
ATOM      5  C   UNL     1      -1.253  11.341  22.320  0.00  0.00    +0.000 A 
ATOM      6  C   UNL     1      -2.004  11.791  23.410  0.00  0.00    +0.000 A 
ATOM      7  C   UNL     1      -2.995  12.769  23.253  0.00  0.00    +0.000 A 
ATOM      8  C   UNL     1      -0.219  10.292  22.552  0.00  0.00    +0.000 C 
ATOM      9  O   UNL     1       0.015   9.912  23.695  0.00  0.00    +0.000 OA
ATOM     10  N   UNL     1       0.455   9.812  21.435  0.00  0.00    +0.000 N 
ATOM     11  C   UNL     1      -0.118  10.014  20.110  0.00  0.00    +0.000 C 
ATOM     12  C   UNL     1      -0.580  11.453  19.904  0.00  0.00    +0.000 C 
BRANCH   2  14
ATOM     13  C   UNL     1      -3.753  15.388  20.941  0.00  0.00    +0.000 C 
ATOM     14  O   UNL     1      -4.185  14.208  21.607  0.00  0.00    +0.000 OA
ENDBRANCH   2  14
BRANCH   7  15
ATOM     15  O   UNL     1      -3.773  13.204  24.290  0.00  0.00    +0.000 OA
ATOM     16  C   UNL     1      -4.940  12.453  24.610  0.00  0.00    +0.000 C 
ENDBRANCH   7  15
ENDBRANCH   1  10
BRANCH   1  17
ATOM     17  C   UNL     1       1.316   7.608  20.683  0.00  0.00    +0.000 C 
BRANCH  17  18
ATOM     18  C   UNL     1       2.588   7.171  19.946  0.00  0.00    +0.000 C 
BRANCH  18  19
ATOM     19  C   UNL     1       2.319   6.906  18.464  0.00  0.00    +0.000 C 
BRANCH  19  20
ATOM     20  N   UNL     1       2.861   5.642  17.997  0.00  0.00    +0.000 N 
ATOM     21  C   UNL     1       3.976   5.510  17.191  0.00  0.00    +0.000 A 
ATOM     22  C   UNL     1       4.833   6.470  16.628  0.00  0.00    +0.000 A 
ATOM     23  C   UNL     1       5.883   6.041  15.814  0.00  0.00    +0.000 A 
ATOM     24  C   UNL     1       6.086   4.684  15.577  0.00  0.00    +0.000 A 
ATOM     25  C   UNL     1       5.252   3.732  16.171  0.00  0.00    +0.000 A 
ATOM     26  C   UNL     1       4.177   4.146  16.991  0.00  0.00    +0.000 A 
ATOM     27  C   UNL     1       3.177   3.450  17.739  0.00  0.00    +0.000 A 
ATOM     28  C   UNL     1       2.901   2.086  17.956  0.00  0.00    +0.000 A 
ATOM     29  C   UNL     1       1.825   1.717  18.771  0.00  0.00    +0.000 A 
ATOM     30  C   UNL     1       1.023   2.684  19.364  0.00  0.00    +0.000 A 
ATOM     31  C   UNL     1       1.272   4.044  19.162  0.00  0.00    +0.000 A 
ATOM     32  C   UNL     1       2.360   4.403  18.350  0.00  0.00    +0.000 A 
ENDBRANCH  19  20
ENDBRANCH  18  19
ENDBRANCH  17  18
ENDBRANCH   1  17
TORSDOF 7
ENDMDL
MODEL 9
REMARK VINA RESULT:      -8.6      1.236      3.506
REMARK  Name = 
REMARK  9 active torsions:
REMARK  status: ('A' for Active; 'I' for Inactive)
REMARK    1  A    between atoms: C_1  and  O_2
REMARK    2  A    between atoms: O_2  and  C_3
REMARK    3  A    between atoms: C_8  and  O_9
REMARK    4  A    between atoms: O_9  and  C_10
REMARK    5  A    between atoms: N_13  and  C_14
REMARK    6  A    between atoms: C_14  and  C_15
REMARK    7  A    between atoms: C_15  and  C_16
REMARK    8  A    between atoms: C_16  and  C_17
REMARK    9  A    between atoms: C_17  and  N_18
REMARK                            x       y       z     vdW  Elec       q    Type
REMARK                         _______ _______ _______ _____ _____    ______ ____
ROOT
ATOM      1  C   UNL     1       1.130  10.348  18.169  0.00  0.00    +0.000 C 
ENDROOT
BRANCH   1  10
ATOM      2  C   UNL     1      -4.664  12.809  19.899  0.00  0.00    +0.000 A 
ATOM      3  C   UNL     1      -3.386  12.955  20.470  0.00  0.00    +0.000 A 
ATOM      4  C   UNL     1      -2.271  12.306  19.926  0.00  0.00    +0.000 A 
ATOM      5  C   UNL     1      -2.446  11.510  18.790  0.00  0.00    +0.000 A 
ATOM      6  C   UNL     1      -3.716  11.346  18.228  0.00  0.00    +0.000 A 
ATOM      7  C   UNL     1      -4.836  11.992  18.767  0.00  0.00    +0.000 A 
ATOM      8  C   UNL     1      -1.293  10.802  18.163  0.00  0.00    +0.000 C 
ATOM      9  O   UNL     1      -1.490  10.025  17.233  0.00  0.00    +0.000 OA
ATOM     10  N   UNL     1      -0.035  11.048  18.699  0.00  0.00    +0.000 N 
ATOM     11  C   UNL     1       0.176  12.233  19.521  0.00  0.00    +0.000 C 
ATOM     12  C   UNL     1      -0.918  12.397  20.572  0.00  0.00    +0.000 C 
BRANCH   2  14
ATOM     13  C   UNL     1      -5.222  14.861  20.981  0.00  0.00    +0.000 C 
ATOM     14  O   UNL     1      -5.618  13.574  20.522  0.00  0.00    +0.000 OA
ENDBRANCH   2  14
BRANCH   7  15
ATOM     15  O   UNL     1      -6.084  11.885  18.221  0.00  0.00    +0.000 OA
ATOM     16  C   UNL     1      -6.856  10.731  18.540  0.00  0.00    +0.000 C 
ENDBRANCH   7  15
ENDBRANCH   1  10
BRANCH   1  17
ATOM     17  C   UNL     1       1.455   9.078  18.965  0.00  0.00    +0.000 C 
BRANCH  17  18
ATOM     18  C   UNL     1       2.190   8.008  18.150  0.00  0.00    +0.000 C 
BRANCH  18  19
ATOM     19  C   UNL     1       2.921   7.014  19.054  0.00  0.00    +0.000 C 
BRANCH  19  20
ATOM     20  N   UNL     1       3.158   5.727  18.422  0.00  0.00    +0.000 N 
ATOM     21  C   UNL     1       2.454   4.570  18.698  0.00  0.00    +0.000 A 
ATOM     22  C   UNL     1       1.402   4.314  19.595  0.00  0.00    +0.000 A 
ATOM     23  C   UNL     1       0.895   3.017  19.685  0.00  0.00    +0.000 A 
ATOM     24  C   UNL     1       1.412   1.997  18.890  0.00  0.00    +0.000 A 
ATOM     25  C   UNL     1       2.433   2.267  17.973  0.00  0.00    +0.000 A 
ATOM     26  C   UNL     1       2.967   3.572  17.872  0.00  0.00    +0.000 A 
ATOM     27  C   UNL     1       3.974   4.169  17.052  0.00  0.00    +0.000 A 
ATOM     28  C   UNL     1       4.798   3.683  16.019  0.00  0.00    +0.000 A 
ATOM     29  C   UNL     1       5.702   4.545  15.387  0.00  0.00    +0.000 A 
ATOM     30  C   UNL     1       5.796   5.877  15.775  0.00  0.00    +0.000 A 
ATOM     31  C   UNL     1       4.994   6.383  16.799  0.00  0.00    +0.000 A 
ATOM     32  C   UNL     1       4.083   5.512  17.419  0.00  0.00    +0.000 A 
ENDBRANCH  19  20
ENDBRANCH  18  19
ENDBRANCH  17  18
ENDBRANCH   1  17
TORSDOF 7
ENDMDL
