MODEL 1
REMARK VINA RESULT:      -7.1      0.000      0.000
REMARK  Name = 
REMARK  6 active torsions:
REMARK  status: ('A' for Active; 'I' for Inactive)
REMARK    1  A    between atoms: C_1  and  N_2
REMARK    2  A    between atoms: N_2  and  C_3
REMARK    3  A    between atoms: N_2  and  C_4
REMARK    4  A    between atoms: C_7  and  C_8
REMARK    5  A    between atoms: C_8  and  N_9
REMARK    6  A    between atoms: N_9  and  C_10
REMARK                            x       y       z     vdW  Elec       q    Type
REMARK                         _______ _______ _______ _____ _____    ______ ____
ROOT
ATOM      1  N   UNL     1       2.397   6.504  17.893  0.00  0.00    +0.000 N 
ATOM      2  H   UNL     1       2.334   6.337  16.893  0.00  0.00    +0.000 HD
ENDROOT
BRANCH   1   3
ATOM      3  C   UNL     1       3.257   5.546  18.478  0.00  0.00    +0.000 A 
ATOM      4  N   UNL     1       4.553   5.606  18.118  0.00  0.00    +0.000 NA
ATOM      5  C   UNL     1       5.378   4.692  18.622  0.00  0.00    +0.000 A 
ATOM      6  N   UNL     1       5.034   3.649  19.359  0.00  0.00    +0.000 NA
ATOM      7  C   UNL     1       3.768   3.608  19.772  0.00  0.00    +0.000 A 
ATOM      8  C   UNL     1       3.422   2.547  20.590  0.00  0.00    +0.000 A 
ATOM      9  C   UNL     1       2.198   2.487  21.243  0.00  0.00    +0.000 A 
ATOM     10  C   UNL     1       1.283   3.514  21.053  0.00  0.00    +0.000 A 
ATOM     11  C   UNL     1       1.566   4.545  20.138  0.00  0.00    +0.000 A 
ATOM     12  C   UNL     1       2.816   4.599  19.449  0.00  0.00    +0.000 A 
ENDBRANCH   1   3
BRANCH   1  13
ATOM     13  C   UNL     1       2.785   7.915  18.138  0.00  0.00    +0.000 C 
BRANCH  13  17
ATOM     14  C   UNL     1      -0.035  10.073  20.707  0.00  0.00    +0.000 A 
ATOM     15  C   UNL     1       0.112  10.353  19.340  0.00  0.00    +0.000 A 
ATOM     16  C   UNL     1       1.005   9.643  18.524  0.00  0.00    +0.000 A 
ATOM     17  C   UNL     1       1.778   8.598  19.037  0.00  0.00    +0.000 A 
ATOM     18  C   UNL     1       1.566   8.225  20.364  0.00  0.00    +0.000 A 
ATOM     19  C   UNL     1       0.677   8.954  21.178  0.00  0.00    +0.000 A 
BRANCH  14  21
ATOM     20  C   UNL     1      -1.383  12.123  21.076  0.00  0.00    +0.000 C 
ATOM     21  N   UNL     1      -0.833  10.853  21.542  0.00  0.00    +0.000 N 
ATOM     22  C   UNL     1      -0.837  10.616  22.982  0.00  0.00    +0.000 C 
ENDBRANCH  14  21
ENDBRANCH  13  17
ENDBRANCH   1  13
TORSDOF 4
ENDMDL
MODEL 2
REMARK VINA RESULT:      -7.0      0.311      1.081
REMARK  Name = 
REMARK  6 active torsions:
REMARK  status: ('A' for Active; 'I' for Inactive)
REMARK    1  A    between atoms: C_1  and  N_2
REMARK    2  A    between atoms: N_2  and  C_3
REMARK    3  A    between atoms: N_2  and  C_4
REMARK    4  A    between atoms: C_7  and  C_8
REMARK    5  A    between atoms: C_8  and  N_9
REMARK    6  A    between atoms: N_9  and  C_10
REMARK                            x       y       z     vdW  Elec       q    Type
REMARK                         _______ _______ _______ _____ _____    ______ ____
ROOT
ATOM      1  N   UNL     1       2.327   6.299  17.882  0.00  0.00    +0.000 N 
ATOM      2  H   UNL     1       2.150   6.030  16.918  0.00  0.00    +0.000 HD
ENDROOT
BRANCH   1   3
ATOM      3  C   UNL     1       3.210   5.369  18.477  0.00  0.00    +0.000 A 
ATOM      4  N   UNL     1       4.491   5.411  18.066  0.00  0.00    +0.000 NA
ATOM      5  C   UNL     1       5.336   4.521  18.580  0.00  0.00    +0.000 A 
ATOM      6  N   UNL     1       5.022   3.512  19.376  0.00  0.00    +0.000 NA
ATOM      7  C   UNL     1       3.772   3.491  19.837  0.00  0.00    +0.000 A 
ATOM      8  C   UNL     1       3.458   2.468  20.715  0.00  0.00    +0.000 A 
ATOM      9  C   UNL     1       2.260   2.438  21.415  0.00  0.00    +0.000 A 
ATOM     10  C   UNL     1       1.337   3.455  21.213  0.00  0.00    +0.000 A 
ATOM     11  C   UNL     1       1.584   4.444  20.243  0.00  0.00    +0.000 A 
ATOM     12  C   UNL     1       2.807   4.466  19.506  0.00  0.00    +0.000 A 
ENDBRANCH   1   3
BRANCH   1  13
ATOM     13  C   UNL     1       2.791   7.708  17.927  0.00  0.00    +0.000 C 
BRANCH  13  17
ATOM     14  C   UNL     1       0.279   9.868  20.797  0.00  0.00    +0.000 A 
ATOM     15  C   UNL     1       1.003   8.715  21.139  0.00  0.00    +0.000 A 
ATOM     16  C   UNL     1       1.818   8.044  20.217  0.00  0.00    +0.000 A 
ATOM     17  C   UNL     1       1.966   8.511  18.909  0.00  0.00    +0.000 A 
ATOM     18  C   UNL     1       1.350   9.718  18.576  0.00  0.00    +0.000 A 
ATOM     19  C   UNL     1       0.522  10.377  19.507  0.00  0.00    +0.000 A 
BRANCH  14  21
ATOM     20  C   UNL     1      -1.253  11.741  21.343  0.00  0.00    +0.000 C 
ATOM     21  N   UNL     1      -0.620  10.468  21.677  0.00  0.00    +0.000 N 
ATOM     22  C   UNL     1      -0.672  10.047  23.072  0.00  0.00    +0.000 C 
ENDBRANCH  14  21
ENDBRANCH  13  17
ENDBRANCH   1  13
TORSDOF 4
ENDMDL
MODEL 3
REMARK VINA RESULT:      -7.0      2.239      4.700
REMARK  Name = 
REMARK  6 active torsions:
REMARK  status: ('A' for Active; 'I' for Inactive)
REMARK    1  A    between atoms: C_1  and  N_2
REMARK    2  A    between atoms: N_2  and  C_3
REMARK    3  A    between atoms: N_2  and  C_4
REMARK    4  A    between atoms: C_7  and  C_8
REMARK    5  A    between atoms: C_8  and  N_9
REMARK    6  A    between atoms: N_9  and  C_10
REMARK                            x       y       z     vdW  Elec       q    Type
REMARK                         _______ _______ _______ _____ _____    ______ ____
ROOT
ATOM      1  N   UNL     1       4.937   3.330  19.126  0.00  0.00    +0.000 N 
ATOM      2  H   UNL     1       5.278   2.386  18.969  0.00  0.00    +0.000 HD
ENDROOT
BRANCH   1   3
ATOM      3  C   UNL     1       5.872   4.260  18.613  0.00  0.00    +0.000 A 
ATOM      4  N   UNL     1       6.547   4.992  19.518  0.00  0.00    +0.000 NA
ATOM      5  C   UNL     1       7.404   5.902  19.063  0.00  0.00    +0.000 A 
ATOM      6  N   UNL     1       7.580   6.247  17.798  0.00  0.00    +0.000 NA
ATOM      7  C   UNL     1       6.964   5.494  16.889  0.00  0.00    +0.000 A 
ATOM      8  C   UNL     1       7.194   5.819  15.563  0.00  0.00    +0.000 A 
ATOM      9  C   UNL     1       6.774   5.005  14.520  0.00  0.00    +0.000 A 
ATOM     10  C   UNL     1       6.082   3.839  14.814  0.00  0.00    +0.000 A 
ATOM     11  C   UNL     1       5.737   3.544  16.146  0.00  0.00    +0.000 A 
ATOM     12  C   UNL     1       6.151   4.389  17.220  0.00  0.00    +0.000 A 
ENDBRANCH   1   3
BRANCH   1  13
ATOM     13  C   UNL     1       3.566   3.463  18.573  0.00  0.00    +0.000 C 
BRANCH  13  17
ATOM     14  C   UNL     1       1.897   7.307  19.857  0.00  0.00    +0.000 A 
ATOM     15  C   UNL     1       2.355   7.077  18.550  0.00  0.00    +0.000 A 
ATOM     16  C   UNL     1       2.870   5.837  18.147  0.00  0.00    +0.000 A 
ATOM     17  C   UNL     1       2.929   4.756  19.030  0.00  0.00    +0.000 A 
ATOM     18  C   UNL     1       2.374   4.924  20.300  0.00  0.00    +0.000 A 
ATOM     19  C   UNL     1       1.872   6.179  20.699  0.00  0.00    +0.000 A 
BRANCH  14  21
ATOM     20  C   UNL     1       1.154   8.802  21.691  0.00  0.00    +0.000 C 
ATOM     21  N   UNL     1       1.495   8.569  20.291  0.00  0.00    +0.000 N 
ATOM     22  C   UNL     1       1.058   9.571  19.325  0.00  0.00    +0.000 C 
ENDBRANCH  14  21
ENDBRANCH  13  17
ENDBRANCH   1  13
TORSDOF 4
ENDMDL
MODEL 4
REMARK VINA RESULT:      -7.0      2.239      4.569
REMARK  Name = 
REMARK  6 active torsions:
REMARK  status: ('A' for Active; 'I' for Inactive)
REMARK    1  A    between atoms: C_1  and  N_2
REMARK    2  A    between atoms: N_2  and  C_3
REMARK    3  A    between atoms: N_2  and  C_4
REMARK    4  A    between atoms: C_7  and  C_8
REMARK    5  A    between atoms: C_8  and  N_9
REMARK    6  A    between atoms: N_9  and  C_10
REMARK                            x       y       z     vdW  Elec       q    Type
REMARK                         _______ _______ _______ _____ _____    ______ ____
ROOT
ATOM      1  N   UNL     1       4.542   3.616  18.977  0.00  0.00    +0.000 N 
ATOM      2  H   UNL     1       4.715   2.627  18.823  0.00  0.00    +0.000 HD
ENDROOT
BRANCH   1   3
ATOM      3  C   UNL     1       5.628   4.367  18.471  0.00  0.00    +0.000 A 
ATOM      4  N   UNL     1       6.385   5.012  19.378  0.00  0.00    +0.000 NA
ATOM      5  C   UNL     1       7.390   5.759  18.928  0.00  0.00    +0.000 A 
ATOM      6  N   UNL     1       7.657   6.030  17.661  0.00  0.00    +0.000 NA
ATOM      7  C   UNL     1       6.956   5.354  16.752  0.00  0.00    +0.000 A 
ATOM      8  C   UNL     1       7.274   5.595  15.427  0.00  0.00    +0.000 A 
ATOM      9  C   UNL     1       6.760   4.825  14.392  0.00  0.00    +0.000 A 
ATOM     10  C   UNL     1       5.882   3.793  14.694  0.00  0.00    +0.000 A 
ATOM     11  C   UNL     1       5.455   3.601  16.021  0.00  0.00    +0.000 A 
ATOM     12  C   UNL     1       5.966   4.405  17.085  0.00  0.00    +0.000 A 
ENDBRANCH   1   3
BRANCH   1  13
ATOM     13  C   UNL     1       3.220   3.984  18.412  0.00  0.00    +0.000 C 
BRANCH  13  17
ATOM     14  C   UNL     1       1.762   7.836  19.910  0.00  0.00    +0.000 A 
ATOM     15  C   UNL     1       1.777   6.673  20.695  0.00  0.00    +0.000 A 
ATOM     16  C   UNL     1       2.263   5.451  20.211  0.00  0.00    +0.000 A 
ATOM     17  C   UNL     1       2.782   5.341  18.918  0.00  0.00    +0.000 A 
ATOM     18  C   UNL     1       2.885   6.506  18.158  0.00  0.00    +0.000 A 
ATOM     19  C   UNL     1       2.380   7.726  18.650  0.00  0.00    +0.000 A 
BRANCH  14  21
ATOM     20  C   UNL     1       0.717   9.160  21.729  0.00  0.00    +0.000 C 
ATOM     21  N   UNL     1       1.172   9.020  20.349  0.00  0.00    +0.000 N 
ATOM     22  C   UNL     1       0.667   9.989  19.382  0.00  0.00    +0.000 C 
ENDBRANCH  14  21
ENDBRANCH  13  17
ENDBRANCH   1  13
TORSDOF 4
ENDMDL
MODEL 5
REMARK VINA RESULT:      -7.0      1.315      1.325
REMARK  Name = 
REMARK  6 active torsions:
REMARK  status: ('A' for Active; 'I' for Inactive)
REMARK    1  A    between atoms: C_1  and  N_2
REMARK    2  A    between atoms: N_2  and  C_3
REMARK    3  A    between atoms: N_2  and  C_4
REMARK    4  A    between atoms: C_7  and  C_8
REMARK    5  A    between atoms: C_8  and  N_9
REMARK    6  A    between atoms: N_9  and  C_10
REMARK                            x       y       z     vdW  Elec       q    Type
REMARK                         _______ _______ _______ _____ _____    ______ ____
ROOT
ATOM      1  N   UNL     1       3.386   7.263  18.549  0.00  0.00    +0.000 N 
ATOM      2  H   UNL     1       3.220   7.307  19.551  0.00  0.00    +0.000 HD
ENDROOT
BRANCH   1   3
ATOM      3  C   UNL     1       3.366   5.913  18.127  0.00  0.00    +0.000 A 
ATOM      4  N   UNL     1       4.230   5.577  17.152  0.00  0.00    +0.000 NA
ATOM      5  C   UNL     1       4.205   4.324  16.707  0.00  0.00    +0.000 A 
ATOM      6  N   UNL     1       3.331   3.390  17.047  0.00  0.00    +0.000 NA
ATOM      7  C   UNL     1       2.509   3.688  18.051  0.00  0.00    +0.000 A 
ATOM      8  C   UNL     1       1.633   2.691  18.445  0.00  0.00    +0.000 A 
ATOM      9  C   UNL     1       0.861   2.799  19.594  0.00  0.00    +0.000 A 
ATOM     10  C   UNL     1       0.954   3.951  20.362  0.00  0.00    +0.000 A 
ATOM     11  C   UNL     1       1.751   5.025  19.922  0.00  0.00    +0.000 A 
ATOM     12  C   UNL     1       2.531   4.925  18.730  0.00  0.00    +0.000 A 
ENDBRANCH   1   3
BRANCH   1  13
ATOM     13  C   UNL     1       2.423   8.145  17.846  0.00  0.00    +0.000 C 
BRANCH  13  17
ATOM     14  C   UNL     1      -0.151  10.313  20.654  0.00  0.00    +0.000 A 
ATOM     15  C   UNL     1      -0.192  10.527  19.268  0.00  0.00    +0.000 A 
ATOM     16  C   UNL     1       0.623   9.813  18.378  0.00  0.00    +0.000 A 
ATOM     17  C   UNL     1       1.505   8.831  18.835  0.00  0.00    +0.000 A 
ATOM     18  C   UNL     1       1.483   8.519  20.194  0.00  0.00    +0.000 A 
ATOM     19  C   UNL     1       0.669   9.252  21.081  0.00  0.00    +0.000 A 
BRANCH  14  21
ATOM     20  C   UNL     1      -1.239  12.474  21.206  0.00  0.00    +0.000 C 
ATOM     21  N   UNL     1      -0.874  11.102  21.548  0.00  0.00    +0.000 N 
ATOM     22  C   UNL     1      -0.963  10.722  22.953  0.00  0.00    +0.000 C 
ENDBRANCH  14  21
ENDBRANCH  13  17
ENDBRANCH   1  13
TORSDOF 4
ENDMDL
MODEL 6
REMARK VINA RESULT:      -7.0      1.268      1.654
REMARK  Name = 
REMARK  6 active torsions:
REMARK  status: ('A' for Active; 'I' for Inactive)
REMARK    1  A    between atoms: C_1  and  N_2
REMARK    2  A    between atoms: N_2  and  C_3
REMARK    3  A    between atoms: N_2  and  C_4
REMARK    4  A    between atoms: C_7  and  C_8
REMARK    5  A    between atoms: C_8  and  N_9
REMARK    6  A    between atoms: N_9  and  C_10
REMARK                            x       y       z     vdW  Elec       q    Type
REMARK                         _______ _______ _______ _____ _____    ______ ____
ROOT
ATOM      1  N   UNL     1       3.386   7.066  18.626  0.00  0.00    +0.000 N 
ATOM      2  H   UNL     1       3.175   7.111  19.618  0.00  0.00    +0.000 HD
ENDROOT
BRANCH   1   3
ATOM      3  C   UNL     1       3.363   5.717  18.200  0.00  0.00    +0.000 A 
ATOM      4  N   UNL     1       4.238   5.377  17.236  0.00  0.00    +0.000 NA
ATOM      5  C   UNL     1       4.210   4.125  16.788  0.00  0.00    +0.000 A 
ATOM      6  N   UNL     1       3.326   3.196  17.114  0.00  0.00    +0.000 NA
ATOM      7  C   UNL     1       2.492   3.498  18.108  0.00  0.00    +0.000 A 
ATOM      8  C   UNL     1       1.604   2.506  18.488  0.00  0.00    +0.000 A 
ATOM      9  C   UNL     1       0.818   2.616  19.627  0.00  0.00    +0.000 A 
ATOM     10  C   UNL     1       0.908   3.766  20.398  0.00  0.00    +0.000 A 
ATOM     11  C   UNL     1       1.718   4.835  19.972  0.00  0.00    +0.000 A 
ATOM     12  C   UNL     1       2.513   4.734  18.790  0.00  0.00    +0.000 A 
ENDBRANCH   1   3
BRANCH   1  13
ATOM     13  C   UNL     1       2.472   7.965  17.880  0.00  0.00    +0.000 C 
BRANCH  13  17
ATOM     14  C   UNL     1       0.010  10.274  20.676  0.00  0.00    +0.000 A 
ATOM     15  C   UNL     1       0.702   9.113  21.055  0.00  0.00    +0.000 A 
ATOM     16  C   UNL     1       1.502   8.394  20.155  0.00  0.00    +0.000 A 
ATOM     17  C   UNL     1       1.665   8.818  18.835  0.00  0.00    +0.000 A 
ATOM     18  C   UNL     1       1.082  10.031  18.465  0.00  0.00    +0.000 A 
ATOM     19  C   UNL     1       0.270  10.738  19.373  0.00  0.00    +0.000 A 
BRANCH  14  21
ATOM     20  C   UNL     1      -1.629  12.090  21.086  0.00  0.00    +0.000 C 
ATOM     21  N   UNL     1      -0.876  10.923  21.535  0.00  0.00    +0.000 N 
ATOM     22  C   UNL     1      -0.801  10.694  22.974  0.00  0.00    +0.000 C 
ENDBRANCH  14  21
ENDBRANCH  13  17
ENDBRANCH   1  13
TORSDOF 4
ENDMDL
MODEL 7
REMARK VINA RESULT:      -7.0      2.222      4.014
REMARK  Name = 
REMARK  6 active torsions:
REMARK  status: ('A' for Active; 'I' for Inactive)
REMARK    1  A    between atoms: C_1  and  N_2
REMARK    2  A    between atoms: N_2  and  C_3
REMARK    3  A    between atoms: N_2  and  C_4
REMARK    4  A    between atoms: C_7  and  C_8
REMARK    5  A    between atoms: C_8  and  N_9
REMARK    6  A    between atoms: N_9  and  C_10
REMARK                            x       y       z     vdW  Elec       q    Type
REMARK                         _______ _______ _______ _____ _____    ______ ____
ROOT
ATOM      1  N   UNL     1       3.354   5.239  18.353  0.00  0.00    +0.000 N 
ATOM      2  H   UNL     1       2.933   5.730  17.569  0.00  0.00    +0.000 HD
ENDROOT
BRANCH   1   3
ATOM      3  C   UNL     1       4.757   5.195  18.180  0.00  0.00    +0.000 A 
ATOM      4  N   UNL     1       5.503   5.386  19.284  0.00  0.00    +0.000 NA
ATOM      5  C   UNL     1       6.826   5.389  19.144  0.00  0.00    +0.000 A 
ATOM      6  N   UNL     1       7.493   5.336  18.003  0.00  0.00    +0.000 NA
ATOM      7  C   UNL     1       6.773   5.088  16.910  0.00  0.00    +0.000 A 
ATOM      8  C   UNL     1       7.477   4.976  15.723  0.00  0.00    +0.000 A 
ATOM      9  C   UNL     1       6.881   4.532  14.550  0.00  0.00    +0.000 A 
ATOM     10  C   UNL     1       5.532   4.210  14.562  0.00  0.00    +0.000 A 
ATOM     11  C   UNL     1       4.769   4.423  15.726  0.00  0.00    +0.000 A 
ATOM     12  C   UNL     1       5.375   4.899  16.928  0.00  0.00    +0.000 A 
ENDBRANCH   1   3
BRANCH   1  13
ATOM     13  C   UNL     1       2.907   5.857  19.626  0.00  0.00    +0.000 C 
BRANCH  13  17
ATOM     14  C   UNL     1       0.950   9.721  18.961  0.00  0.00    +0.000 A 
ATOM     15  C   UNL     1       1.025   9.117  20.225  0.00  0.00    +0.000 A 
ATOM     16  C   UNL     1       1.670   7.889  20.428  0.00  0.00    +0.000 A 
ATOM     17  C   UNL     1       2.294   7.217  19.374  0.00  0.00    +0.000 A 
ATOM     18  C   UNL     1       2.334   7.851  18.132  0.00  0.00    +0.000 A 
ATOM     19  C   UNL     1       1.671   9.079  17.936  0.00  0.00    +0.000 A 
BRANCH  14  21
ATOM     20  C   UNL     1       0.814  12.198  18.913  0.00  0.00    +0.000 C 
ATOM     21  N   UNL     1       0.209  10.881  18.735  0.00  0.00    +0.000 N 
ATOM     22  C   UNL     1      -1.247  10.821  18.681  0.00  0.00    +0.000 C 
ENDBRANCH  14  21
ENDBRANCH  13  17
ENDBRANCH   1  13
TORSDOF 4
ENDMDL
MODEL 8
REMARK VINA RESULT:      -6.8      1.487      1.710
REMARK  Name = 
REMARK  6 active torsions:
REMARK  status: ('A' for Active; 'I' for Inactive)
REMARK    1  A    between atoms: C_1  and  N_2
REMARK    2  A    between atoms: N_2  and  C_3
REMARK    3  A    between atoms: N_2  and  C_4
REMARK    4  A    between atoms: C_7  and  C_8
REMARK    5  A    between atoms: C_8  and  N_9
REMARK    6  A    between atoms: N_9  and  C_10
REMARK                            x       y       z     vdW  Elec       q    Type
REMARK                         _______ _______ _______ _____ _____    ______ ____
ROOT
ATOM      1  N   UNL     1       2.503   6.619  20.452  0.00  0.00    +0.000 N 
ATOM      2  H   UNL     1       1.707   6.285  20.987  0.00  0.00    +0.000 HD
ENDROOT
BRANCH   1   3
ATOM      3  C   UNL     1       3.107   5.531  19.779  0.00  0.00    +0.000 A 
ATOM      4  N   UNL     1       4.413   5.660  19.482  0.00  0.00    +0.000 NA
ATOM      5  C   UNL     1       4.997   4.669  18.814  0.00  0.00    +0.000 A 
ATOM      6  N   UNL     1       4.395   3.607  18.305  0.00  0.00    +0.000 NA
ATOM      7  C   UNL     1       3.118   3.435  18.639  0.00  0.00    +0.000 A 
ATOM      8  C   UNL     1       2.503   2.294  18.154  0.00  0.00    +0.000 A 
ATOM      9  C   UNL     1       1.243   1.895  18.580  0.00  0.00    +0.000 A 
ATOM     10  C   UNL     1       0.569   2.677  19.507  0.00  0.00    +0.000 A 
ATOM     11  C   UNL     1       1.123   3.899  19.931  0.00  0.00    +0.000 A 
ATOM     12  C   UNL     1       2.410   4.322  19.478  0.00  0.00    +0.000 A 
ENDBRANCH   1   3
BRANCH   1  13
ATOM     13  C   UNL     1       2.078   7.732  19.569  0.00  0.00    +0.000 C 
BRANCH  13  17
ATOM     14  C   UNL     1      -0.165  10.799  21.753  0.00  0.00    +0.000 A 
ATOM     15  C   UNL     1       0.088  10.882  20.375  0.00  0.00    +0.000 A 
ATOM     16  C   UNL     1       0.791   9.884  19.684  0.00  0.00    +0.000 A 
ATOM     17  C   UNL     1       1.255   8.741  20.339  0.00  0.00    +0.000 A 
ATOM     18  C   UNL     1       0.916   8.580  21.683  0.00  0.00    +0.000 A 
ATOM     19  C   UNL     1       0.221   9.594  22.371  0.00  0.00    +0.000 A 
BRANCH  14  21
ATOM     20  C   UNL     1      -1.975  11.617  23.240  0.00  0.00    +0.000 C 
ATOM     21  N   UNL     1      -0.760  11.842  22.462  0.00  0.00    +0.000 N 
ATOM     22  C   UNL     1      -0.413  13.225  22.158  0.00  0.00    +0.000 C 
ENDBRANCH  14  21
ENDBRANCH  13  17
ENDBRANCH   1  13
TORSDOF 4
ENDMDL
MODEL 9
REMARK VINA RESULT:      -6.8      2.115      3.618
REMARK  Name = 
REMARK  6 active torsions:
REMARK  status: ('A' for Active; 'I' for Inactive)
REMARK    1  A    between atoms: C_1  and  N_2
REMARK    2  A    between atoms: N_2  and  C_3
REMARK    3  A    between atoms: N_2  and  C_4
REMARK    4  A    between atoms: C_7  and  C_8
REMARK    5  A    between atoms: C_8  and  N_9
REMARK    6  A    between atoms: N_9  and  C_10
REMARK                            x       y       z     vdW  Elec       q    Type
REMARK                         _______ _______ _______ _____ _____    ______ ____
ROOT
ATOM      1  N   UNL     1       3.435   6.090  19.977  0.00  0.00    +0.000 N 
ATOM      2  H   UNL     1       3.931   5.867  20.835  0.00  0.00    +0.000 HD
ENDROOT
BRANCH   1   3
ATOM      3  C   UNL     1       3.615   5.042  19.044  0.00  0.00    +0.000 A 
ATOM      4  N   UNL     1       3.118   3.840  19.390  0.00  0.00    +0.000 NA
ATOM      5  C   UNL     1       3.308   2.827  18.549  0.00  0.00    +0.000 A 
ATOM      6  N   UNL     1       4.041   2.849  17.448  0.00  0.00    +0.000 NA
ATOM      7  C   UNL     1       4.489   4.043  17.062  0.00  0.00    +0.000 A 
ATOM      8  C   UNL     1       5.208   4.076  15.879  0.00  0.00    +0.000 A 
ATOM      9  C   UNL     1       5.566   5.269  15.266  0.00  0.00    +0.000 A 
ATOM     10  C   UNL     1       5.209   6.468  15.868  0.00  0.00    +0.000 A 
ATOM     11  C   UNL     1       4.578   6.461  17.126  0.00  0.00    +0.000 A 
ATOM     12  C   UNL     1       4.228   5.235  17.769  0.00  0.00    +0.000 A 
ENDBRANCH   1   3
BRANCH   1  13
ATOM     13  C   UNL     1       2.019   6.405  20.286  0.00  0.00    +0.000 C 
BRANCH  13  17
ATOM     14  C   UNL     1       1.236  10.522  19.005  0.00  0.00    +0.000 A 
ATOM     15  C   UNL     1       1.764   9.548  18.145  0.00  0.00    +0.000 A 
ATOM     16  C   UNL     1       1.993   8.228  18.562  0.00  0.00    +0.000 A 
ATOM     17  C   UNL     1       1.679   7.816  19.859  0.00  0.00    +0.000 A 
ATOM     18  C   UNL     1       1.046   8.734  20.697  0.00  0.00    +0.000 A 
ATOM     19  C   UNL     1       0.834  10.060  20.272  0.00  0.00    +0.000 A 
BRANCH  14  21
ATOM     20  C   UNL     1       2.305  12.689  18.441  0.00  0.00    +0.000 C 
ATOM     21  N   UNL     1       1.118  11.859  18.628  0.00  0.00    +0.000 N 
ATOM     22  C   UNL     1      -0.159  12.550  18.768  0.00  0.00    +0.000 C 
ENDBRANCH  14  21
ENDBRANCH  13  17
ENDBRANCH   1  13
TORSDOF 4
ENDMDL
