MODEL 1
REMARK VINA RESULT:      -6.4      0.000      0.000
REMARK  Name = 
REMARK  12 active torsions:
REMARK  status: ('A' for Active; 'I' for Inactive)
REMARK    1  A    between atoms: C_1  and  C_2
REMARK    2  A    between atoms: C_2  and  C_3
REMARK    3  A    between atoms: C_3  and  C_4
REMARK    4  A    between atoms: C_3  and  N_6
REMARK    5  A    between atoms: C_3  and  C_23
REMARK    6  A    between atoms: C_4  and  C_5
REMARK    7  A    between atoms: C_7  and  C_9
REMARK    8  A    between atoms: C_12  and  C_13
REMARK    9  A    between atoms: C_16  and  O_17
REMARK   10  A    between atoms: O_17  and  C_18
REMARK   11  A    between atoms: C_18  and  C_19
REMARK   12  A    between atoms: N_25  and  C_26
REMARK                            x       y       z     vdW  Elec       q    Type
REMARK                         _______ _______ _______ _____ _____    ______ ____
ROOT
ATOM      1  N   UNL     1       0.922  10.571  18.974  0.00  0.00    +0.000 N 
ATOM      2  C   UNL     1       0.941   9.366  19.653  0.00  0.00    +0.000 C 
ATOM      3  O   UNL     1       0.251   9.144  20.641  0.00  0.00    +0.000 OA
ATOM      4  H   UNL     1       1.415  10.594  18.086  0.00  0.00    +0.000 HD
ENDROOT
BRANCH   2   5
ATOM      5  C   UNL     1       1.893   8.332  19.173  0.00  0.00    +0.000 A 
ATOM      6  C   UNL     1       2.514   8.550  17.952  0.00  0.00    +0.000 A 
ATOM      7  N   UNL     1       3.410   7.687  17.426  0.00  0.00    +0.000 NA
ATOM      8  C   UNL     1       3.696   6.582  18.165  0.00  0.00    +0.000 A 
ATOM      9  C   UNL     1       3.016   6.356  19.382  0.00  0.00    +0.000 A 
ATOM     10  N   UNL     1       2.106   7.214  19.924  0.00  0.00    +0.000 NA
BRANCH   8  11
ATOM     11  C   UNL     1       4.757   5.634  17.649  0.00  0.00    +0.000 C 
ATOM     12  C   UNL     1       4.370   4.486  16.743  0.00  0.00    +0.000 C 
ATOM     13  C   UNL     1       5.113   5.660  16.180  0.00  0.00    +0.000 C 
ENDBRANCH   8  11
BRANCH   9  14
ATOM     14  O   UNL     1       3.400   5.228  20.084  0.00  0.00    +0.000 OA
BRANCH  14  15
ATOM     15  C   UNL     1       2.323   4.403  20.518  0.00  0.00    +0.000 C 
BRANCH  15  16
ATOM     16  C   UNL     1       2.145   3.332  19.477  0.00  0.00    +0.000 C 
ATOM     17  C   UNL     1       0.814   2.632  19.340  0.00  0.00    +0.000 C 
ATOM     18  C   UNL     1       1.289   3.559  18.256  0.00  0.00    +0.000 C 
ENDBRANCH  15  16
ENDBRANCH  14  15
ENDBRANCH   9  14
ENDBRANCH   2   5
BRANCH   1  19
ATOM     19  C   UNL     1      -0.033  11.659  19.312  0.00  0.00    +0.000 C 
BRANCH  19  20
ATOM     20  C   UNL     1       0.071  12.022  20.838  0.00  0.00    +0.000 C 
ATOM     21  O   UNL     1       1.133  12.337  21.376  0.00  0.00    +0.000 OA
ATOM     22  N   UNL     1      -1.081  11.781  21.564  0.00  0.00    +0.000 N 
ATOM     23  C   UNL     1      -1.220  12.168  22.944  0.00  0.00    +0.000 C 
ATOM     24  H   UNL     1      -1.918  11.594  21.028  0.00  0.00    +0.000 HD
ENDBRANCH  19  20
BRANCH  19  26
ATOM     25  C   UNL     1      -0.369  14.223  18.946  0.00  0.00    +0.000 C 
ATOM     26  C   UNL     1       0.323  12.938  18.503  0.00  0.00    +0.000 C 
ENDBRANCH  19  26
BRANCH  19  27
ATOM     27  C   UNL     1      -1.513  11.259  19.023  0.00  0.00    +0.000 C 
ATOM     28  C   UNL     1      -1.783  10.668  17.646  0.00  0.00    +0.000 C 
ENDBRANCH  19  27
ENDBRANCH   1  19
TORSDOF 9
ENDMDL
MODEL 2
REMARK VINA RESULT:      -6.3      2.083      3.865
REMARK  Name = 
REMARK  12 active torsions:
REMARK  status: ('A' for Active; 'I' for Inactive)
REMARK    1  A    between atoms: C_1  and  C_2
REMARK    2  A    between atoms: C_2  and  C_3
REMARK    3  A    between atoms: C_3  and  C_4
REMARK    4  A    between atoms: C_3  and  N_6
REMARK    5  A    between atoms: C_3  and  C_23
REMARK    6  A    between atoms: C_4  and  C_5
REMARK    7  A    between atoms: C_7  and  C_9
REMARK    8  A    between atoms: C_12  and  C_13
REMARK    9  A    between atoms: C_16  and  O_17
REMARK   10  A    between atoms: O_17  and  C_18
REMARK   11  A    between atoms: C_18  and  C_19
REMARK   12  A    between atoms: N_25  and  C_26
REMARK                            x       y       z     vdW  Elec       q    Type
REMARK                         _______ _______ _______ _____ _____    ______ ____
ROOT
ATOM      1  N   UNL     1       1.110   9.086  19.442  0.00  0.00    +0.000 N 
ATOM      2  C   UNL     1       1.942   8.715  18.402  0.00  0.00    +0.000 C 
ATOM      3  O   UNL     1       2.028   9.347  17.356  0.00  0.00    +0.000 OA
ATOM      4  H   UNL     1       1.230   8.582  20.316  0.00  0.00    +0.000 HD
ENDROOT
BRANCH   2   5
ATOM      5  C   UNL     1       2.715   7.457  18.567  0.00  0.00    +0.000 A 
ATOM      6  C   UNL     1       2.367   6.625  19.622  0.00  0.00    +0.000 A 
ATOM      7  N   UNL     1       2.989   5.450  19.857  0.00  0.00    +0.000 NA
ATOM      8  C   UNL     1       3.978   5.100  18.991  0.00  0.00    +0.000 A 
ATOM      9  C   UNL     1       4.347   5.984  17.953  0.00  0.00    +0.000 A 
ATOM     10  N   UNL     1       3.734   7.176  17.705  0.00  0.00    +0.000 NA
BRANCH   8  11
ATOM     11  C   UNL     1       4.639   3.752  19.171  0.00  0.00    +0.000 C 
ATOM     12  C   UNL     1       4.004   2.710  20.066  0.00  0.00    +0.000 C 
ATOM     13  C   UNL     1       3.982   2.526  18.579  0.00  0.00    +0.000 C 
ENDBRANCH   8  11
BRANCH   9  14
ATOM     14  O   UNL     1       5.334   5.528  17.099  0.00  0.00    +0.000 OA
BRANCH  14  15
ATOM     15  C   UNL     1       4.854   4.938  15.895  0.00  0.00    +0.000 C 
BRANCH  15  16
ATOM     16  C   UNL     1       5.994   4.153  15.308  0.00  0.00    +0.000 C 
ATOM     17  C   UNL     1       6.043   3.900  13.820  0.00  0.00    +0.000 C 
ATOM     18  C   UNL     1       7.049   4.817  14.458  0.00  0.00    +0.000 C 
ENDBRANCH  15  16
ENDBRANCH  14  15
ENDBRANCH   9  14
ENDBRANCH   2   5
BRANCH   1  19
ATOM     19  C   UNL     1       0.339  10.357  19.429  0.00  0.00    +0.000 C 
BRANCH  19  20
ATOM     20  C   UNL     1       1.314  11.589  19.459  0.00  0.00    +0.000 C 
ATOM     21  O   UNL     1       1.694  12.111  20.508  0.00  0.00    +0.000 OA
ATOM     22  N   UNL     1       1.562  12.154  18.221  0.00  0.00    +0.000 N 
ATOM     23  C   UNL     1       2.526  13.207  18.032  0.00  0.00    +0.000 C 
ATOM     24  H   UNL     1       1.268  11.617  17.416  0.00  0.00    +0.000 HD
ENDBRANCH  19  20
BRANCH  19  26
ATOM     25  C   UNL     1      -1.981  10.152  18.247  0.00  0.00    +0.000 C 
ATOM     26  C   UNL     1      -0.492  10.452  18.118  0.00  0.00    +0.000 C 
ENDBRANCH  19  26
BRANCH  19  27
ATOM     27  C   UNL     1      -0.617  10.482  20.656  0.00  0.00    +0.000 C 
ATOM     28  C   UNL     1      -0.330   9.541  21.818  0.00  0.00    +0.000 C 
ENDBRANCH  19  27
ENDBRANCH   1  19
TORSDOF 9
ENDMDL
MODEL 3
REMARK VINA RESULT:      -6.3      1.505      2.309
REMARK  Name = 
REMARK  12 active torsions:
REMARK  status: ('A' for Active; 'I' for Inactive)
REMARK    1  A    between atoms: C_1  and  C_2
REMARK    2  A    between atoms: C_2  and  C_3
REMARK    3  A    between atoms: C_3  and  C_4
REMARK    4  A    between atoms: C_3  and  N_6
REMARK    5  A    between atoms: C_3  and  C_23
REMARK    6  A    between atoms: C_4  and  C_5
REMARK    7  A    between atoms: C_7  and  C_9
REMARK    8  A    between atoms: C_12  and  C_13
REMARK    9  A    between atoms: C_16  and  O_17
REMARK   10  A    between atoms: O_17  and  C_18
REMARK   11  A    between atoms: C_18  and  C_19
REMARK   12  A    between atoms: N_25  and  C_26
REMARK                            x       y       z     vdW  Elec       q    Type
REMARK                         _______ _______ _______ _____ _____    ______ ____
ROOT
ATOM      1  N   UNL     1       0.648   9.858  19.728  0.00  0.00    +0.000 N 
ATOM      2  C   UNL     1       1.640   9.687  18.779  0.00  0.00    +0.000 C 
ATOM      3  O   UNL     1       1.983  10.572  18.004  0.00  0.00    +0.000 OA
ATOM      4  H   UNL     1       0.550   9.115  20.415  0.00  0.00    +0.000 HD
ENDROOT
BRANCH   2   5
ATOM      5  C   UNL     1       2.261   8.341  18.682  0.00  0.00    +0.000 A 
ATOM      6  C   UNL     1       3.048   8.078  17.570  0.00  0.00    +0.000 A 
ATOM      7  N   UNL     1       3.674   6.895  17.386  0.00  0.00    +0.000 NA
ATOM      8  C   UNL     1       3.514   5.962  18.362  0.00  0.00    +0.000 A 
ATOM      9  C   UNL     1       2.669   6.235  19.461  0.00  0.00    +0.000 A 
ATOM     10  N   UNL     1       2.025   7.420  19.660  0.00  0.00    +0.000 NA
BRANCH   8  11
ATOM     11  C   UNL     1       4.268   4.658  18.233  0.00  0.00    +0.000 C 
ATOM     12  C   UNL     1       3.712   3.543  17.374  0.00  0.00    +0.000 C 
ATOM     13  C   UNL     1       4.912   4.310  16.910  0.00  0.00    +0.000 C 
ENDBRANCH   8  11
BRANCH   9  14
ATOM     14  O   UNL     1       2.596   5.244  20.422  0.00  0.00    +0.000 OA
BRANCH  14  15
ATOM     15  C   UNL     1       1.298   4.688  20.606  0.00  0.00    +0.000 C 
BRANCH  15  16
ATOM     16  C   UNL     1       1.491   3.282  21.105  0.00  0.00    +0.000 C 
ATOM     17  C   UNL     1       1.691   2.157  20.119  0.00  0.00    +0.000 C 
ATOM     18  C   UNL     1       2.827   2.589  21.003  0.00  0.00    +0.000 C 
ENDBRANCH  15  16
ENDBRANCH  14  15
ENDBRANCH   9  14
ENDBRANCH   2   5
BRANCH   1  19
ATOM     19  C   UNL     1      -0.001  11.172  19.972  0.00  0.00    +0.000 C 
BRANCH  19  20
ATOM     20  C   UNL     1       1.080  12.310  20.051  0.00  0.00    +0.000 C 
ATOM     21  O   UNL     1       1.801  12.475  21.035  0.00  0.00    +0.000 OA
ATOM     22  N   UNL     1       1.030  13.221  19.012  0.00  0.00    +0.000 N 
ATOM     23  C   UNL     1       2.017  14.256  18.843  0.00  0.00    +0.000 C 
ATOM     24  H   UNL     1       0.458  12.965  18.218  0.00  0.00    +0.000 HD
ENDBRANCH  19  20
BRANCH  19  26
ATOM     25  C   UNL     1      -1.851  10.381  18.307  0.00  0.00    +0.000 C 
ATOM     26  C   UNL     1      -0.952  11.514  18.791  0.00  0.00    +0.000 C 
ENDBRANCH  19  26
BRANCH  19  27
ATOM     27  C   UNL     1      -0.807  11.196  21.307  0.00  0.00    +0.000 C 
ATOM     28  C   UNL     1      -0.427  10.133  22.331  0.00  0.00    +0.000 C 
ENDBRANCH  19  27
ENDBRANCH   1  19
TORSDOF 9
ENDMDL
MODEL 4
REMARK VINA RESULT:      -6.1      1.260      2.153
REMARK  Name = 
REMARK  12 active torsions:
REMARK  status: ('A' for Active; 'I' for Inactive)
REMARK    1  A    between atoms: C_1  and  C_2
REMARK    2  A    between atoms: C_2  and  C_3
REMARK    3  A    between atoms: C_3  and  C_4
REMARK    4  A    between atoms: C_3  and  N_6
REMARK    5  A    between atoms: C_3  and  C_23
REMARK    6  A    between atoms: C_4  and  C_5
REMARK    7  A    between atoms: C_7  and  C_9
REMARK    8  A    between atoms: C_12  and  C_13
REMARK    9  A    between atoms: C_16  and  O_17
REMARK   10  A    between atoms: O_17  and  C_18
REMARK   11  A    between atoms: C_18  and  C_19
REMARK   12  A    between atoms: N_25  and  C_26
REMARK                            x       y       z     vdW  Elec       q    Type
REMARK                         _______ _______ _______ _____ _____    ______ ____
ROOT
ATOM      1  N   UNL     1       1.378   9.719  19.166  0.00  0.00    +0.000 N 
ATOM      2  C   UNL     1       1.527   8.491  19.784  0.00  0.00    +0.000 C 
ATOM      3  O   UNL     1       0.990   8.208  20.848  0.00  0.00    +0.000 OA
ATOM      4  H   UNL     1       1.740   9.793  18.220  0.00  0.00    +0.000 HD
ENDROOT
BRANCH   2   5
ATOM      5  C   UNL     1       2.430   7.508  19.131  0.00  0.00    +0.000 A 
ATOM      6  C   UNL     1       3.083   7.908  17.975  0.00  0.00    +0.000 A 
ATOM      7  N   UNL     1       3.940   7.104  17.308  0.00  0.00    +0.000 NA
ATOM      8  C   UNL     1       4.154   5.870  17.837  0.00  0.00    +0.000 A 
ATOM      9  C   UNL     1       3.441   5.468  18.988  0.00  0.00    +0.000 A 
ATOM     10  N   UNL     1       2.569   6.263  19.669  0.00  0.00    +0.000 NA
BRANCH   8  11
ATOM     11  C   UNL     1       5.170   4.973  17.166  0.00  0.00    +0.000 C 
ATOM     12  C   UNL     1       4.754   4.087  16.013  0.00  0.00    +0.000 C 
ATOM     13  C   UNL     1       5.610   5.289  15.755  0.00  0.00    +0.000 C 
ENDBRANCH   8  11
BRANCH   9  14
ATOM     14  O   UNL     1       3.751   4.211  19.476  0.00  0.00    +0.000 OA
BRANCH  14  15
ATOM     15  C   UNL     1       2.733   3.616  20.275  0.00  0.00    +0.000 C 
BRANCH  15  16
ATOM     16  C   UNL     1       2.247   2.403  19.531  0.00  0.00    +0.000 C 
ATOM     17  C   UNL     1       0.917   2.444  18.816  0.00  0.00    +0.000 C 
ATOM     18  C   UNL     1       2.192   2.376  18.023  0.00  0.00    +0.000 C 
ENDBRANCH  15  16
ENDBRANCH  14  15
ENDBRANCH   9  14
ENDBRANCH   2   5
BRANCH   1  19
ATOM     19  C   UNL     1       0.451  10.761  19.680  0.00  0.00    +0.000 C 
BRANCH  19  20
ATOM     20  C   UNL     1       0.769  12.151  19.018  0.00  0.00    +0.000 C 
ATOM     21  O   UNL     1       1.817  12.374  18.411  0.00  0.00    +0.000 OA
ATOM     22  N   UNL     1      -0.131  13.154  19.329  0.00  0.00    +0.000 N 
ATOM     23  C   UNL     1      -0.078  14.456  18.718  0.00  0.00    +0.000 C 
ATOM     24  H   UNL     1      -0.993  12.861  19.770  0.00  0.00    +0.000 HD
ENDBRANCH  19  20
BRANCH  19  26
ATOM     25  C   UNL     1      -1.279  10.133  17.827  0.00  0.00    +0.000 C 
ATOM     26  C   UNL     1      -1.012  10.391  19.307  0.00  0.00    +0.000 C 
ENDBRANCH  19  26
BRANCH  19  27
ATOM     27  C   UNL     1       0.560  10.940  21.226  0.00  0.00    +0.000 C 
ATOM     28  C   UNL     1      -0.760  10.975  21.985  0.00  0.00    +0.000 C 
ENDBRANCH  19  27
ENDBRANCH   1  19
TORSDOF 9
ENDMDL
MODEL 5
REMARK VINA RESULT:      -6.1      1.699      2.690
REMARK  Name = 
REMARK  12 active torsions:
REMARK  status: ('A' for Active; 'I' for Inactive)
REMARK    1  A    between atoms: C_1  and  C_2
REMARK    2  A    between atoms: C_2  and  C_3
REMARK    3  A    between atoms: C_3  and  C_4
REMARK    4  A    between atoms: C_3  and  N_6
REMARK    5  A    between atoms: C_3  and  C_23
REMARK    6  A    between atoms: C_4  and  C_5
REMARK    7  A    between atoms: C_7  and  C_9
REMARK    8  A    between atoms: C_12  and  C_13
REMARK    9  A    between atoms: C_16  and  O_17
REMARK   10  A    between atoms: O_17  and  C_18
REMARK   11  A    between atoms: C_18  and  C_19
REMARK   12  A    between atoms: N_25  and  C_26
REMARK                            x       y       z     vdW  Elec       q    Type
REMARK                         _______ _______ _______ _____ _____    ______ ____
ROOT
ATOM      1  N   UNL     1       0.907   9.578  19.587  0.00  0.00    +0.000 N 
ATOM      2  C   UNL     1       1.764   9.339  18.529  0.00  0.00    +0.000 C 
ATOM      3  O   UNL     1       1.959  10.148  17.630  0.00  0.00    +0.000 OA
ATOM      4  H   UNL     1       0.937   8.907  20.350  0.00  0.00    +0.000 HD
ENDROOT
BRANCH   2   5
ATOM      5  C   UNL     1       2.424   8.008  18.478  0.00  0.00    +0.000 A 
ATOM      6  C   UNL     1       3.354   7.793  17.471  0.00  0.00    +0.000 A 
ATOM      7  N   UNL     1       4.027   6.630  17.339  0.00  0.00    +0.000 NA
ATOM      8  C   UNL     1       3.763   5.665  18.261  0.00  0.00    +0.000 A 
ATOM      9  C   UNL     1       2.777   5.889  19.247  0.00  0.00    +0.000 A 
ATOM     10  N   UNL     1       2.085   7.054  19.391  0.00  0.00    +0.000 NA
BRANCH   8  11
ATOM     11  C   UNL     1       4.558   4.380  18.196  0.00  0.00    +0.000 C 
ATOM     12  C   UNL     1       4.436   3.474  16.991  0.00  0.00    +0.000 C 
ATOM     13  C   UNL     1       5.690   4.266  17.201  0.00  0.00    +0.000 C 
ENDBRANCH   8  11
BRANCH   9  14
ATOM     14  O   UNL     1       2.604   4.869  20.164  0.00  0.00    +0.000 OA
BRANCH  14  15
ATOM     15  C   UNL     1       1.245   4.544  20.443  0.00  0.00    +0.000 C 
BRANCH  15  16
ATOM     16  C   UNL     1       1.134   3.045  20.389  0.00  0.00    +0.000 C 
ATOM     17  C   UNL     1       0.573   2.379  19.155  0.00  0.00    +0.000 C 
ATOM     18  C   UNL     1       2.029   2.223  19.495  0.00  0.00    +0.000 C 
ENDBRANCH  15  16
ENDBRANCH  14  15
ENDBRANCH   9  14
ENDBRANCH   2   5
BRANCH   1  19
ATOM     19  C   UNL     1       0.240  10.891  19.790  0.00  0.00    +0.000 C 
BRANCH  19  20
ATOM     20  C   UNL     1      -1.046  10.994  18.893  0.00  0.00    +0.000 C 
ATOM     21  O   UNL     1      -2.056  11.603  19.246  0.00  0.00    +0.000 OA
ATOM     22  N   UNL     1      -1.023  10.196  17.764  0.00  0.00    +0.000 N 
ATOM     23  C   UNL     1      -2.052  10.250  16.758  0.00  0.00    +0.000 C 
ATOM     24  H   UNL     1      -0.129   9.790  17.520  0.00  0.00    +0.000 HD
ENDBRANCH  19  20
BRANCH  19  26
ATOM     25  C   UNL     1      -0.133   9.755  22.112  0.00  0.00    +0.000 C 
ATOM     26  C   UNL     1      -0.213  11.025  21.271  0.00  0.00    +0.000 C 
ENDBRANCH  19  26
BRANCH  19  27
ATOM     27  C   UNL     1       1.168  12.089  19.423  0.00  0.00    +0.000 C 
ATOM     28  C   UNL     1       0.879  13.398  20.145  0.00  0.00    +0.000 C 
ENDBRANCH  19  27
ENDBRANCH   1  19
TORSDOF 9
ENDMDL
MODEL 6
REMARK VINA RESULT:      -6.1      1.669      2.456
REMARK  Name = 
REMARK  12 active torsions:
REMARK  status: ('A' for Active; 'I' for Inactive)
REMARK    1  A    between atoms: C_1  and  C_2
REMARK    2  A    between atoms: C_2  and  C_3
REMARK    3  A    between atoms: C_3  and  C_4
REMARK    4  A    between atoms: C_3  and  N_6
REMARK    5  A    between atoms: C_3  and  C_23
REMARK    6  A    between atoms: C_4  and  C_5
REMARK    7  A    between atoms: C_7  and  C_9
REMARK    8  A    between atoms: C_12  and  C_13
REMARK    9  A    between atoms: C_16  and  O_17
REMARK   10  A    between atoms: O_17  and  C_18
REMARK   11  A    between atoms: C_18  and  C_19
REMARK   12  A    between atoms: N_25  and  C_26
REMARK                            x       y       z     vdW  Elec       q    Type
REMARK                         _______ _______ _______ _____ _____    ______ ____
ROOT
ATOM      1  N   UNL     1       1.208   9.040  19.418  0.00  0.00    +0.000 N 
ATOM      2  C   UNL     1       1.995   8.900  18.290  0.00  0.00    +0.000 C 
ATOM      3  O   UNL     1       1.948   9.674  17.341  0.00  0.00    +0.000 OA
ATOM      4  H   UNL     1       1.435   8.436  20.203  0.00  0.00    +0.000 HD
ENDROOT
BRANCH   2   5
ATOM      5  C   UNL     1       2.889   7.715  18.230  0.00  0.00    +0.000 A 
ATOM      6  C   UNL     1       3.800   7.652  17.186  0.00  0.00    +0.000 A 
ATOM      7  N   UNL     1       4.673   6.631  17.042  0.00  0.00    +0.000 NA
ATOM      8  C   UNL     1       4.632   5.657  17.990  0.00  0.00    +0.000 A 
ATOM      9  C   UNL     1       3.664   5.718  19.016  0.00  0.00    +0.000 A 
ATOM     10  N   UNL     1       2.773   6.737  19.173  0.00  0.00    +0.000 NA
BRANCH   8  11
ATOM     11  C   UNL     1       5.650   4.542  17.910  0.00  0.00    +0.000 C 
ATOM     12  C   UNL     1       6.612   4.476  16.743  0.00  0.00    +0.000 C 
ATOM     13  C   UNL     1       7.114   4.868  18.099  0.00  0.00    +0.000 C 
ENDBRANCH   8  11
BRANCH   9  14
ATOM     14  O   UNL     1       3.723   4.705  19.957  0.00  0.00    +0.000 OA
BRANCH  14  15
ATOM     15  C   UNL     1       2.478   4.065  20.220  0.00  0.00    +0.000 C 
BRANCH  15  16
ATOM     16  C   UNL     1       2.067   3.369  18.952  0.00  0.00    +0.000 C 
ATOM     17  C   UNL     1       2.194   1.868  18.845  0.00  0.00    +0.000 C 
ATOM     18  C   UNL     1       0.832   2.504  18.895  0.00  0.00    +0.000 C 
ENDBRANCH  15  16
ENDBRANCH  14  15
ENDBRANCH   9  14
ENDBRANCH   2   5
BRANCH   1  19
ATOM     19  C   UNL     1       0.324  10.217  19.630  0.00  0.00    +0.000 C 
BRANCH  19  20
ATOM     20  C   UNL     1       1.178  11.534  19.714  0.00  0.00    +0.000 C 
ATOM     21  O   UNL     1       1.557  12.014  20.782  0.00  0.00    +0.000 OA
ATOM     22  N   UNL     1       1.311  12.208  18.513  0.00  0.00    +0.000 N 
ATOM     23  C   UNL     1       2.159  13.361  18.365  0.00  0.00    +0.000 C 
ATOM     24  H   UNL     1       1.031  11.703  17.683  0.00  0.00    +0.000 HD
ENDBRANCH  19  20
BRANCH  19  26
ATOM     25  C   UNL     1      -1.984  11.036  18.724  0.00  0.00    +0.000 C 
ATOM     26  C   UNL     1      -0.647  10.366  18.425  0.00  0.00    +0.000 C 
ENDBRANCH  19  26
BRANCH  19  27
ATOM     27  C   UNL     1      -0.502  10.106  20.949  0.00  0.00    +0.000 C 
ATOM     28  C   UNL     1      -0.227   8.876  21.803  0.00  0.00    +0.000 C 
ENDBRANCH  19  27
ENDBRANCH   1  19
TORSDOF 9
ENDMDL
MODEL 7
REMARK VINA RESULT:      -6.0      1.570      1.887
REMARK  Name = 
REMARK  12 active torsions:
REMARK  status: ('A' for Active; 'I' for Inactive)
REMARK    1  A    between atoms: C_1  and  C_2
REMARK    2  A    between atoms: C_2  and  C_3
REMARK    3  A    between atoms: C_3  and  C_4
REMARK    4  A    between atoms: C_3  and  N_6
REMARK    5  A    between atoms: C_3  and  C_23
REMARK    6  A    between atoms: C_4  and  C_5
REMARK    7  A    between atoms: C_7  and  C_9
REMARK    8  A    between atoms: C_12  and  C_13
REMARK    9  A    between atoms: C_16  and  O_17
REMARK   10  A    between atoms: O_17  and  C_18
REMARK   11  A    between atoms: C_18  and  C_19
REMARK   12  A    between atoms: N_25  and  C_26
REMARK                            x       y       z     vdW  Elec       q    Type
REMARK                         _______ _______ _______ _____ _____    ______ ____
ROOT
ATOM      1  N   UNL     1       1.264   8.952  19.376  0.00  0.00    +0.000 N 
ATOM      2  C   UNL     1       2.087   8.907  18.265  0.00  0.00    +0.000 C 
ATOM      3  O   UNL     1       2.172   9.825  17.458  0.00  0.00    +0.000 OA
ATOM      4  H   UNL     1       1.386   8.206  20.055  0.00  0.00    +0.000 HD
ENDROOT
BRANCH   2   5
ATOM      5  C   UNL     1       2.852   7.654  18.037  0.00  0.00    +0.000 A 
ATOM      6  C   UNL     1       3.931   7.711  17.167  0.00  0.00    +0.000 A 
ATOM      7  N   UNL     1       4.706   6.638  16.899  0.00  0.00    +0.000 NA
ATOM      8  C   UNL     1       4.390   5.482  17.541  0.00  0.00    +0.000 A 
ATOM      9  C   UNL     1       3.258   5.435  18.385  0.00  0.00    +0.000 A 
ATOM     10  N   UNL     1       2.462   6.506  18.662  0.00  0.00    +0.000 NA
BRANCH   8  11
ATOM     11  C   UNL     1       5.286   4.281  17.331  0.00  0.00    +0.000 C 
ATOM     12  C   UNL     1       5.591   3.800  15.930  0.00  0.00    +0.000 C 
ATOM     13  C   UNL     1       6.657   4.485  16.729  0.00  0.00    +0.000 C 
ENDBRANCH   8  11
BRANCH   9  14
ATOM     14  O   UNL     1       3.036   4.229  19.025  0.00  0.00    +0.000 OA
BRANCH  14  15
ATOM     15  C   UNL     1       1.704   3.737  18.922  0.00  0.00    +0.000 C 
BRANCH  15  16
ATOM     16  C   UNL     1       1.165   3.636  20.323  0.00  0.00    +0.000 C 
ATOM     17  C   UNL     1       1.527   2.449  21.182  0.00  0.00    +0.000 C 
ATOM     18  C   UNL     1       2.062   3.811  21.523  0.00  0.00    +0.000 C 
ENDBRANCH  15  16
ENDBRANCH  14  15
ENDBRANCH   9  14
ENDBRANCH   2   5
BRANCH   1  19
ATOM     19  C   UNL     1       0.502  10.171  19.752  0.00  0.00    +0.000 C 
BRANCH  19  20
ATOM     20  C   UNL     1       0.426  10.306  21.317  0.00  0.00    +0.000 C 
ATOM     21  O   UNL     1       1.409  10.167  22.045  0.00  0.00    +0.000 OA
ATOM     22  N   UNL     1      -0.858  10.407  21.821  0.00  0.00    +0.000 N 
ATOM     23  C   UNL     1      -1.123  10.666  23.213  0.00  0.00    +0.000 C 
ATOM     24  H   UNL     1      -1.591  10.586  21.148  0.00  0.00    +0.000 HD
ENDBRANCH  19  20
BRANCH  19  26
ATOM     25  C   UNL     1       0.662  12.776  19.657  0.00  0.00    +0.000 C 
ATOM     26  C   UNL     1       1.230  11.433  19.210  0.00  0.00    +0.000 C 
ENDBRANCH  19  26
BRANCH  19  27
ATOM     27  C   UNL     1      -0.960  10.145  19.210  0.00  0.00    +0.000 C 
ATOM     28  C   UNL     1      -1.107  10.161  17.694  0.00  0.00    +0.000 C 
ENDBRANCH  19  27
ENDBRANCH   1  19
TORSDOF 9
ENDMDL
MODEL 8
REMARK VINA RESULT:      -6.0      1.828      7.783
REMARK  Name = 
REMARK  12 active torsions:
REMARK  status: ('A' for Active; 'I' for Inactive)
REMARK    1  A    between atoms: C_1  and  C_2
REMARK    2  A    between atoms: C_2  and  C_3
REMARK    3  A    between atoms: C_3  and  C_4
REMARK    4  A    between atoms: C_3  and  N_6
REMARK    5  A    between atoms: C_3  and  C_23
REMARK    6  A    between atoms: C_4  and  C_5
REMARK    7  A    between atoms: C_7  and  C_9
REMARK    8  A    between atoms: C_12  and  C_13
REMARK    9  A    between atoms: C_16  and  O_17
REMARK   10  A    between atoms: O_17  and  C_18
REMARK   11  A    between atoms: C_18  and  C_19
REMARK   12  A    between atoms: N_25  and  C_26
REMARK                            x       y       z     vdW  Elec       q    Type
REMARK                         _______ _______ _______ _____ _____    ______ ____
ROOT
ATOM      1  N   UNL     1       2.924   6.774  18.847  0.00  0.00    +0.000 N 
ATOM      2  C   UNL     1       2.179   6.839  20.011  0.00  0.00    +0.000 C 
ATOM      3  O   UNL     1       1.997   5.874  20.743  0.00  0.00    +0.000 OA
ATOM      4  H   UNL     1       3.136   7.661  18.400  0.00  0.00    +0.000 HD
ENDROOT
BRANCH   2   5
ATOM      5  C   UNL     1       1.536   8.139  20.333  0.00  0.00    +0.000 A 
ATOM      6  C   UNL     1       1.413   8.478  21.672  0.00  0.00    +0.000 A 
ATOM      7  N   UNL     1       0.861   9.641  22.080  0.00  0.00    +0.000 NA
ATOM      8  C   UNL     1       0.438  10.490  21.106  0.00  0.00    +0.000 A 
ATOM      9  C   UNL     1       0.529  10.102  19.751  0.00  0.00    +0.000 A 
ATOM     10  N   UNL     1       1.077   8.931  19.321  0.00  0.00    +0.000 NA
BRANCH   8  11
ATOM     11  C   UNL     1      -0.108  11.838  21.521  0.00  0.00    +0.000 C 
ATOM     12  C   UNL     1      -1.599  12.093  21.491  0.00  0.00    +0.000 C 
ATOM     13  C   UNL     1      -0.896  11.947  22.806  0.00  0.00    +0.000 C 
ENDBRANCH   8  11
BRANCH   9  14
ATOM     14  O   UNL     1       0.111  11.044  18.827  0.00  0.00    +0.000 OA
BRANCH  14  15
ATOM     15  C   UNL     1      -0.704  10.528  17.779  0.00  0.00    +0.000 C 
BRANCH  15  16
ATOM     16  C   UNL     1      -2.102  10.425  18.322  0.00  0.00    +0.000 C 
ATOM     17  C   UNL     1      -3.206  11.259  17.717  0.00  0.00    +0.000 C 
ATOM     18  C   UNL     1      -3.206   9.768  17.531  0.00  0.00    +0.000 C 
ENDBRANCH  15  16
ENDBRANCH  14  15
ENDBRANCH   9  14
ENDBRANCH   2   5
BRANCH   1  19
ATOM     19  C   UNL     1       3.673   5.553  18.449  0.00  0.00    +0.000 C 
BRANCH  19  20
ATOM     20  C   UNL     1       2.685   4.346  18.252  0.00  0.00    +0.000 C 
ATOM     21  O   UNL     1       1.696   4.408  17.521  0.00  0.00    +0.000 OA
ATOM     22  N   UNL     1       2.907   3.279  19.104  0.00  0.00    +0.000 N 
ATOM     23  C   UNL     1       2.189   2.037  18.988  0.00  0.00    +0.000 C 
ATOM     24  H   UNL     1       3.779   3.288  19.615  0.00  0.00    +0.000 HD
ENDBRANCH  19  20
BRANCH  19  26
ATOM     25  C   UNL     1       4.802   4.547  16.320  0.00  0.00    +0.000 C 
ATOM     26  C   UNL     1       4.388   5.797  17.091  0.00  0.00    +0.000 C 
ENDBRANCH  19  26
BRANCH  19  27
ATOM     27  C   UNL     1       4.725   5.130  19.519  0.00  0.00    +0.000 C 
ATOM     28  C   UNL     1       6.163   5.548  19.238  0.00  0.00    +0.000 C 
ENDBRANCH  19  27
ENDBRANCH   1  19
TORSDOF 9
ENDMDL
MODEL 9
REMARK VINA RESULT:      -6.0      1.683      7.797
REMARK  Name = 
REMARK  12 active torsions:
REMARK  status: ('A' for Active; 'I' for Inactive)
REMARK    1  A    between atoms: C_1  and  C_2
REMARK    2  A    between atoms: C_2  and  C_3
REMARK    3  A    between atoms: C_3  and  C_4
REMARK    4  A    between atoms: C_3  and  N_6
REMARK    5  A    between atoms: C_3  and  C_23
REMARK    6  A    between atoms: C_4  and  C_5
REMARK    7  A    between atoms: C_7  and  C_9
REMARK    8  A    between atoms: C_12  and  C_13
REMARK    9  A    between atoms: C_16  and  O_17
REMARK   10  A    between atoms: O_17  and  C_18
REMARK   11  A    between atoms: C_18  and  C_19
REMARK   12  A    between atoms: N_25  and  C_26
REMARK                            x       y       z     vdW  Elec       q    Type
REMARK                         _______ _______ _______ _____ _____    ______ ____
ROOT
ATOM      1  N   UNL     1       2.792   6.640  18.434  0.00  0.00    +0.000 N 
ATOM      2  C   UNL     1       2.126   7.001  19.590  0.00  0.00    +0.000 C 
ATOM      3  O   UNL     1       1.860   6.208  20.485  0.00  0.00    +0.000 OA
ATOM      4  H   UNL     1       3.094   7.401  17.832  0.00  0.00    +0.000 HD
ENDROOT
BRANCH   2   5
ATOM      5  C   UNL     1       1.676   8.413  19.701  0.00  0.00    +0.000 A 
ATOM      6  C   UNL     1       1.568   9.145  18.528  0.00  0.00    +0.000 A 
ATOM      7  N   UNL     1       1.152  10.430  18.508  0.00  0.00    +0.000 NA
ATOM      8  C   UNL     1       0.821  10.982  19.705  0.00  0.00    +0.000 A 
ATOM      9  C   UNL     1       0.985  10.234  20.892  0.00  0.00    +0.000 A 
ATOM     10  N   UNL     1       1.409   8.939  20.931  0.00  0.00    +0.000 NA
BRANCH   8  11
ATOM     11  C   UNL     1       0.271  12.391  19.713  0.00  0.00    +0.000 C 
ATOM     12  C   UNL     1       1.201  13.565  19.925  0.00  0.00    +0.000 C 
ATOM     13  C   UNL     1       0.611  13.319  18.570  0.00  0.00    +0.000 C 
ENDBRANCH   8  11
BRANCH   9  14
ATOM     14  O   UNL     1       0.588  10.862  22.058  0.00  0.00    +0.000 OA
BRANCH  14  15
ATOM     15  C   UNL     1      -0.743  10.566  22.469  0.00  0.00    +0.000 C 
BRANCH  15  16
ATOM     16  C   UNL     1      -1.343  11.852  22.969  0.00  0.00    +0.000 C 
ATOM     17  C   UNL     1      -2.424  12.536  22.168  0.00  0.00    +0.000 C 
ATOM     18  C   UNL     1      -2.757  11.907  23.492  0.00  0.00    +0.000 C 
ENDBRANCH  15  16
ENDBRANCH  14  15
ENDBRANCH   9  14
ENDBRANCH   2   5
BRANCH   1  19
ATOM     19  C   UNL     1       3.353   5.278  18.232  0.00  0.00    +0.000 C 
BRANCH  19  20
ATOM     20  C   UNL     1       2.196   4.220  18.128  0.00  0.00    +0.000 C 
ATOM     21  O   UNL     1       1.305   4.290  17.281  0.00  0.00    +0.000 OA
ATOM     22  N   UNL     1       2.151   3.316  19.173  0.00  0.00    +0.000 N 
ATOM     23  C   UNL     1       1.244   2.198  19.189  0.00  0.00    +0.000 C 
ATOM     24  H   UNL     1       2.961   3.290  19.779  0.00  0.00    +0.000 HD
ENDBRANCH  19  20
BRANCH  19  26
ATOM     25  C   UNL     1       4.628   3.855  16.452  0.00  0.00    +0.000 C 
ATOM     26  C   UNL     1       4.148   5.232  16.896  0.00  0.00    +0.000 C 
ENDBRANCH  19  26
BRANCH  19  27
ATOM     27  C   UNL     1       4.286   4.843  19.403  0.00  0.00    +0.000 C 
ATOM     28  C   UNL     1       5.718   5.359  19.338  0.00  0.00    +0.000 C 
ENDBRANCH  19  27
ENDBRANCH   1  19
TORSDOF 9
ENDMDL
