MODEL 1
REMARK VINA RESULT:      -8.5      0.000      0.000
REMARK  Name = 
REMARK  6 active torsions:
REMARK  status: ('A' for Active; 'I' for Inactive)
REMARK    1  A    between atoms: C_2  and  C_3
REMARK    2  A    between atoms: C_3  and  N_4
REMARK    3  A    between atoms: C_12  and  S_13
REMARK    4  A    between atoms: S_13  and  N_16
REMARK    5  A    between atoms: N_24  and  C_25
REMARK    6  A    between atoms: C_25  and  C_26
REMARK                            x       y       z     vdW  Elec       q    Type
REMARK                         _______ _______ _______ _____ _____    ______ ____
ROOT
ATOM      1  N   UNL     1       2.623   5.223  19.331  0.00  0.00    +0.000 N 
ATOM      2  C   UNL     1       1.478   4.598  19.808  0.00  0.00    +0.000 C 
ATOM      3  O   UNL     1       0.719   5.122  20.626  0.00  0.00    +0.000 OA
ATOM      4  C   UNL     1       1.159   3.249  19.172  0.00  0.00    +0.000 C 
ATOM      5  O   UNL     1       2.212   2.476  18.637  0.00  0.00    +0.000 OA
ATOM      6  C   UNL     1       3.205   3.220  18.064  0.00  0.00    +0.000 A 
ATOM      7  C   UNL     1       4.040   2.516  17.190  0.00  0.00    +0.000 A 
ATOM      8  C   UNL     1       5.120   3.154  16.585  0.00  0.00    +0.000 A 
ATOM      9  C   UNL     1       5.350   4.506  16.847  0.00  0.00    +0.000 A 
ATOM     10  C   UNL     1       4.530   5.209  17.748  0.00  0.00    +0.000 A 
ATOM     11  C   UNL     1       3.448   4.571  18.372  0.00  0.00    +0.000 A 
ENDROOT
BRANCH   9  12
ATOM     12  S   UNL     1       6.789   5.304  16.143  0.00  0.00    +0.000 S 
ATOM     13  O   UNL     1       6.639   6.725  16.365  0.00  0.00    +0.000 OA
ATOM     14  O   UNL     1       7.951   4.591  16.638  0.00  0.00    +0.000 OA
BRANCH  12  15
ATOM     15  N   UNL     1       6.654   4.997  14.462  0.00  0.00    +0.000 NA
ATOM     16  C   UNL     1       7.859   5.334  13.660  0.00  0.00    +0.000 C 
ATOM     17  C   UNL     1       7.579   5.236  12.166  0.00  0.00    +0.000 C 
ATOM     18  C   UNL     1       7.019   3.868  11.805  0.00  0.00    +0.000 C 
ATOM     19  C   UNL     1       5.747   3.612  12.599  0.00  0.00    +0.000 C 
ATOM     20  C   UNL     1       5.988   3.718  14.102  0.00  0.00    +0.000 C 
ENDBRANCH  12  15
ENDBRANCH   9  12
BRANCH   1  21
ATOM     21  C   UNL     1       2.959   6.531  19.889  0.00  0.00    +0.000 C 
BRANCH  21  23
ATOM     22  O   UNL     1       2.142   7.784  17.988  0.00  0.00    +0.000 OA
ATOM     23  C   UNL     1       2.188   7.669  19.212  0.00  0.00    +0.000 C 
ATOM     24  N   UNL     1       1.512   8.502  20.078  0.00  0.00    +0.000 N 
ATOM     25  H   UNL     1       1.455   8.241  21.058  0.00  0.00    +0.000 HD
BRANCH  24  26
ATOM     26  C   UNL     1       0.733   9.636  19.625  0.00  0.00    +0.000 C 
BRANCH  26  27
ATOM     27  C   UNL     1      -0.070  10.241  20.753  0.00  0.00    +0.000 A 
ATOM     28  C   UNL     1      -0.796  11.427  20.549  0.00  0.00    +0.000 A 
ATOM     29  C   UNL     1      -1.534  11.998  21.590  0.00  0.00    +0.000 A 
ATOM     30  C   UNL     1      -1.542  11.388  22.838  0.00  0.00    +0.000 A 
ATOM     31  F   UNL     1      -2.242  11.939  23.838  0.00  0.00    +0.000 F 
ATOM     32  C   UNL     1      -0.832  10.216  23.064  0.00  0.00    +0.000 A 
ATOM     33  C   UNL     1      -0.094   9.643  22.024  0.00  0.00    +0.000 A 
ENDBRANCH  26  27
ENDBRANCH  24  26
ENDBRANCH  21  23
ENDBRANCH   1  21
TORSDOF 6
ENDMDL
MODEL 2
REMARK VINA RESULT:      -8.5      4.955      7.999
REMARK  Name = 
REMARK  6 active torsions:
REMARK  status: ('A' for Active; 'I' for Inactive)
REMARK    1  A    between atoms: C_2  and  C_3
REMARK    2  A    between atoms: C_3  and  N_4
REMARK    3  A    between atoms: C_12  and  S_13
REMARK    4  A    between atoms: S_13  and  N_16
REMARK    5  A    between atoms: N_24  and  C_25
REMARK    6  A    between atoms: C_25  and  C_26
REMARK                            x       y       z     vdW  Elec       q    Type
REMARK                         _______ _______ _______ _____ _____    ______ ____
ROOT
ATOM      1  N   UNL     1       6.008   5.784  16.709  0.00  0.00    +0.000 N 
ATOM      2  C   UNL     1       6.867   5.262  15.751  0.00  0.00    +0.000 C 
ATOM      3  O   UNL     1       7.755   5.928  15.212  0.00  0.00    +0.000 OA
ATOM      4  C   UNL     1       6.710   3.770  15.478  0.00  0.00    +0.000 C 
ATOM      5  O   UNL     1       5.459   3.158  15.710  0.00  0.00    +0.000 OA
ATOM      6  C   UNL     1       4.783   3.674  16.780  0.00  0.00    +0.000 A 
ATOM      7  C   UNL     1       3.763   2.859  17.282  0.00  0.00    +0.000 A 
ATOM      8  C   UNL     1       2.970   3.299  18.339  0.00  0.00    +0.000 A 
ATOM      9  C   UNL     1       3.215   4.554  18.901  0.00  0.00    +0.000 A 
ATOM     10  C   UNL     1       4.219   5.387  18.379  0.00  0.00    +0.000 A 
ATOM     11  C   UNL     1       5.015   4.958  17.307  0.00  0.00    +0.000 A 
ENDROOT
BRANCH   9  12
ATOM     12  S   UNL     1       2.138   5.159  20.197  0.00  0.00    +0.000 S 
ATOM     13  O   UNL     1       0.830   4.589  19.964  0.00  0.00    +0.000 OA
ATOM     14  O   UNL     1       2.831   4.947  21.454  0.00  0.00    +0.000 OA
BRANCH  12  15
ATOM     15  N   UNL     1       2.056   6.848  19.914  0.00  0.00    +0.000 NA
ATOM     16  C   UNL     1       1.911   7.243  18.489  0.00  0.00    +0.000 C 
ATOM     17  C   UNL     1       2.063   8.747  18.309  0.00  0.00    +0.000 C 
ATOM     18  C   UNL     1       1.099   9.504  19.211  0.00  0.00    +0.000 C 
ATOM     19  C   UNL     1       1.347   9.117  20.662  0.00  0.00    +0.000 C 
ATOM     20  C   UNL     1       1.217   7.611  20.874  0.00  0.00    +0.000 C 
ENDBRANCH  12  15
ENDBRANCH   9  12
BRANCH   1  21
ATOM     21  C   UNL     1       6.135   7.205  17.027  0.00  0.00    +0.000 C 
BRANCH  21  23
ATOM     22  O   UNL     1       7.881   6.616  18.595  0.00  0.00    +0.000 OA
ATOM     23  C   UNL     1       7.344   7.495  17.923  0.00  0.00    +0.000 C 
ATOM     24  N   UNL     1       7.807   8.793  17.863  0.00  0.00    +0.000 N 
ATOM     25  H   UNL     1       7.423   9.413  17.156  0.00  0.00    +0.000 HD
BRANCH  24  26
ATOM     26  C   UNL     1       8.936   9.257  18.642  0.00  0.00    +0.000 C 
BRANCH  26  27
ATOM     27  C   UNL     1       9.275  10.694  18.322  0.00  0.00    +0.000 A 
ATOM     28  C   UNL     1       8.289  11.560  17.819  0.00  0.00    +0.000 A 
ATOM     29  C   UNL     1       8.597  12.888  17.512  0.00  0.00    +0.000 A 
ATOM     30  C   UNL     1       9.893  13.351  17.699  0.00  0.00    +0.000 A 
ATOM     31  F   UNL     1      10.191  14.621  17.396  0.00  0.00    +0.000 F 
ATOM     32  C   UNL     1      10.885  12.514  18.193  0.00  0.00    +0.000 A 
ATOM     33  C   UNL     1      10.578  11.186  18.503  0.00  0.00    +0.000 A 
ENDBRANCH  26  27
ENDBRANCH  24  26
ENDBRANCH  21  23
ENDBRANCH   1  21
TORSDOF 6
ENDMDL
MODEL 3
REMARK VINA RESULT:      -8.4      5.182      8.662
REMARK  Name = 
REMARK  6 active torsions:
REMARK  status: ('A' for Active; 'I' for Inactive)
REMARK    1  A    between atoms: C_2  and  C_3
REMARK    2  A    between atoms: C_3  and  N_4
REMARK    3  A    between atoms: C_12  and  S_13
REMARK    4  A    between atoms: S_13  and  N_16
REMARK    5  A    between atoms: N_24  and  C_25
REMARK    6  A    between atoms: C_25  and  C_26
REMARK                            x       y       z     vdW  Elec       q    Type
REMARK                         _______ _______ _______ _____ _____    ______ ____
ROOT
ATOM      1  N   UNL     1       5.931   6.127  17.300  0.00  0.00    +0.000 N 
ATOM      2  C   UNL     1       6.528   4.874  17.346  0.00  0.00    +0.000 C 
ATOM      3  O   UNL     1       7.722   4.690  17.100  0.00  0.00    +0.000 OA
ATOM      4  C   UNL     1       5.627   3.741  17.827  0.00  0.00    +0.000 C 
ATOM      5  O   UNL     1       4.231   3.849  17.646  0.00  0.00    +0.000 OA
ATOM      6  C   UNL     1       3.757   5.124  17.775  0.00  0.00    +0.000 A 
ATOM      7  C   UNL     1       2.380   5.220  18.003  0.00  0.00    +0.000 A 
ATOM      8  C   UNL     1       1.772   6.469  18.101  0.00  0.00    +0.000 A 
ATOM      9  C   UNL     1       2.552   7.622  17.985  0.00  0.00    +0.000 A 
ATOM     10  C   UNL     1       3.931   7.528  17.727  0.00  0.00    +0.000 A 
ATOM     11  C   UNL     1       4.550   6.275  17.614  0.00  0.00    +0.000 A 
ENDROOT
BRANCH   9  12
ATOM     12  S   UNL     1       1.758   9.226  18.019  0.00  0.00    +0.000 S 
ATOM     13  O   UNL     1       2.734  10.192  17.568  0.00  0.00    +0.000 OA
ATOM     14  O   UNL     1       0.485   9.080  17.340  0.00  0.00    +0.000 OA
BRANCH  12  15
ATOM     15  N   UNL     1       1.446   9.501  19.682  0.00  0.00    +0.000 NA
ATOM     16  C   UNL     1       0.379  10.495  19.968  0.00  0.00    +0.000 C 
ATOM     17  C   UNL     1       0.318  10.836  21.451  0.00  0.00    +0.000 C 
ATOM     18  C   UNL     1       0.165   9.578  22.293  0.00  0.00    +0.000 C 
ATOM     19  C   UNL     1       1.325   8.633  22.014  0.00  0.00    +0.000 C 
ATOM     20  C   UNL     1       1.425   8.282  20.533  0.00  0.00    +0.000 C 
ENDBRANCH  12  15
ENDBRANCH   9  12
BRANCH   1  21
ATOM     21  C   UNL     1       6.759   7.253  16.872  0.00  0.00    +0.000 C 
BRANCH  21  23
ATOM     22  O   UNL     1       8.158   6.960  18.823  0.00  0.00    +0.000 OA
ATOM     23  C   UNL     1       7.711   7.729  17.975  0.00  0.00    +0.000 C 
ATOM     24  N   UNL     1       8.063   9.060  17.896  0.00  0.00    +0.000 N 
ATOM     25  H   UNL     1       7.794   9.585  17.069  0.00  0.00    +0.000 HD
BRANCH  24  26
ATOM     26  C   UNL     1       8.948   9.692  18.852  0.00  0.00    +0.000 C 
BRANCH  26  27
ATOM     27  C   UNL     1       9.509  10.987  18.313  0.00  0.00    +0.000 A 
ATOM     28  C   UNL     1       8.645  12.024  17.920  0.00  0.00    +0.000 A 
ATOM     29  C   UNL     1       9.156  13.222  17.412  0.00  0.00    +0.000 A 
ATOM     30  C   UNL     1      10.531  13.383  17.289  0.00  0.00    +0.000 A 
ATOM     31  F   UNL     1      11.021  14.527  16.794  0.00  0.00    +0.000 F 
ATOM     32  C   UNL     1      11.403  12.372  17.670  0.00  0.00    +0.000 A 
ATOM     33  C   UNL     1      10.895  11.174  18.180  0.00  0.00    +0.000 A 
ENDBRANCH  26  27
ENDBRANCH  24  26
ENDBRANCH  21  23
ENDBRANCH   1  21
TORSDOF 6
ENDMDL
MODEL 4
REMARK VINA RESULT:      -8.4      4.926      8.086
REMARK  Name = 
REMARK  6 active torsions:
REMARK  status: ('A' for Active; 'I' for Inactive)
REMARK    1  A    between atoms: C_2  and  C_3
REMARK    2  A    between atoms: C_3  and  N_4
REMARK    3  A    between atoms: C_12  and  S_13
REMARK    4  A    between atoms: S_13  and  N_16
REMARK    5  A    between atoms: N_24  and  C_25
REMARK    6  A    between atoms: C_25  and  C_26
REMARK                            x       y       z     vdW  Elec       q    Type
REMARK                         _______ _______ _______ _____ _____    ______ ____
ROOT
ATOM      1  N   UNL     1       6.247   5.035  17.398  0.00  0.00    +0.000 N 
ATOM      2  C   UNL     1       6.931   4.521  16.305  0.00  0.00    +0.000 C 
ATOM      3  O   UNL     1       8.099   4.820  16.043  0.00  0.00    +0.000 OA
ATOM      4  C   UNL     1       6.174   3.473  15.497  0.00  0.00    +0.000 C 
ATOM      5  O   UNL     1       4.762   3.493  15.498  0.00  0.00    +0.000 OA
ATOM      6  C   UNL     1       4.219   3.877  16.691  0.00  0.00    +0.000 A 
ATOM      7  C   UNL     1       2.874   3.532  16.864  0.00  0.00    +0.000 A 
ATOM      8  C   UNL     1       2.195   3.915  18.018  0.00  0.00    +0.000 A 
ATOM      9  C   UNL     1       2.874   4.632  19.006  0.00  0.00    +0.000 A 
ATOM     10  C   UNL     1       4.217   5.006  18.821  0.00  0.00    +0.000 A 
ATOM     11  C   UNL     1       4.905   4.636  17.656  0.00  0.00    +0.000 A 
ENDROOT
BRANCH   9  12
ATOM     12  S   UNL     1       1.979   5.204  20.447  0.00  0.00    +0.000 S 
ATOM     13  O   UNL     1       0.641   4.666  20.357  0.00  0.00    +0.000 OA
ATOM     14  O   UNL     1       2.817   4.931  21.599  0.00  0.00    +0.000 OA
BRANCH  12  15
ATOM     15  N   UNL     1       1.899   6.904  20.238  0.00  0.00    +0.000 NA
ATOM     16  C   UNL     1       1.845   7.365  18.827  0.00  0.00    +0.000 C 
ATOM     17  C   UNL     1       1.995   8.877  18.728  0.00  0.00    +0.000 C 
ATOM     18  C   UNL     1       0.966   9.584  19.598  0.00  0.00    +0.000 C 
ATOM     19  C   UNL     1       1.121   9.130  21.042  0.00  0.00    +0.000 C 
ATOM     20  C   UNL     1       0.991   7.615  21.175  0.00  0.00    +0.000 C 
ENDBRANCH  12  15
ENDBRANCH   9  12
BRANCH   1  21
ATOM     21  C   UNL     1       6.939   6.025  18.223  0.00  0.00    +0.000 C 
BRANCH  21  23
ATOM     22  O   UNL     1       6.137   7.744  16.721  0.00  0.00    +0.000 OA
ATOM     23  C   UNL     1       6.961   7.412  17.571  0.00  0.00    +0.000 C 
ATOM     24  N   UNL     1       7.931   8.262  18.059  0.00  0.00    +0.000 N 
ATOM     25  H   UNL     1       8.458   7.977  18.880  0.00  0.00    +0.000 HD
BRANCH  24  26
ATOM     26  C   UNL     1       8.111   9.610  17.564  0.00  0.00    +0.000 C 
BRANCH  26  27
ATOM     27  C   UNL     1       9.165  10.353  18.352  0.00  0.00    +0.000 A 
ATOM     28  C   UNL     1      10.185  11.053  17.685  0.00  0.00    +0.000 A 
ATOM     29  C   UNL     1      11.169  11.734  18.407  0.00  0.00    +0.000 A 
ATOM     30  C   UNL     1      11.139  11.711  19.796  0.00  0.00    +0.000 A 
ATOM     31  F   UNL     1      12.087  12.357  20.488  0.00  0.00    +0.000 F 
ATOM     32  C   UNL     1      10.141  11.025  20.476  0.00  0.00    +0.000 A 
ATOM     33  C   UNL     1       9.155  10.344  19.756  0.00  0.00    +0.000 A 
ENDBRANCH  26  27
ENDBRANCH  24  26
ENDBRANCH  21  23
ENDBRANCH   1  21
TORSDOF 6
ENDMDL
MODEL 5
REMARK VINA RESULT:      -8.4      2.029      2.616
REMARK  Name = 
REMARK  6 active torsions:
REMARK  status: ('A' for Active; 'I' for Inactive)
REMARK    1  A    between atoms: C_2  and  C_3
REMARK    2  A    between atoms: C_3  and  N_4
REMARK    3  A    between atoms: C_12  and  S_13
REMARK    4  A    between atoms: S_13  and  N_16
REMARK    5  A    between atoms: N_24  and  C_25
REMARK    6  A    between atoms: C_25  and  C_26
REMARK                            x       y       z     vdW  Elec       q    Type
REMARK                         _______ _______ _______ _____ _____    ______ ____
ROOT
ATOM      1  N   UNL     1       2.316   5.675  19.555  0.00  0.00    +0.000 N 
ATOM      2  C   UNL     1       1.259   5.283  20.366  0.00  0.00    +0.000 C 
ATOM      3  O   UNL     1       0.719   6.040  21.176  0.00  0.00    +0.000 OA
ATOM      4  C   UNL     1       0.735   3.873  20.116  0.00  0.00    +0.000 C 
ATOM      5  O   UNL     1       1.606   2.902  19.577  0.00  0.00    +0.000 OA
ATOM      6  C   UNL     1       2.502   3.406  18.677  0.00  0.00    +0.000 A 
ATOM      7  C   UNL     1       3.095   2.454  17.839  0.00  0.00    +0.000 A 
ATOM      8  C   UNL     1       4.063   2.840  16.915  0.00  0.00    +0.000 A 
ATOM      9  C   UNL     1       4.423   4.186  16.823  0.00  0.00    +0.000 A 
ATOM     10  C   UNL     1       3.851   5.139  17.684  0.00  0.00    +0.000 A 
ATOM     11  C   UNL     1       2.885   4.758  18.626  0.00  0.00    +0.000 A 
ENDROOT
BRANCH   9  12
ATOM     12  S   UNL     1       5.731   4.669  15.701  0.00  0.00    +0.000 S 
ATOM     13  O   UNL     1       6.332   3.452  15.200  0.00  0.00    +0.000 OA
ATOM     14  O   UNL     1       5.169   5.650  14.794  0.00  0.00    +0.000 OA
BRANCH  12  15
ATOM     15  N   UNL     1       6.869   5.465  16.707  0.00  0.00    +0.000 NA
ATOM     16  C   UNL     1       6.694   6.936  16.814  0.00  0.00    +0.000 C 
ATOM     17  C   UNL     1       7.864   7.584  17.543  0.00  0.00    +0.000 C 
ATOM     18  C   UNL     1       8.087   6.936  18.902  0.00  0.00    +0.000 C 
ATOM     19  C   UNL     1       8.335   5.446  18.721  0.00  0.00    +0.000 C 
ATOM     20  C   UNL     1       7.187   4.767  17.979  0.00  0.00    +0.000 C 
ENDBRANCH  12  15
ENDBRANCH   9  12
BRANCH   1  21
ATOM     21  C   UNL     1       2.839   7.028  19.736  0.00  0.00    +0.000 C 
BRANCH  21  23
ATOM     22  O   UNL     1       1.838   8.159  17.846  0.00  0.00    +0.000 OA
ATOM     23  C   UNL     1       1.956   8.088  19.068  0.00  0.00    +0.000 C 
ATOM     24  N   UNL     1       1.269   8.901  19.945  0.00  0.00    +0.000 N 
ATOM     25  H   UNL     1       1.281   8.668  20.934  0.00  0.00    +0.000 HD
BRANCH  24  26
ATOM     26  C   UNL     1       0.390   9.963  19.502  0.00  0.00    +0.000 C 
BRANCH  26  27
ATOM     27  C   UNL     1      -0.378  10.562  20.657  0.00  0.00    +0.000 A 
ATOM     28  C   UNL     1      -1.206  11.679  20.453  0.00  0.00    +0.000 A 
ATOM     29  C   UNL     1      -1.913  12.244  21.518  0.00  0.00    +0.000 A 
ATOM     30  C   UNL     1      -1.789  11.699  22.790  0.00  0.00    +0.000 A 
ATOM     31  F   UNL     1      -2.460  12.245  23.812  0.00  0.00    +0.000 F 
ATOM     32  C   UNL     1      -0.976  10.595  23.015  0.00  0.00    +0.000 A 
ATOM     33  C   UNL     1      -0.269  10.027  21.951  0.00  0.00    +0.000 A 
ENDBRANCH  26  27
ENDBRANCH  24  26
ENDBRANCH  21  23
ENDBRANCH   1  21
TORSDOF 6
ENDMDL
MODEL 6
REMARK VINA RESULT:      -8.4      5.244     10.989
REMARK  Name = 
REMARK  6 active torsions:
REMARK  status: ('A' for Active; 'I' for Inactive)
REMARK    1  A    between atoms: C_2  and  C_3
REMARK    2  A    between atoms: C_3  and  N_4
REMARK    3  A    between atoms: C_12  and  S_13
REMARK    4  A    between atoms: S_13  and  N_16
REMARK    5  A    between atoms: N_24  and  C_25
REMARK    6  A    between atoms: C_25  and  C_26
REMARK                            x       y       z     vdW  Elec       q    Type
REMARK                         _______ _______ _______ _____ _____    ______ ____
ROOT
ATOM      1  N   UNL     1       1.006  11.255  19.229  0.00  0.00    +0.000 N 
ATOM      2  C   UNL     1       2.054  11.582  18.378  0.00  0.00    +0.000 C 
ATOM      3  O   UNL     1       2.473  10.818  17.505  0.00  0.00    +0.000 OA
ATOM      4  C   UNL     1       2.593  13.001  18.524  0.00  0.00    +0.000 C 
ATOM      5  O   UNL     1       2.462  13.661  19.765  0.00  0.00    +0.000 OA
ATOM      6  C   UNL     1       1.307  13.357  20.430  0.00  0.00    +0.000 A 
ATOM      7  C   UNL     1       0.951  14.264  21.435  0.00  0.00    +0.000 A 
ATOM      8  C   UNL     1      -0.179  14.034  22.217  0.00  0.00    +0.000 A 
ATOM      9  C   UNL     1      -0.958  12.900  21.977  0.00  0.00    +0.000 A 
ATOM     10  C   UNL     1      -0.585  11.973  20.989  0.00  0.00    +0.000 A 
ATOM     11  C   UNL     1       0.557  12.189  20.205  0.00  0.00    +0.000 A 
ENDROOT
BRANCH   9  12
ATOM     12  S   UNL     1      -2.356  12.556  23.041  0.00  0.00    +0.000 S 
ATOM     13  O   UNL     1      -2.174  11.220  23.563  0.00  0.00    +0.000 OA
ATOM     14  O   UNL     1      -2.498  13.691  23.932  0.00  0.00    +0.000 OA
BRANCH  12  15
ATOM     15  N   UNL     1      -3.698  12.547  21.974  0.00  0.00    +0.000 NA
ATOM     16  C   UNL     1      -4.987  12.970  22.578  0.00  0.00    +0.000 C 
ATOM     17  C   UNL     1      -6.154  12.726  21.630  0.00  0.00    +0.000 C 
ATOM     18  C   UNL     1      -5.910  13.391  20.283  0.00  0.00    +0.000 C 
ATOM     19  C   UNL     1      -4.617  12.861  19.680  0.00  0.00    +0.000 C 
ATOM     20  C   UNL     1      -3.429  13.076  20.612  0.00  0.00    +0.000 C 
ENDBRANCH  12  15
ENDBRANCH   9  12
BRANCH   1  21
ATOM     21  C   UNL     1       0.436   9.914  19.111  0.00  0.00    +0.000 C 
BRANCH  21  23
ATOM     22  O   UNL     1       1.253   8.770  21.080  0.00  0.00    +0.000 OA
ATOM     23  C   UNL     1       1.265   8.861  19.853  0.00  0.00    +0.000 C 
ATOM     24  N   UNL     1       1.967   8.000  19.036  0.00  0.00    +0.000 N 
ATOM     25  H   UNL     1       1.789   8.027  18.036  0.00  0.00    +0.000 HD
BRANCH  24  26
ATOM     26  C   UNL     1       2.811   6.944  19.554  0.00  0.00    +0.000 C 
BRANCH  26  27
ATOM     27  C   UNL     1       2.193   5.583  19.330  0.00  0.00    +0.000 A 
ATOM     28  C   UNL     1       2.174   5.016  18.045  0.00  0.00    +0.000 A 
ATOM     29  C   UNL     1       1.596   3.762  17.828  0.00  0.00    +0.000 A 
ATOM     30  C   UNL     1       1.029   3.076  18.895  0.00  0.00    +0.000 A 
ATOM     31  F   UNL     1       0.467   1.878  18.687  0.00  0.00    +0.000 F 
ATOM     32  C   UNL     1       1.036   3.617  20.174  0.00  0.00    +0.000 A 
ATOM     33  C   UNL     1       1.615   4.870  20.393  0.00  0.00    +0.000 A 
ENDBRANCH  26  27
ENDBRANCH  24  26
ENDBRANCH  21  23
ENDBRANCH   1  21
TORSDOF 6
ENDMDL
MODEL 7
REMARK VINA RESULT:      -8.4      5.288     11.247
REMARK  Name = 
REMARK  6 active torsions:
REMARK  status: ('A' for Active; 'I' for Inactive)
REMARK    1  A    between atoms: C_2  and  C_3
REMARK    2  A    between atoms: C_3  and  N_4
REMARK    3  A    between atoms: C_12  and  S_13
REMARK    4  A    between atoms: S_13  and  N_16
REMARK    5  A    between atoms: N_24  and  C_25
REMARK    6  A    between atoms: C_25  and  C_26
REMARK                            x       y       z     vdW  Elec       q    Type
REMARK                         _______ _______ _______ _____ _____    ______ ____
ROOT
ATOM      1  N   UNL     1       1.071  11.186  19.263  0.00  0.00    +0.000 N 
ATOM      2  C   UNL     1       2.057  11.318  18.294  0.00  0.00    +0.000 C 
ATOM      3  O   UNL     1       2.325  10.427  17.484  0.00  0.00    +0.000 OA
ATOM      4  C   UNL     1       2.726  12.687  18.226  0.00  0.00    +0.000 C 
ATOM      5  O   UNL     1       2.769  13.488  19.388  0.00  0.00    +0.000 OA
ATOM      6  C   UNL     1       1.662  13.370  20.180  0.00  0.00    +0.000 A 
ATOM      7  C   UNL     1       1.481  14.410  21.098  0.00  0.00    +0.000 A 
ATOM      8  C   UNL     1       0.415  14.375  21.995  0.00  0.00    +0.000 A 
ATOM      9  C   UNL     1      -0.476  13.301  21.957  0.00  0.00    +0.000 A 
ATOM     10  C   UNL     1      -0.279  12.240  21.056  0.00  0.00    +0.000 A 
ATOM     11  C   UNL     1       0.798  12.260  20.158  0.00  0.00    +0.000 A 
ENDROOT
BRANCH   9  12
ATOM     12  S   UNL     1      -1.791  13.209  23.168  0.00  0.00    +0.000 S 
ATOM     13  O   UNL     1      -1.971  11.812  23.494  0.00  0.00    +0.000 OA
ATOM     14  O   UNL     1      -1.482  14.181  24.200  0.00  0.00    +0.000 OA
BRANCH  12  15
ATOM     15  N   UNL     1      -3.177  13.756  22.320  0.00  0.00    +0.000 NA
ATOM     16  C   UNL     1      -4.299  12.785  22.254  0.00  0.00    +0.000 C 
ATOM     17  C   UNL     1      -5.393  13.262  21.307  0.00  0.00    +0.000 C 
ATOM     18  C   UNL     1      -5.869  14.658  21.684  0.00  0.00    +0.000 C 
ATOM     19  C   UNL     1      -4.691  15.621  21.660  0.00  0.00    +0.000 C 
ATOM     20  C   UNL     1      -3.568  15.165  22.587  0.00  0.00    +0.000 C 
ENDBRANCH  12  15
ENDBRANCH   9  12
BRANCH   1  21
ATOM     21  C   UNL     1       0.381   9.902  19.353  0.00  0.00    +0.000 C 
BRANCH  21  23
ATOM     22  O   UNL     1       1.253   8.799  21.322  0.00  0.00    +0.000 OA
ATOM     23  C   UNL     1       1.209   8.846  20.094  0.00  0.00    +0.000 C 
ATOM     24  N   UNL     1       1.839   7.931  19.276  0.00  0.00    +0.000 N 
ATOM     25  H   UNL     1       1.614   7.929  18.286  0.00  0.00    +0.000 HD
BRANCH  24  26
ATOM     26  C   UNL     1       2.670   6.864  19.793  0.00  0.00    +0.000 C 
BRANCH  26  27
ATOM     27  C   UNL     1       2.086   5.507  19.477  0.00  0.00    +0.000 A 
ATOM     28  C   UNL     1       1.521   4.724  20.499  0.00  0.00    +0.000 A 
ATOM     29  C   UNL     1       0.987   3.464  20.216  0.00  0.00    +0.000 A 
ATOM     30  C   UNL     1       1.024   2.980  18.914  0.00  0.00    +0.000 A 
ATOM     31  F   UNL     1       0.520   1.768  18.645  0.00  0.00    +0.000 F 
ATOM     32  C   UNL     1       1.578   3.735  17.889  0.00  0.00    +0.000 A 
ATOM     33  C   UNL     1       2.111   4.996  18.169  0.00  0.00    +0.000 A 
ENDBRANCH  26  27
ENDBRANCH  24  26
ENDBRANCH  21  23
ENDBRANCH   1  21
TORSDOF 6
ENDMDL
MODEL 8
REMARK VINA RESULT:      -8.2      5.280     11.783
REMARK  Name = 
REMARK  6 active torsions:
REMARK  status: ('A' for Active; 'I' for Inactive)
REMARK    1  A    between atoms: C_2  and  C_3
REMARK    2  A    between atoms: C_3  and  N_4
REMARK    3  A    between atoms: C_12  and  S_13
REMARK    4  A    between atoms: S_13  and  N_16
REMARK    5  A    between atoms: N_24  and  C_25
REMARK    6  A    between atoms: C_25  and  C_26
REMARK                            x       y       z     vdW  Elec       q    Type
REMARK                         _______ _______ _______ _____ _____    ______ ____
ROOT
ATOM      1  N   UNL     1      -0.229  10.567  19.615  0.00  0.00    +0.000 N 
ATOM      2  C   UNL     1      -0.130  10.074  18.321  0.00  0.00    +0.000 C 
ATOM      3  O   UNL     1       0.844   9.432  17.921  0.00  0.00    +0.000 OA
ATOM      4  C   UNL     1      -1.361  10.287  17.446  0.00  0.00    +0.000 C 
ATOM      5  O   UNL     1      -2.218  11.375  17.720  0.00  0.00    +0.000 OA
ATOM      6  C   UNL     1      -2.338  11.658  19.052  0.00  0.00    +0.000 A 
ATOM      7  C   UNL     1      -3.452  12.435  19.391  0.00  0.00    +0.000 A 
ATOM      8  C   UNL     1      -3.655  12.831  20.710  0.00  0.00    +0.000 A 
ATOM      9  C   UNL     1      -2.745  12.433  21.692  0.00  0.00    +0.000 A 
ATOM     10  C   UNL     1      -1.609  11.679  21.349  0.00  0.00    +0.000 A 
ATOM     11  C   UNL     1      -1.390  11.285  20.021  0.00  0.00    +0.000 A 
ENDROOT
BRANCH   9  12
ATOM     12  S   UNL     1      -2.953  13.018  23.371  0.00  0.00    +0.000 S 
ATOM     13  O   UNL     1      -3.564  11.945  24.122  0.00  0.00    +0.000 OA
ATOM     14  O   UNL     1      -1.683  13.586  23.780  0.00  0.00    +0.000 OA
BRANCH  12  15
ATOM     15  N   UNL     1      -4.085  14.298  23.227  0.00  0.00    +0.000 NA
ATOM     16  C   UNL     1      -5.476  13.957  23.623  0.00  0.00    +0.000 C 
ATOM     17  C   UNL     1      -6.448  15.073  23.261  0.00  0.00    +0.000 C 
ATOM     18  C   UNL     1      -5.997  16.400  23.852  0.00  0.00    +0.000 C 
ATOM     19  C   UNL     1      -4.599  16.733  23.351  0.00  0.00    +0.000 C 
ATOM     20  C   UNL     1      -3.601  15.627  23.684  0.00  0.00    +0.000 C 
ENDBRANCH  12  15
ENDBRANCH   9  12
BRANCH   1  21
ATOM     21  C   UNL     1       0.914  10.365  20.503  0.00  0.00    +0.000 C 
BRANCH  21  23
ATOM     22  O   UNL     1       0.185   8.795  22.193  0.00  0.00    +0.000 OA
ATOM     23  C   UNL     1       0.877   8.999  21.198  0.00  0.00    +0.000 C 
ATOM     24  N   UNL     1       1.627   8.019  20.581  0.00  0.00    +0.000 N 
ATOM     25  H   UNL     1       2.028   8.217  19.669  0.00  0.00    +0.000 HD
BRANCH  24  26
ATOM     26  C   UNL     1       1.720   6.668  21.093  0.00  0.00    +0.000 C 
BRANCH  26  27
ATOM     27  C   UNL     1       1.904   5.666  19.978  0.00  0.00    +0.000 A 
ATOM     28  C   UNL     1       2.669   5.998  18.846  0.00  0.00    +0.000 A 
ATOM     29  C   UNL     1       2.836   5.080  17.805  0.00  0.00    +0.000 A 
ATOM     30  C   UNL     1       2.233   3.831  17.890  0.00  0.00    +0.000 A 
ATOM     31  F   UNL     1       2.386   2.954  16.890  0.00  0.00    +0.000 F 
ATOM     32  C   UNL     1       1.472   3.481  18.998  0.00  0.00    +0.000 A 
ATOM     33  C   UNL     1       1.305   4.397  20.041  0.00  0.00    +0.000 A 
ENDBRANCH  26  27
ENDBRANCH  24  26
ENDBRANCH  21  23
ENDBRANCH   1  21
TORSDOF 6
ENDMDL
MODEL 9
REMARK VINA RESULT:      -8.1      5.859     11.612
REMARK  Name = 
REMARK  6 active torsions:
REMARK  status: ('A' for Active; 'I' for Inactive)
REMARK    1  A    between atoms: C_2  and  C_3
REMARK    2  A    between atoms: C_3  and  N_4
REMARK    3  A    between atoms: C_12  and  S_13
REMARK    4  A    between atoms: S_13  and  N_16
REMARK    5  A    between atoms: N_24  and  C_25
REMARK    6  A    between atoms: C_25  and  C_26
REMARK                            x       y       z     vdW  Elec       q    Type
REMARK                         _______ _______ _______ _____ _____    ______ ____
ROOT
ATOM      1  N   UNL     1      -1.775  11.166  18.649  0.00  0.00    +0.000 N 
ATOM      2  C   UNL     1      -1.354  10.269  17.675  0.00  0.00    +0.000 C 
ATOM      3  O   UNL     1      -0.203   9.830  17.620  0.00  0.00    +0.000 OA
ATOM      4  C   UNL     1      -2.444   9.776  16.729  0.00  0.00    +0.000 C 
ATOM      5  O   UNL     1      -3.570  10.594  16.493  0.00  0.00    +0.000 OA
ATOM      6  C   UNL     1      -3.967  11.312  17.586  0.00  0.00    +0.000 A 
ATOM      7  C   UNL     1      -5.274  11.807  17.523  0.00  0.00    +0.000 A 
ATOM      8  C   UNL     1      -5.775  12.598  18.554  0.00  0.00    +0.000 A 
ATOM      9  C   UNL     1      -4.965  12.877  19.657  0.00  0.00    +0.000 A 
ATOM     10  C   UNL     1      -3.641  12.407  19.708  0.00  0.00    +0.000 A 
ATOM     11  C   UNL     1      -3.124  11.621  18.669  0.00  0.00    +0.000 A 
ENDROOT
BRANCH   9  12
ATOM     12  S   UNL     1      -5.574  13.969  20.938  0.00  0.00    +0.000 S 
ATOM     13  O   UNL     1      -5.328  15.323  20.496  0.00  0.00    +0.000 OA
ATOM     14  O   UNL     1      -6.914  13.524  21.269  0.00  0.00    +0.000 OA
BRANCH  12  15
ATOM     15  N   UNL     1      -4.559  13.640  22.281  0.00  0.00    +0.000 NA
ATOM     16  C   UNL     1      -3.570  14.702  22.599  0.00  0.00    +0.000 C 
ATOM     17  C   UNL     1      -2.576  14.239  23.656  0.00  0.00    +0.000 C 
ATOM     18  C   UNL     1      -3.297  13.741  24.900  0.00  0.00    +0.000 C 
ATOM     19  C   UNL     1      -4.237  12.605  24.524  0.00  0.00    +0.000 C 
ATOM     20  C   UNL     1      -5.238  13.031  23.454  0.00  0.00    +0.000 C 
ENDBRANCH  12  15
ENDBRANCH   9  12
BRANCH   1  21
ATOM     21  C   UNL     1      -0.774  11.649  19.598  0.00  0.00    +0.000 C 
BRANCH  21  23
ATOM     22  O   UNL     1      -1.027  10.413  21.662  0.00  0.00    +0.000 OA
ATOM     23  C   UNL     1      -0.385  10.582  20.627  0.00  0.00    +0.000 C 
ATOM     24  N   UNL     1       0.694   9.802  20.268  0.00  0.00    +0.000 N 
ATOM     25  H   UNL     1       1.061   9.886  19.324  0.00  0.00    +0.000 HD
BRANCH  24  26
ATOM     26  C   UNL     1       1.213   8.747  21.113  0.00  0.00    +0.000 C 
BRANCH  26  27
ATOM     27  C   UNL     1       1.724   7.585  20.295  0.00  0.00    +0.000 A 
ATOM     28  C   UNL     1       2.260   7.801  19.014  0.00  0.00    +0.000 A 
ATOM     29  C   UNL     1       2.726   6.730  18.247  0.00  0.00    +0.000 A 
ATOM     30  C   UNL     1       2.652   5.439  18.757  0.00  0.00    +0.000 A 
ATOM     31  F   UNL     1       3.092   4.411  18.019  0.00  0.00    +0.000 F 
ATOM     32  C   UNL     1       2.127   5.201  20.020  0.00  0.00    +0.000 A 
ATOM     33  C   UNL     1       1.661   6.271  20.789  0.00  0.00    +0.000 A 
ENDBRANCH  26  27
ENDBRANCH  24  26
ENDBRANCH  21  23
ENDBRANCH   1  21
TORSDOF 6
ENDMDL
