MODEL 1
REMARK VINA RESULT:      -7.7      0.000      0.000
REMARK  Name = 
REMARK  7 active torsions:
REMARK  status: ('A' for Active; 'I' for Inactive)
REMARK    1  A    between atoms: C_1  and  O_2
REMARK    2  A    between atoms: O_2  and  C_3
REMARK    3  A    between atoms: C_6  and  C_7
REMARK    4  A    between atoms: C_10  and  C_11
REMARK    5  A    between atoms: C_11  and  P_14
REMARK    6  A    between atoms: P_14  and  O_16
REMARK    7  A    between atoms: P_14  and  O_17
REMARK                            x       y       z     vdW  Elec       q    Type
REMARK                         _______ _______ _______ _____ _____    ______ ____
ROOT
ATOM      1  C   UNL     1       2.650   7.199  18.470  0.00  0.00    +0.000 A 
ATOM      2  C   UNL     1       2.341   6.981  19.824  0.00  0.00    +0.000 A 
ATOM      3  C   UNL     1       1.580   7.897  20.555  0.00  0.00    +0.000 A 
ATOM      4  C   UNL     1       1.111   9.073  19.957  0.00  0.00    +0.000 A 
ATOM      5  C   UNL     1       1.403   9.305  18.614  0.00  0.00    +0.000 A 
ATOM      6  C   UNL     1       2.151   8.377  17.885  0.00  0.00    +0.000 A 
ENDROOT
BRANCH   1  10
ATOM      7  C   UNL     1       5.113   4.400  16.266  0.00  0.00    +0.000 A 
ATOM      8  C   UNL     1       5.370   5.770  16.191  0.00  0.00    +0.000 A 
ATOM      9  C   UNL     1       4.581   6.686  16.907  0.00  0.00    +0.000 A 
ATOM     10  C   UNL     1       3.493   6.257  17.688  0.00  0.00    +0.000 A 
ATOM     11  C   UNL     1       3.229   4.873  17.700  0.00  0.00    +0.000 A 
ATOM     12  C   UNL     1       4.032   3.956  17.006  0.00  0.00    +0.000 A 
BRANCH   7  14
ATOM     13  C   UNL     1       6.304   4.097  14.254  0.00  0.00    +0.000 C 
ATOM     14  O   UNL     1       5.950   3.597  15.541  0.00  0.00    +0.000 OA
ENDBRANCH   7  14
ENDBRANCH   1  10
BRANCH   4  15
ATOM     15  C   UNL     1       0.337  10.076  20.759  0.00  0.00    +0.000 C 
ATOM     16  F   UNL     1       0.996  11.266  20.894  0.00  0.00    +0.000 F 
ATOM     17  F   UNL     1      -0.887  10.385  20.244  0.00  0.00    +0.000 F 
BRANCH  15  18
ATOM     18  P   UNL     1      -0.047   9.713  22.480  0.00  0.00    +0.000 P 
ATOM     19  O   UNL     1       1.081   9.654  23.468  0.00  0.00    +0.000 OA
BRANCH  18  20
ATOM     20  O   UNL     1      -1.115  10.819  22.969  0.00  0.00    +0.000 OA
ATOM     21  H   UNL     1      -1.328  11.438  22.245  0.00  0.00    +0.000 HD
ENDBRANCH  18  20
BRANCH  18  22
ATOM     22  O   UNL     1      -0.942   8.378  22.596  0.00  0.00    +0.000 OA
ATOM     23  H   UNL     1      -1.183   8.026  21.720  0.00  0.00    +0.000 HD
ENDBRANCH  18  22
ENDBRANCH  15  18
ENDBRANCH   4  15
TORSDOF 6
ENDMDL
MODEL 2
REMARK VINA RESULT:      -7.7      0.350      1.101
REMARK  Name = 
REMARK  7 active torsions:
REMARK  status: ('A' for Active; 'I' for Inactive)
REMARK    1  A    between atoms: C_1  and  O_2
REMARK    2  A    between atoms: O_2  and  C_3
REMARK    3  A    between atoms: C_6  and  C_7
REMARK    4  A    between atoms: C_10  and  C_11
REMARK    5  A    between atoms: C_11  and  P_14
REMARK    6  A    between atoms: P_14  and  O_16
REMARK    7  A    between atoms: P_14  and  O_17
REMARK                            x       y       z     vdW  Elec       q    Type
REMARK                         _______ _______ _______ _____ _____    ______ ____
ROOT
ATOM      1  C   UNL     1       2.806   7.146  18.323  0.00  0.00    +0.000 A 
ATOM      2  C   UNL     1       2.406   6.855  19.638  0.00  0.00    +0.000 A 
ATOM      3  C   UNL     1       1.622   7.745  20.376  0.00  0.00    +0.000 A 
ATOM      4  C   UNL     1       1.220   8.968  19.824  0.00  0.00    +0.000 A 
ATOM      5  C   UNL     1       1.602   9.273  18.519  0.00  0.00    +0.000 A 
ATOM      6  C   UNL     1       2.373   8.370  17.782  0.00  0.00    +0.000 A 
ENDROOT
BRANCH   1  10
ATOM      7  C   UNL     1       5.322   4.526  15.963  0.00  0.00    +0.000 A 
ATOM      8  C   UNL     1       4.362   3.989  16.823  0.00  0.00    +0.000 A 
ATOM      9  C   UNL     1       3.536   4.830  17.588  0.00  0.00    +0.000 A 
ATOM     10  C   UNL     1       3.675   6.229  17.538  0.00  0.00    +0.000 A 
ATOM     11  C   UNL     1       4.687   6.736  16.700  0.00  0.00    +0.000 A 
ATOM     12  C   UNL     1       5.494   5.898  15.917  0.00  0.00    +0.000 A 
BRANCH   7  14
ATOM     13  C   UNL     1       6.217   3.915  13.869  0.00  0.00    +0.000 C 
ATOM     14  O   UNL     1       6.060   3.619  15.255  0.00  0.00    +0.000 OA
ENDBRANCH   7  14
ENDBRANCH   1  10
BRANCH   4  15
ATOM     15  C   UNL     1       0.420   9.942  20.637  0.00  0.00    +0.000 C 
ATOM     16  F   UNL     1       0.926  11.211  20.589  0.00  0.00    +0.000 F 
ATOM     17  F   UNL     1      -0.887  10.048  20.263  0.00  0.00    +0.000 F 
BRANCH  15  18
ATOM     18  P   UNL     1       0.295   9.702  22.417  0.00  0.00    +0.000 P 
ATOM     19  O   UNL     1       1.550   9.422  23.191  0.00  0.00    +0.000 OA
BRANCH  18  20
ATOM     20  O   UNL     1      -0.411  11.020  23.022  0.00  0.00    +0.000 OA
ATOM     21  H   UNL     1      -1.383  10.936  22.995  0.00  0.00    +0.000 HD
ENDBRANCH  18  20
BRANCH  18  22
ATOM     22  O   UNL     1      -0.820   8.592  22.767  0.00  0.00    +0.000 OA
ATOM     23  H   UNL     1      -1.481   8.929  23.398  0.00  0.00    +0.000 HD
ENDBRANCH  18  22
ENDBRANCH  15  18
ENDBRANCH   4  15
TORSDOF 6
ENDMDL
MODEL 3
REMARK VINA RESULT:      -7.6      0.418      1.126
REMARK  Name = 
REMARK  7 active torsions:
REMARK  status: ('A' for Active; 'I' for Inactive)
REMARK    1  A    between atoms: C_1  and  O_2
REMARK    2  A    between atoms: O_2  and  C_3
REMARK    3  A    between atoms: C_6  and  C_7
REMARK    4  A    between atoms: C_10  and  C_11
REMARK    5  A    between atoms: C_11  and  P_14
REMARK    6  A    between atoms: P_14  and  O_16
REMARK    7  A    between atoms: P_14  and  O_17
REMARK                            x       y       z     vdW  Elec       q    Type
REMARK                         _______ _______ _______ _____ _____    ______ ____
ROOT
ATOM      1  C   UNL     1       2.930   7.242  18.246  0.00  0.00    +0.000 A 
ATOM      2  C   UNL     1       2.479   8.470  17.733  0.00  0.00    +0.000 A 
ATOM      3  C   UNL     1       1.669   9.323  18.487  0.00  0.00    +0.000 A 
ATOM      4  C   UNL     1       1.271   8.968  19.782  0.00  0.00    +0.000 A 
ATOM      5  C   UNL     1       1.712   7.756  20.311  0.00  0.00    +0.000 A 
ATOM      6  C   UNL     1       2.535   6.917  19.556  0.00  0.00    +0.000 A 
ENDROOT
BRANCH   1  10
ATOM      7  C   UNL     1       5.352   4.456  15.980  0.00  0.00    +0.000 A 
ATOM      8  C   UNL     1       5.579   5.829  15.876  0.00  0.00    +0.000 A 
ATOM      9  C   UNL     1       4.804   6.742  16.612  0.00  0.00    +0.000 A 
ATOM     10  C   UNL     1       3.757   6.304  17.443  0.00  0.00    +0.000 A 
ATOM     11  C   UNL     1       3.520   4.916  17.485  0.00  0.00    +0.000 A 
ATOM     12  C   UNL     1       4.311   4.003  16.771  0.00  0.00    +0.000 A 
BRANCH   7  14
ATOM     13  C   UNL     1       6.126   3.889  13.827  0.00  0.00    +0.000 C 
ATOM     14  O   UNL     1       6.173   3.658  15.233  0.00  0.00    +0.000 OA
ENDBRANCH   7  14
ENDBRANCH   1  10
BRANCH   4  15
ATOM     15  C   UNL     1       0.361   9.865  20.569  0.00  0.00    +0.000 C 
ATOM     16  F   UNL     1       0.708  11.183  20.474  0.00  0.00    +0.000 F 
ATOM     17  F   UNL     1      -0.950   9.797  20.202  0.00  0.00    +0.000 F 
BRANCH  15  18
ATOM     18  P   UNL     1       0.274   9.673  22.357  0.00  0.00    +0.000 P 
ATOM     19  O   UNL     1       1.545   9.418  23.112  0.00  0.00    +0.000 OA
BRANCH  18  20
ATOM     20  O   UNL     1      -0.425  11.004  22.940  0.00  0.00    +0.000 OA
ATOM     21  H   UNL     1       0.152  11.438  23.597  0.00  0.00    +0.000 HD
ENDBRANCH  18  20
BRANCH  18  22
ATOM     22  O   UNL     1      -0.828   8.568  22.759  0.00  0.00    +0.000 OA
ATOM     23  H   UNL     1      -0.489   7.945  23.427  0.00  0.00    +0.000 HD
ENDBRANCH  18  22
ENDBRANCH  15  18
ENDBRANCH   4  15
TORSDOF 6
ENDMDL
MODEL 4
REMARK VINA RESULT:      -7.5      4.096      7.966
REMARK  Name = 
REMARK  7 active torsions:
REMARK  status: ('A' for Active; 'I' for Inactive)
REMARK    1  A    between atoms: C_1  and  O_2
REMARK    2  A    between atoms: O_2  and  C_3
REMARK    3  A    between atoms: C_6  and  C_7
REMARK    4  A    between atoms: C_10  and  C_11
REMARK    5  A    between atoms: C_11  and  P_14
REMARK    6  A    between atoms: P_14  and  O_16
REMARK    7  A    between atoms: P_14  and  O_17
REMARK                            x       y       z     vdW  Elec       q    Type
REMARK                         _______ _______ _______ _____ _____    ______ ____
ROOT
ATOM      1  C   UNL     1       2.481   7.663  18.694  0.00  0.00    +0.000 A 
ATOM      2  C   UNL     1       3.311   7.803  17.569  0.00  0.00    +0.000 A 
ATOM      3  C   UNL     1       4.258   6.832  17.235  0.00  0.00    +0.000 A 
ATOM      4  C   UNL     1       4.416   5.687  18.027  0.00  0.00    +0.000 A 
ATOM      5  C   UNL     1       3.599   5.528  19.144  0.00  0.00    +0.000 A 
ATOM      6  C   UNL     1       2.643   6.496  19.462  0.00  0.00    +0.000 A 
ENDROOT
BRANCH   1  10
ATOM      7  C   UNL     1      -0.430  10.638  19.890  0.00  0.00    +0.000 A 
ATOM      8  C   UNL     1      -0.030  10.546  18.556  0.00  0.00    +0.000 A 
ATOM      9  C   UNL     1       0.910   9.579  18.156  0.00  0.00    +0.000 A 
ATOM     10  C   UNL     1       1.497   8.706  19.088  0.00  0.00    +0.000 A 
ATOM     11  C   UNL     1       1.111   8.860  20.434  0.00  0.00    +0.000 A 
ATOM     12  C   UNL     1       0.154   9.807  20.829  0.00  0.00    +0.000 A 
BRANCH   7  14
ATOM     13  C   UNL     1      -2.249  11.912  19.096  0.00  0.00    +0.000 C 
ATOM     14  O   UNL     1      -1.359  11.603  20.166  0.00  0.00    +0.000 OA
ENDBRANCH   7  14
ENDBRANCH   1  10
BRANCH   4  15
ATOM     15  C   UNL     1       5.468   4.672  17.692  0.00  0.00    +0.000 C 
ATOM     16  F   UNL     1       5.696   3.792  18.713  0.00  0.00    +0.000 F 
ATOM     17  F   UNL     1       5.184   3.908  16.598  0.00  0.00    +0.000 F 
BRANCH  15  18
ATOM     18  P   UNL     1       7.146   5.228  17.351  0.00  0.00    +0.000 P 
ATOM     19  O   UNL     1       7.442   5.825  16.006  0.00  0.00    +0.000 OA
BRANCH  18  20
ATOM     20  O   UNL     1       7.530   6.297  18.495  0.00  0.00    +0.000 OA
ATOM     21  H   UNL     1       6.828   6.969  18.591  0.00  0.00    +0.000 HD
ENDBRANCH  18  20
BRANCH  18  22
ATOM     22  O   UNL     1       8.211   4.063  17.675  0.00  0.00    +0.000 OA
ATOM     23  H   UNL     1       8.964   4.395  18.196  0.00  0.00    +0.000 HD
ENDBRANCH  18  22
ENDBRANCH  15  18
ENDBRANCH   4  15
TORSDOF 6
ENDMDL
MODEL 5
REMARK VINA RESULT:      -7.5      3.633      8.099
REMARK  Name = 
REMARK  7 active torsions:
REMARK  status: ('A' for Active; 'I' for Inactive)
REMARK    1  A    between atoms: C_1  and  O_2
REMARK    2  A    between atoms: O_2  and  C_3
REMARK    3  A    between atoms: C_6  and  C_7
REMARK    4  A    between atoms: C_10  and  C_11
REMARK    5  A    between atoms: C_11  and  P_14
REMARK    6  A    between atoms: P_14  and  O_16
REMARK    7  A    between atoms: P_14  and  O_17
REMARK                            x       y       z     vdW  Elec       q    Type
REMARK                         _______ _______ _______ _____ _____    ______ ____
ROOT
ATOM      1  C   UNL     1       1.646   8.025  19.975  0.00  0.00    +0.000 A 
ATOM      2  C   UNL     1       2.132   8.378  18.704  0.00  0.00    +0.000 A 
ATOM      3  C   UNL     1       2.933   7.507  17.961  0.00  0.00    +0.000 A 
ATOM      4  C   UNL     1       3.288   6.253  18.473  0.00  0.00    +0.000 A 
ATOM      5  C   UNL     1       2.812   5.882  19.729  0.00  0.00    +0.000 A 
ATOM      6  C   UNL     1       1.998   6.752  20.459  0.00  0.00    +0.000 A 
ENDROOT
BRANCH   1  10
ATOM      7  C   UNL     1      -0.698  10.803  22.330  0.00  0.00    +0.000 A 
ATOM      8  C   UNL     1      -0.104   9.695  22.937  0.00  0.00    +0.000 A 
ATOM      9  C   UNL     1       0.664   8.791  22.184  0.00  0.00    +0.000 A 
ATOM     10  C   UNL     1       0.827   8.954  20.796  0.00  0.00    +0.000 A 
ATOM     11  C   UNL     1       0.172  10.052  20.206  0.00  0.00    +0.000 A 
ATOM     12  C   UNL     1      -0.574  10.969  20.962  0.00  0.00    +0.000 A 
BRANCH   7  14
ATOM     13  C   UNL     1      -1.212  13.021  22.943  0.00  0.00    +0.000 C 
ATOM     14  O   UNL     1      -1.411  11.625  23.158  0.00  0.00    +0.000 OA
ENDBRANCH   7  14
ENDBRANCH   1  10
BRANCH   4  15
ATOM     15  C   UNL     1       4.189   5.342  17.693  0.00  0.00    +0.000 C 
ATOM     16  F   UNL     1       3.556   4.205  17.274  0.00  0.00    +0.000 F 
ATOM     17  F   UNL     1       4.724   5.905  16.572  0.00  0.00    +0.000 F 
BRANCH  15  18
ATOM     18  P   UNL     1       5.636   4.638  18.501  0.00  0.00    +0.000 P 
ATOM     19  O   UNL     1       6.304   5.429  19.587  0.00  0.00    +0.000 OA
BRANCH  18  20
ATOM     20  O   UNL     1       5.194   3.204  19.093  0.00  0.00    +0.000 OA
ATOM     21  H   UNL     1       5.559   2.479  18.550  0.00  0.00    +0.000 HD
ENDBRANCH  18  20
BRANCH  18  22
ATOM     22  O   UNL     1       6.731   4.177  17.412  0.00  0.00    +0.000 OA
ATOM     23  H   UNL     1       7.385   4.877  17.238  0.00  0.00    +0.000 HD
ENDBRANCH  18  22
ENDBRANCH  15  18
ENDBRANCH   4  15
TORSDOF 6
ENDMDL
MODEL 6
REMARK VINA RESULT:      -7.5      4.125      7.891
REMARK  Name = 
REMARK  7 active torsions:
REMARK  status: ('A' for Active; 'I' for Inactive)
REMARK    1  A    between atoms: C_1  and  O_2
REMARK    2  A    between atoms: O_2  and  C_3
REMARK    3  A    between atoms: C_6  and  C_7
REMARK    4  A    between atoms: C_10  and  C_11
REMARK    5  A    between atoms: C_11  and  P_14
REMARK    6  A    between atoms: P_14  and  O_16
REMARK    7  A    between atoms: P_14  and  O_17
REMARK                            x       y       z     vdW  Elec       q    Type
REMARK                         _______ _______ _______ _____ _____    ______ ____
ROOT
ATOM      1  C   UNL     1       2.483   7.714  18.748  0.00  0.00    +0.000 A 
ATOM      2  C   UNL     1       2.707   6.586  19.555  0.00  0.00    +0.000 A 
ATOM      3  C   UNL     1       3.678   5.636  19.228  0.00  0.00    +0.000 A 
ATOM      4  C   UNL     1       4.452   5.777  18.069  0.00  0.00    +0.000 A 
ATOM      5  C   UNL     1       4.247   6.892  17.257  0.00  0.00    +0.000 A 
ATOM      6  C   UNL     1       3.286   7.846  17.601  0.00  0.00    +0.000 A 
ENDROOT
BRANCH   1  10
ATOM      7  C   UNL     1      -0.639  10.561  19.700  0.00  0.00    +0.000 A 
ATOM      8  C   UNL     1      -0.170  10.447  18.391  0.00  0.00    +0.000 A 
ATOM      9  C   UNL     1       0.838   9.522  18.069  0.00  0.00    +0.000 A 
ATOM     10  C   UNL     1       1.426   8.713  19.058  0.00  0.00    +0.000 A 
ATOM     11  C   UNL     1       0.967   8.890  20.378  0.00  0.00    +0.000 A 
ATOM     12  C   UNL     1      -0.057   9.795  20.695  0.00  0.00    +0.000 A 
BRANCH   7  14
ATOM     13  C   UNL     1      -2.499  11.686  18.787  0.00  0.00    +0.000 C 
ATOM     14  O   UNL     1      -1.631  11.482  19.899  0.00  0.00    +0.000 OA
ENDBRANCH   7  14
ENDBRANCH   1  10
BRANCH   4  15
ATOM     15  C   UNL     1       5.458   4.729  17.696  0.00  0.00    +0.000 C 
ATOM     16  F   UNL     1       5.679   3.829  18.700  0.00  0.00    +0.000 F 
ATOM     17  F   UNL     1       5.121   3.990  16.600  0.00  0.00    +0.000 F 
BRANCH  15  18
ATOM     18  P   UNL     1       7.146   5.230  17.321  0.00  0.00    +0.000 P 
ATOM     19  O   UNL     1       7.435   5.818  15.971  0.00  0.00    +0.000 OA
BRANCH  18  20
ATOM     20  O   UNL     1       7.589   6.284  18.458  0.00  0.00    +0.000 OA
ATOM     21  H   UNL     1       8.472   6.062  18.811  0.00  0.00    +0.000 HD
ENDBRANCH  18  20
BRANCH  18  22
ATOM     22  O   UNL     1       8.178   4.029  17.622  0.00  0.00    +0.000 OA
ATOM     23  H   UNL     1       8.094   3.700  18.536  0.00  0.00    +0.000 HD
ENDBRANCH  18  22
ENDBRANCH  15  18
ENDBRANCH   4  15
TORSDOF 6
ENDMDL
MODEL 7
REMARK VINA RESULT:      -7.5      4.074      8.186
REMARK  Name = 
REMARK  7 active torsions:
REMARK  status: ('A' for Active; 'I' for Inactive)
REMARK    1  A    between atoms: C_1  and  O_2
REMARK    2  A    between atoms: O_2  and  C_3
REMARK    3  A    between atoms: C_6  and  C_7
REMARK    4  A    between atoms: C_10  and  C_11
REMARK    5  A    between atoms: C_11  and  P_14
REMARK    6  A    between atoms: P_14  and  O_16
REMARK    7  A    between atoms: P_14  and  O_17
REMARK                            x       y       z     vdW  Elec       q    Type
REMARK                         _______ _______ _______ _____ _____    ______ ____
ROOT
ATOM      1  C   UNL     1       2.757   7.303  18.658  0.00  0.00    +0.000 A 
ATOM      2  C   UNL     1       2.949   5.939  18.938  0.00  0.00    +0.000 A 
ATOM      3  C   UNL     1       3.805   5.149  18.166  0.00  0.00    +0.000 A 
ATOM      4  C   UNL     1       4.491   5.697  17.074  0.00  0.00    +0.000 A 
ATOM      5  C   UNL     1       4.317   7.049  16.784  0.00  0.00    +0.000 A 
ATOM      6  C   UNL     1       3.473   7.836  17.571  0.00  0.00    +0.000 A 
ENDROOT
BRANCH   1  10
ATOM      7  C   UNL     1       0.071   9.840  20.919  0.00  0.00    +0.000 A 
ATOM      8  C   UNL     1       0.607   8.690  21.501  0.00  0.00    +0.000 A 
ATOM      9  C   UNL     1       1.485   7.864  20.779  0.00  0.00    +0.000 A 
ATOM     10  C   UNL     1       1.820   8.148  19.443  0.00  0.00    +0.000 A 
ATOM     11  C   UNL     1       1.221   9.286  18.868  0.00  0.00    +0.000 A 
ATOM     12  C   UNL     1       0.366  10.126  19.597  0.00  0.00    +0.000 A 
BRANCH   7  14
ATOM     13  C   UNL     1      -0.776  10.200  23.089  0.00  0.00    +0.000 C 
ATOM     14  O   UNL     1      -0.759  10.579  21.715  0.00  0.00    +0.000 OA
ENDBRANCH   7  14
ENDBRANCH   1  10
BRANCH   4  15
ATOM     15  C   UNL     1       5.369   4.834  16.218  0.00  0.00    +0.000 C 
ATOM     16  F   UNL     1       5.337   3.518  16.588  0.00  0.00    +0.000 F 
ATOM     17  F   UNL     1       5.058   4.856  14.891  0.00  0.00    +0.000 F 
BRANCH  15  18
ATOM     18  P   UNL     1       7.145   5.131  16.205  0.00  0.00    +0.000 P 
ATOM     19  O   UNL     1       8.033   4.190  16.965  0.00  0.00    +0.000 OA
BRANCH  18  20
ATOM     20  O   UNL     1       7.607   5.157  14.660  0.00  0.00    +0.000 OA
ATOM     21  H   UNL     1       8.139   4.367  14.445  0.00  0.00    +0.000 HD
ENDBRANCH  18  20
BRANCH  18  22
ATOM     22  O   UNL     1       7.473   6.651  16.630  0.00  0.00    +0.000 OA
ATOM     23  H   UNL     1       7.269   6.817  17.568  0.00  0.00    +0.000 HD
ENDBRANCH  18  22
ENDBRANCH  15  18
ENDBRANCH   4  15
TORSDOF 6
ENDMDL
MODEL 8
REMARK VINA RESULT:      -7.5      4.106      8.205
REMARK  Name = 
REMARK  7 active torsions:
REMARK  status: ('A' for Active; 'I' for Inactive)
REMARK    1  A    between atoms: C_1  and  O_2
REMARK    2  A    between atoms: O_2  and  C_3
REMARK    3  A    between atoms: C_6  and  C_7
REMARK    4  A    between atoms: C_10  and  C_11
REMARK    5  A    between atoms: C_11  and  P_14
REMARK    6  A    between atoms: P_14  and  O_16
REMARK    7  A    between atoms: P_14  and  O_17
REMARK                            x       y       z     vdW  Elec       q    Type
REMARK                         _______ _______ _______ _____ _____    ______ ____
ROOT
ATOM      1  C   UNL     1       2.736   7.275  18.468  0.00  0.00    +0.000 A 
ATOM      2  C   UNL     1       3.548   7.815  17.456  0.00  0.00    +0.000 A 
ATOM      3  C   UNL     1       4.387   7.006  16.685  0.00  0.00    +0.000 A 
ATOM      4  C   UNL     1       4.452   5.625  16.911  0.00  0.00    +0.000 A 
ATOM      5  C   UNL     1       3.651   5.071  17.908  0.00  0.00    +0.000 A 
ATOM      6  C   UNL     1       2.803   5.884  18.663  0.00  0.00    +0.000 A 
ENDROOT
BRANCH   1  10
ATOM      7  C   UNL     1       0.163   9.679  20.989  0.00  0.00    +0.000 A 
ATOM      8  C   UNL     1       0.461  10.096  19.691  0.00  0.00    +0.000 A 
ATOM      9  C   UNL     1       1.289   9.321  18.862  0.00  0.00    +0.000 A 
ATOM     10  C   UNL     1       1.869   8.126  19.325  0.00  0.00    +0.000 A 
ATOM     11  C   UNL     1       1.591   7.761  20.657  0.00  0.00    +0.000 A 
ATOM     12  C   UNL     1       0.743   8.521  21.475  0.00  0.00    +0.000 A 
BRANCH   7  14
ATOM     13  C   UNL     1      -0.744  10.218  23.098  0.00  0.00    +0.000 C 
ATOM     14  O   UNL     1      -0.665  10.502  21.703  0.00  0.00    +0.000 OA
ENDBRANCH   7  14
ENDBRANCH   1  10
BRANCH   4  15
ATOM     15  C   UNL     1       5.391   4.769  16.115  0.00  0.00    +0.000 C 
ATOM     16  F   UNL     1       5.373   3.459  16.507  0.00  0.00    +0.000 F 
ATOM     17  F   UNL     1       5.144   4.759  14.774  0.00  0.00    +0.000 F 
BRANCH  15  18
ATOM     18  P   UNL     1       7.158   5.110  16.180  0.00  0.00    +0.000 P 
ATOM     19  O   UNL     1       8.039   4.174  16.955  0.00  0.00    +0.000 OA
BRANCH  18  20
ATOM     20  O   UNL     1       7.681   5.182  14.656  0.00  0.00    +0.000 OA
ATOM     21  H   UNL     1       7.075   5.715  14.107  0.00  0.00    +0.000 HD
ENDBRANCH  18  20
BRANCH  18  22
ATOM     22  O   UNL     1       7.429   6.627  16.651  0.00  0.00    +0.000 OA
ATOM     23  H   UNL     1       7.808   6.666  17.548  0.00  0.00    +0.000 HD
ENDBRANCH  18  22
ENDBRANCH  15  18
ENDBRANCH   4  15
TORSDOF 6
ENDMDL
MODEL 9
REMARK VINA RESULT:      -7.5      1.130      2.150
REMARK  Name = 
REMARK  7 active torsions:
REMARK  status: ('A' for Active; 'I' for Inactive)
REMARK    1  A    between atoms: C_1  and  O_2
REMARK    2  A    between atoms: O_2  and  C_3
REMARK    3  A    between atoms: C_6  and  C_7
REMARK    4  A    between atoms: C_10  and  C_11
REMARK    5  A    between atoms: C_11  and  P_14
REMARK    6  A    between atoms: P_14  and  O_16
REMARK    7  A    between atoms: P_14  and  O_17
REMARK                            x       y       z     vdW  Elec       q    Type
REMARK                         _______ _______ _______ _____ _____    ______ ____
ROOT
ATOM      1  C   UNL     1       2.965   6.713  18.482  0.00  0.00    +0.000 A 
ATOM      2  C   UNL     1       2.480   7.987  18.142  0.00  0.00    +0.000 A 
ATOM      3  C   UNL     1       1.589   8.673  18.972  0.00  0.00    +0.000 A 
ATOM      4  C   UNL     1       1.142   8.099  20.169  0.00  0.00    +0.000 A 
ATOM      5  C   UNL     1       1.616   6.837  20.525  0.00  0.00    +0.000 A 
ATOM      6  C   UNL     1       2.519   6.165  19.698  0.00  0.00    +0.000 A 
ENDROOT
BRANCH   1  10
ATOM      7  C   UNL     1       5.610   4.549  15.820  0.00  0.00    +0.000 A 
ATOM      8  C   UNL     1       4.731   3.854  16.652  0.00  0.00    +0.000 A 
ATOM      9  C   UNL     1       3.864   4.547  17.515  0.00  0.00    +0.000 A 
ATOM     10  C   UNL     1       3.880   5.951  17.591  0.00  0.00    +0.000 A 
ATOM     11  C   UNL     1       4.815   6.619  16.777  0.00  0.00    +0.000 A 
ATOM     12  C   UNL     1       5.662   5.929  15.897  0.00  0.00    +0.000 A 
BRANCH   7  14
ATOM     13  C   UNL     1       6.099   3.860  13.619  0.00  0.00    +0.000 C 
ATOM     14  O   UNL     1       6.397   3.778  15.010  0.00  0.00    +0.000 OA
ENDBRANCH   7  14
ENDBRANCH   1  10
BRANCH   4  15
ATOM     15  C   UNL     1       0.148   8.818  21.031  0.00  0.00    +0.000 C 
ATOM     16  F   UNL     1      -0.661   9.656  20.317  0.00  0.00    +0.000 F 
ATOM     17  F   UNL     1      -0.689   7.998  21.729  0.00  0.00    +0.000 F 
BRANCH  15  18
ATOM     18  P   UNL     1       0.744   9.939  22.307  0.00  0.00    +0.000 P 
ATOM     19  O   UNL     1      -0.135  10.205  23.494  0.00  0.00    +0.000 OA
BRANCH  18  20
ATOM     20  O   UNL     1       2.158   9.359  22.822  0.00  0.00    +0.000 OA
ATOM     21  H   UNL     1       2.809   9.339  22.095  0.00  0.00    +0.000 HD
ENDBRANCH  18  20
BRANCH  18  22
ATOM     22  O   UNL     1       1.223  11.336  21.662  0.00  0.00    +0.000 OA
ATOM     23  H   UNL     1       1.335  11.269  20.696  0.00  0.00    +0.000 HD
ENDBRANCH  18  22
ENDBRANCH  15  18
ENDBRANCH   4  15
TORSDOF 6
ENDMDL
