MODEL 1
REMARK VINA RESULT:      -7.1      0.000      0.000
REMARK  Name = 
REMARK  7 active torsions:
REMARK  status: ('A' for Active; 'I' for Inactive)
REMARK    1  A    between atoms: C_1  and  C_2
REMARK    2  A    between atoms: C_2  and  C_3
REMARK    3  A    between atoms: C_3  and  C_4
REMARK    4  A    between atoms: C_4  and  C_5
REMARK    5  A    between atoms: C_5  and  C_6
REMARK    6  A    between atoms: C_6  and  O_7
REMARK    7  A    between atoms: O_7  and  C_8
REMARK                            x       y       z     vdW  Elec       q    Type
REMARK                         _______ _______ _______ _____ _____    ______ ____
ROOT
ATOM      1  C   UNL     1       4.184   3.900  17.273  0.00  0.00    +0.000 A 
ATOM      2  C   UNL     1       4.538   4.159  18.549  0.00  0.00    +0.000 A 
ATOM      3  C   UNL     1       5.798   4.709  18.862  0.00  0.00    +0.000 A 
ATOM      4  N   UNL     1       6.334   5.058  20.013  0.00  0.00    +0.000 NA
ATOM      5  N   UNL     1       7.593   5.551  19.757  0.00  0.00    +0.000 NA
ATOM      6  C   UNL     1       7.790   5.486  18.460  0.00  0.00    +0.000 A 
ATOM      7  N   UNL     1       6.692   4.956  17.845  0.00  0.00    +0.000 N 
ATOM      8  C   UNL     1       6.431   4.701  16.488  0.00  0.00    +0.000 A 
ATOM      9  C   UNL     1       7.390   4.950  15.500  0.00  0.00    +0.000 A 
ATOM     10  C   UNL     1       7.068   4.703  14.167  0.00  0.00    +0.000 A 
ATOM     11  C   UNL     1       5.800   4.229  13.830  0.00  0.00    +0.000 A 
ATOM     12  C   UNL     1       4.849   3.972  14.825  0.00  0.00    +0.000 A 
ATOM     13  C   UNL     1       5.152   4.191  16.176  0.00  0.00    +0.000 A 
ENDROOT
BRANCH   1  14
ATOM     14  O   UNL     1       2.973   3.358  16.872  0.00  0.00    +0.000 OA
BRANCH  14  15
ATOM     15  C   UNL     1       2.523   2.222  17.618  0.00  0.00    +0.000 C 
BRANCH  15  16
ATOM     16  C   UNL     1       1.334   2.600  18.494  0.00  0.00    +0.000 C 
BRANCH  16  17
ATOM     17  C   UNL     1       1.628   2.268  19.959  0.00  0.00    +0.000 C 
BRANCH  17  18
ATOM     18  C   UNL     1       1.118   3.362  20.892  0.00  0.00    +0.000 C 
BRANCH  18  20
ATOM     19  C   UNL     1       1.780   5.759  20.528  0.00  0.00    +0.000 C 
ATOM     20  C   UNL     1       2.184   4.428  21.141  0.00  0.00    +0.000 C 
ENDBRANCH  18  20
ENDBRANCH  17  18
ENDBRANCH  16  17
ENDBRANCH  15  16
ENDBRANCH  14  15
ENDBRANCH   1  14
TORSDOF 6
ENDMDL
MODEL 2
REMARK VINA RESULT:      -7.0      2.502      3.138
REMARK  Name = 
REMARK  7 active torsions:
REMARK  status: ('A' for Active; 'I' for Inactive)
REMARK    1  A    between atoms: C_1  and  C_2
REMARK    2  A    between atoms: C_2  and  C_3
REMARK    3  A    between atoms: C_3  and  C_4
REMARK    4  A    between atoms: C_4  and  C_5
REMARK    5  A    between atoms: C_5  and  C_6
REMARK    6  A    between atoms: C_6  and  O_7
REMARK    7  A    between atoms: O_7  and  C_8
REMARK                            x       y       z     vdW  Elec       q    Type
REMARK                         _______ _______ _______ _____ _____    ______ ____
ROOT
ATOM      1  C   UNL     1       4.646   4.474  19.071  0.00  0.00    +0.000 A 
ATOM      2  C   UNL     1       3.764   5.216  19.776  0.00  0.00    +0.000 A 
ATOM      3  C   UNL     1       3.200   6.391  19.237  0.00  0.00    +0.000 A 
ATOM      4  N   UNL     1       2.321   7.239  19.728  0.00  0.00    +0.000 NA
ATOM      5  N   UNL     1       2.107   8.216  18.784  0.00  0.00    +0.000 NA
ATOM      6  C   UNL     1       2.864   7.939  17.746  0.00  0.00    +0.000 A 
ATOM      7  N   UNL     1       3.582   6.800  17.979  0.00  0.00    +0.000 N 
ATOM      8  C   UNL     1       4.507   6.114  17.174  0.00  0.00    +0.000 A 
ATOM      9  C   UNL     1       4.874   6.594  15.912  0.00  0.00    +0.000 A 
ATOM     10  C   UNL     1       5.776   5.859  15.145  0.00  0.00    +0.000 A 
ATOM     11  C   UNL     1       6.289   4.656  15.630  0.00  0.00    +0.000 A 
ATOM     12  C   UNL     1       5.925   4.187  16.899  0.00  0.00    +0.000 A 
ATOM     13  C   UNL     1       5.036   4.916  17.701  0.00  0.00    +0.000 A 
ENDROOT
BRANCH   1  14
ATOM     14  O   UNL     1       5.252   3.312  19.519  0.00  0.00    +0.000 OA
BRANCH  14  15
ATOM     15  C   UNL     1       4.366   2.239  19.857  0.00  0.00    +0.000 C 
BRANCH  15  16
ATOM     16  C   UNL     1       3.548   1.823  18.641  0.00  0.00    +0.000 C 
BRANCH  16  17
ATOM     17  C   UNL     1       2.069   1.699  19.014  0.00  0.00    +0.000 C 
BRANCH  17  18
ATOM     18  C   UNL     1       1.318   3.003  18.761  0.00  0.00    +0.000 C 
BRANCH  18  20
ATOM     19  C   UNL     1       1.249   2.911  21.272  0.00  0.00    +0.000 C 
ATOM     20  C   UNL     1       0.610   3.496  20.022  0.00  0.00    +0.000 C 
ENDBRANCH  18  20
ENDBRANCH  17  18
ENDBRANCH  16  17
ENDBRANCH  15  16
ENDBRANCH  14  15
ENDBRANCH   1  14
TORSDOF 6
ENDMDL
MODEL 3
REMARK VINA RESULT:      -7.0      2.284      5.568
REMARK  Name = 
REMARK  7 active torsions:
REMARK  status: ('A' for Active; 'I' for Inactive)
REMARK    1  A    between atoms: C_1  and  C_2
REMARK    2  A    between atoms: C_2  and  C_3
REMARK    3  A    between atoms: C_3  and  C_4
REMARK    4  A    between atoms: C_4  and  C_5
REMARK    5  A    between atoms: C_5  and  C_6
REMARK    6  A    between atoms: C_6  and  O_7
REMARK    7  A    between atoms: O_7  and  C_8
REMARK                            x       y       z     vdW  Elec       q    Type
REMARK                         _______ _______ _______ _____ _____    ______ ____
ROOT
ATOM      1  C   UNL     1       3.889   4.745  17.952  0.00  0.00    +0.000 A 
ATOM      2  C   UNL     1       4.003   3.575  18.617  0.00  0.00    +0.000 A 
ATOM      3  C   UNL     1       3.409   3.391  19.883  0.00  0.00    +0.000 A 
ATOM      4  N   UNL     1       3.375   2.346  20.684  0.00  0.00    +0.000 NA
ATOM      5  N   UNL     1       2.652   2.699  21.801  0.00  0.00    +0.000 NA
ATOM      6  C   UNL     1       2.270   3.947  21.651  0.00  0.00    +0.000 A 
ATOM      7  N   UNL     1       2.726   4.437  20.460  0.00  0.00    +0.000 N 
ATOM      8  C   UNL     1       2.568   5.699  19.863  0.00  0.00    +0.000 A 
ATOM      9  C   UNL     1       1.883   6.733  20.511  0.00  0.00    +0.000 A 
ATOM     10  C   UNL     1       1.734   7.957  19.862  0.00  0.00    +0.000 A 
ATOM     11  C   UNL     1       2.251   8.136  18.579  0.00  0.00    +0.000 A 
ATOM     12  C   UNL     1       2.944   7.099  17.941  0.00  0.00    +0.000 A 
ATOM     13  C   UNL     1       3.128   5.865  18.578  0.00  0.00    +0.000 A 
ENDROOT
BRANCH   1  14
ATOM     14  O   UNL     1       4.440   5.017  16.711  0.00  0.00    +0.000 OA
BRANCH  14  15
ATOM     15  C   UNL     1       5.142   3.934  16.091  0.00  0.00    +0.000 C 
BRANCH  15  16
ATOM     16  C   UNL     1       6.532   4.382  15.658  0.00  0.00    +0.000 C 
BRANCH  16  17
ATOM     17  C   UNL     1       7.345   4.838  16.872  0.00  0.00    +0.000 C 
BRANCH  17  18
ATOM     18  C   UNL     1       7.324   6.357  17.019  0.00  0.00    +0.000 C 
BRANCH  18  20
ATOM     19  C   UNL     1       7.634   5.689  19.422  0.00  0.00    +0.000 C 
ATOM     20  C   UNL     1       7.822   6.795  18.396  0.00  0.00    +0.000 C 
ENDBRANCH  18  20
ENDBRANCH  17  18
ENDBRANCH  16  17
ENDBRANCH  15  16
ENDBRANCH  14  15
ENDBRANCH   1  14
TORSDOF 6
ENDMDL
MODEL 4
REMARK VINA RESULT:      -7.0      2.563      6.031
REMARK  Name = 
REMARK  7 active torsions:
REMARK  status: ('A' for Active; 'I' for Inactive)
REMARK    1  A    between atoms: C_1  and  C_2
REMARK    2  A    between atoms: C_2  and  C_3
REMARK    3  A    between atoms: C_3  and  C_4
REMARK    4  A    between atoms: C_4  and  C_5
REMARK    5  A    between atoms: C_5  and  C_6
REMARK    6  A    between atoms: C_6  and  O_7
REMARK    7  A    between atoms: O_7  and  C_8
REMARK                            x       y       z     vdW  Elec       q    Type
REMARK                         _______ _______ _______ _____ _____    ______ ____
ROOT
ATOM      1  C   UNL     1       4.875   4.425  18.191  0.00  0.00    +0.000 A 
ATOM      2  C   UNL     1       4.662   3.385  19.024  0.00  0.00    +0.000 A 
ATOM      3  C   UNL     1       3.625   3.413  19.980  0.00  0.00    +0.000 A 
ATOM      4  N   UNL     1       3.230   2.518  20.862  0.00  0.00    +0.000 NA
ATOM      5  N   UNL     1       2.163   3.049  21.549  0.00  0.00    +0.000 NA
ATOM      6  C   UNL     1       1.940   4.252  21.070  0.00  0.00    +0.000 A 
ATOM      7  N   UNL     1       2.838   4.537  20.081  0.00  0.00    +0.000 N 
ATOM      8  C   UNL     1       2.991   5.681  19.278  0.00  0.00    +0.000 A 
ATOM      9  C   UNL     1       2.175   6.804  19.445  0.00  0.00    +0.000 A 
ATOM     10  C   UNL     1       2.354   7.901  18.603  0.00  0.00    +0.000 A 
ATOM     11  C   UNL     1       3.325   7.864  17.603  0.00  0.00    +0.000 A 
ATOM     12  C   UNL     1       4.145   6.739  17.449  0.00  0.00    +0.000 A 
ATOM     13  C   UNL     1       4.003   5.630  18.294  0.00  0.00    +0.000 A 
ENDROOT
BRANCH   1  14
ATOM     14  O   UNL     1       5.868   4.488  17.226  0.00  0.00    +0.000 OA
BRANCH  14  15
ATOM     15  C   UNL     1       5.636   3.715  16.043  0.00  0.00    +0.000 C 
BRANCH  15  16
ATOM     16  C   UNL     1       6.058   4.498  14.807  0.00  0.00    +0.000 C 
BRANCH  16  17
ATOM     17  C   UNL     1       5.271   4.023  13.583  0.00  0.00    +0.000 C 
BRANCH  17  18
ATOM     18  C   UNL     1       6.194   3.438  12.518  0.00  0.00    +0.000 C 
BRANCH  18  20
ATOM     19  C   UNL     1       4.125   3.244  11.104  0.00  0.00    +0.000 C 
ATOM     20  C   UNL     1       5.423   2.572  11.522  0.00  0.00    +0.000 C 
ENDBRANCH  18  20
ENDBRANCH  17  18
ENDBRANCH  16  17
ENDBRANCH  15  16
ENDBRANCH  14  15
ENDBRANCH   1  14
TORSDOF 6
ENDMDL
MODEL 5
REMARK VINA RESULT:      -6.9      2.811      6.221
REMARK  Name = 
REMARK  7 active torsions:
REMARK  status: ('A' for Active; 'I' for Inactive)
REMARK    1  A    between atoms: C_1  and  C_2
REMARK    2  A    between atoms: C_2  and  C_3
REMARK    3  A    between atoms: C_3  and  C_4
REMARK    4  A    between atoms: C_4  and  C_5
REMARK    5  A    between atoms: C_5  and  C_6
REMARK    6  A    between atoms: C_6  and  O_7
REMARK    7  A    between atoms: O_7  and  C_8
REMARK                            x       y       z     vdW  Elec       q    Type
REMARK                         _______ _______ _______ _____ _____    ______ ____
ROOT
ATOM      1  C   UNL     1       4.772   4.707  16.636  0.00  0.00    +0.000 A 
ATOM      2  C   UNL     1       4.595   3.393  16.892  0.00  0.00    +0.000 A 
ATOM      3  C   UNL     1       3.625   2.951  17.815  0.00  0.00    +0.000 A 
ATOM      4  N   UNL     1       3.272   1.740  18.194  0.00  0.00    +0.000 NA
ATOM      5  N   UNL     1       2.263   1.868  19.120  0.00  0.00    +0.000 NA
ATOM      6  C   UNL     1       2.031   3.151  19.282  0.00  0.00    +0.000 A 
ATOM      7  N   UNL     1       2.867   3.883  18.488  0.00  0.00    +0.000 N 
ATOM      8  C   UNL     1       2.988   5.272  18.312  0.00  0.00    +0.000 A 
ATOM      9  C   UNL     1       2.206   6.172  19.044  0.00  0.00    +0.000 A 
ATOM     10  C   UNL     1       2.349   7.538  18.810  0.00  0.00    +0.000 A 
ATOM     11  C   UNL     1       3.251   7.992  17.848  0.00  0.00    +0.000 A 
ATOM     12  C   UNL     1       4.038   7.086  17.126  0.00  0.00    +0.000 A 
ATOM     13  C   UNL     1       3.931   5.708  17.355  0.00  0.00    +0.000 A 
ENDROOT
BRANCH   1  14
ATOM     14  O   UNL     1       5.700   5.233  15.752  0.00  0.00    +0.000 OA
BRANCH  14  15
ATOM     15  C   UNL     1       6.592   4.287  15.151  0.00  0.00    +0.000 C 
BRANCH  15  16
ATOM     16  C   UNL     1       6.804   4.619  13.680  0.00  0.00    +0.000 C 
BRANCH  16  17
ATOM     17  C   UNL     1       6.260   3.492  12.798  0.00  0.00    +0.000 C 
BRANCH  17  18
ATOM     18  C   UNL     1       4.812   3.749  12.394  0.00  0.00    +0.000 C 
BRANCH  18  20
ATOM     19  C   UNL     1       3.302   3.592  10.390  0.00  0.00    +0.000 C 
ATOM     20  C   UNL     1       4.412   2.914  11.178  0.00  0.00    +0.000 C 
ENDBRANCH  18  20
ENDBRANCH  17  18
ENDBRANCH  16  17
ENDBRANCH  15  16
ENDBRANCH  14  15
ENDBRANCH   1  14
TORSDOF 6
ENDMDL
MODEL 6
REMARK VINA RESULT:      -6.9      2.469      6.207
REMARK  Name = 
REMARK  7 active torsions:
REMARK  status: ('A' for Active; 'I' for Inactive)
REMARK    1  A    between atoms: C_1  and  C_2
REMARK    2  A    between atoms: C_2  and  C_3
REMARK    3  A    between atoms: C_3  and  C_4
REMARK    4  A    between atoms: C_4  and  C_5
REMARK    5  A    between atoms: C_5  and  C_6
REMARK    6  A    between atoms: C_6  and  O_7
REMARK    7  A    between atoms: O_7  and  C_8
REMARK                            x       y       z     vdW  Elec       q    Type
REMARK                         _______ _______ _______ _____ _____    ______ ____
ROOT
ATOM      1  C   UNL     1       4.163   5.150  17.652  0.00  0.00    +0.000 A 
ATOM      2  C   UNL     1       4.226   3.966  18.297  0.00  0.00    +0.000 A 
ATOM      3  C   UNL     1       3.521   3.748  19.498  0.00  0.00    +0.000 A 
ATOM      4  N   UNL     1       3.422   2.684  20.269  0.00  0.00    +0.000 NA
ATOM      5  N   UNL     1       2.598   3.005  21.323  0.00  0.00    +0.000 NA
ATOM      6  C   UNL     1       2.221   4.254  21.168  0.00  0.00    +0.000 A 
ATOM      7  N   UNL     1       2.779   4.775  20.036  0.00  0.00    +0.000 N 
ATOM      8  C   UNL     1       2.666   6.051  19.457  0.00  0.00    +0.000 A 
ATOM      9  C   UNL     1       1.917   7.064  20.064  0.00  0.00    +0.000 A 
ATOM     10  C   UNL     1       1.817   8.303  19.432  0.00  0.00    +0.000 A 
ATOM     11  C   UNL     1       2.447   8.516  18.207  0.00  0.00    +0.000 A 
ATOM     12  C   UNL     1       3.205   7.499  17.610  0.00  0.00    +0.000 A 
ATOM     13  C   UNL     1       3.340   6.251  18.232  0.00  0.00    +0.000 A 
ENDROOT
BRANCH   1  14
ATOM     14  O   UNL     1       4.823   5.456  16.473  0.00  0.00    +0.000 OA
BRANCH  14  15
ATOM     15  C   UNL     1       6.242   5.267  16.487  0.00  0.00    +0.000 C 
BRANCH  15  16
ATOM     16  C   UNL     1       6.649   4.224  15.454  0.00  0.00    +0.000 C 
BRANCH  16  17
ATOM     17  C   UNL     1       5.654   4.214  14.291  0.00  0.00    +0.000 C 
BRANCH  17  18
ATOM     18  C   UNL     1       6.324   3.787  12.988  0.00  0.00    +0.000 C 
BRANCH  18  20
ATOM     19  C   UNL     1       5.729   1.881  11.461  0.00  0.00    +0.000 C 
ATOM     20  C   UNL     1       5.306   3.243  11.986  0.00  0.00    +0.000 C 
ENDBRANCH  18  20
ENDBRANCH  17  18
ENDBRANCH  16  17
ENDBRANCH  15  16
ENDBRANCH  14  15
ENDBRANCH   1  14
TORSDOF 6
ENDMDL
MODEL 7
REMARK VINA RESULT:      -6.9      2.437      5.792
REMARK  Name = 
REMARK  7 active torsions:
REMARK  status: ('A' for Active; 'I' for Inactive)
REMARK    1  A    between atoms: C_1  and  C_2
REMARK    2  A    between atoms: C_2  and  C_3
REMARK    3  A    between atoms: C_3  and  C_4
REMARK    4  A    between atoms: C_4  and  C_5
REMARK    5  A    between atoms: C_5  and  C_6
REMARK    6  A    between atoms: C_6  and  O_7
REMARK    7  A    between atoms: O_7  and  C_8
REMARK                            x       y       z     vdW  Elec       q    Type
REMARK                         _______ _______ _______ _____ _____    ______ ____
ROOT
ATOM      1  C   UNL     1       4.044   4.846  17.925  0.00  0.00    +0.000 A 
ATOM      2  C   UNL     1       3.821   6.112  17.512  0.00  0.00    +0.000 A 
ATOM      3  C   UNL     1       3.017   6.996  18.261  0.00  0.00    +0.000 A 
ATOM      4  N   UNL     1       2.691   8.256  18.062  0.00  0.00    +0.000 NA
ATOM      5  N   UNL     1       1.883   8.649  19.104  0.00  0.00    +0.000 NA
ATOM      6  C   UNL     1       1.736   7.619  19.906  0.00  0.00    +0.000 A 
ATOM      7  N   UNL     1       2.425   6.545  19.419  0.00  0.00    +0.000 N 
ATOM      8  C   UNL     1       2.574   5.241  19.923  0.00  0.00    +0.000 A 
ATOM      9  C   UNL     1       1.926   4.833  21.094  0.00  0.00    +0.000 A 
ATOM     10  C   UNL     1       2.130   3.537  21.563  0.00  0.00    +0.000 A 
ATOM     11  C   UNL     1       2.980   2.670  20.877  0.00  0.00    +0.000 A 
ATOM     12  C   UNL     1       3.618   3.083  19.699  0.00  0.00    +0.000 A 
ATOM     13  C   UNL     1       3.415   4.374  19.193  0.00  0.00    +0.000 A 
ENDROOT
BRANCH   1  14
ATOM     14  O   UNL     1       4.814   3.909  17.256  0.00  0.00    +0.000 OA
BRANCH  14  15
ATOM     15  C   UNL     1       5.098   4.204  15.883  0.00  0.00    +0.000 C 
BRANCH  15  16
ATOM     16  C   UNL     1       6.600   4.159  15.631  0.00  0.00    +0.000 C 
BRANCH  16  17
ATOM     17  C   UNL     1       7.357   4.709  16.842  0.00  0.00    +0.000 C 
BRANCH  17  18
ATOM     18  C   UNL     1       7.355   6.234  16.856  0.00  0.00    +0.000 C 
BRANCH  18  20
ATOM     19  C   UNL     1       7.611   5.696  19.298  0.00  0.00    +0.000 C 
ATOM     20  C   UNL     1       7.705   6.783  18.239  0.00  0.00    +0.000 C 
ENDBRANCH  18  20
ENDBRANCH  17  18
ENDBRANCH  16  17
ENDBRANCH  15  16
ENDBRANCH  14  15
ENDBRANCH   1  14
TORSDOF 6
ENDMDL
MODEL 8
REMARK VINA RESULT:      -6.8      2.562      3.313
REMARK  Name = 
REMARK  7 active torsions:
REMARK  status: ('A' for Active; 'I' for Inactive)
REMARK    1  A    between atoms: C_1  and  C_2
REMARK    2  A    between atoms: C_2  and  C_3
REMARK    3  A    between atoms: C_3  and  C_4
REMARK    4  A    between atoms: C_4  and  C_5
REMARK    5  A    between atoms: C_5  and  C_6
REMARK    6  A    between atoms: C_6  and  O_7
REMARK    7  A    between atoms: O_7  and  C_8
REMARK                            x       y       z     vdW  Elec       q    Type
REMARK                         _______ _______ _______ _____ _____    ______ ____
ROOT
ATOM      1  C   UNL     1       4.505   4.501  19.156  0.00  0.00    +0.000 A 
ATOM      2  C   UNL     1       3.635   5.256  19.861  0.00  0.00    +0.000 A 
ATOM      3  C   UNL     1       3.101   6.447  19.327  0.00  0.00    +0.000 A 
ATOM      4  N   UNL     1       2.236   7.310  19.819  0.00  0.00    +0.000 NA
ATOM      5  N   UNL     1       2.052   8.299  18.882  0.00  0.00    +0.000 NA
ATOM      6  C   UNL     1       2.810   8.015  17.847  0.00  0.00    +0.000 A 
ATOM      7  N   UNL     1       3.501   6.859  18.076  0.00  0.00    +0.000 N 
ATOM      8  C   UNL     1       4.417   6.159  17.272  0.00  0.00    +0.000 A 
ATOM      9  C   UNL     1       4.804   6.641  16.018  0.00  0.00    +0.000 A 
ATOM     10  C   UNL     1       5.696   5.893  15.251  0.00  0.00    +0.000 A 
ATOM     11  C   UNL     1       6.179   4.676  15.730  0.00  0.00    +0.000 A 
ATOM     12  C   UNL     1       5.794   4.204  16.991  0.00  0.00    +0.000 A 
ATOM     13  C   UNL     1       4.916   4.945  17.793  0.00  0.00    +0.000 A 
ENDROOT
BRANCH   1  14
ATOM     14  O   UNL     1       5.083   3.321  19.599  0.00  0.00    +0.000 OA
BRANCH  14  15
ATOM     15  C   UNL     1       4.170   2.269  19.931  0.00  0.00    +0.000 C 
BRANCH  15  16
ATOM     16  C   UNL     1       3.911   1.389  18.715  0.00  0.00    +0.000 C 
BRANCH  16  17
ATOM     17  C   UNL     1       2.722   1.927  17.915  0.00  0.00    +0.000 C 
BRANCH  17  18
ATOM     18  C   UNL     1       1.473   2.048  18.783  0.00  0.00    +0.000 C 
BRANCH  18  20
ATOM     19  C   UNL     1       1.229   4.139  17.411  0.00  0.00    +0.000 C 
ATOM     20  C   UNL     1       0.883   3.456  18.724  0.00  0.00    +0.000 C 
ENDBRANCH  18  20
ENDBRANCH  17  18
ENDBRANCH  16  17
ENDBRANCH  15  16
ENDBRANCH  14  15
ENDBRANCH   1  14
TORSDOF 6
ENDMDL
MODEL 9
REMARK VINA RESULT:      -6.8      2.439      6.036
REMARK  Name = 
REMARK  7 active torsions:
REMARK  status: ('A' for Active; 'I' for Inactive)
REMARK    1  A    between atoms: C_1  and  C_2
REMARK    2  A    between atoms: C_2  and  C_3
REMARK    3  A    between atoms: C_3  and  C_4
REMARK    4  A    between atoms: C_4  and  C_5
REMARK    5  A    between atoms: C_5  and  C_6
REMARK    6  A    between atoms: C_6  and  O_7
REMARK    7  A    between atoms: O_7  and  C_8
REMARK                            x       y       z     vdW  Elec       q    Type
REMARK                         _______ _______ _______ _____ _____    ______ ____
ROOT
ATOM      1  C   UNL     1       3.871   5.760  17.390  0.00  0.00    +0.000 A 
ATOM      2  C   UNL     1       3.449   6.887  18.002  0.00  0.00    +0.000 A 
ATOM      3  C   UNL     1       2.623   6.835  19.144  0.00  0.00    +0.000 A 
ATOM      4  N   UNL     1       2.123   7.790  19.901  0.00  0.00    +0.000 NA
ATOM      5  N   UNL     1       1.386   7.193  20.897  0.00  0.00    +0.000 NA
ATOM      6  C   UNL     1       1.455   5.893  20.719  0.00  0.00    +0.000 A 
ATOM      7  N   UNL     1       2.218   5.609  19.622  0.00  0.00    +0.000 N 
ATOM      8  C   UNL     1       2.581   4.380  19.046  0.00  0.00    +0.000 A 
ATOM      9  C   UNL     1       2.116   3.166  19.563  0.00  0.00    +0.000 A 
ATOM     10  C   UNL     1       2.529   1.976  18.968  0.00  0.00    +0.000 A 
ATOM     11  C   UNL     1       3.404   2.003  17.883  0.00  0.00    +0.000 A 
ATOM     12  C   UNL     1       3.858   3.223  17.364  0.00  0.00    +0.000 A 
ATOM     13  C   UNL     1       3.442   4.436  17.929  0.00  0.00    +0.000 A 
ENDROOT
BRANCH   1  14
ATOM     14  O   UNL     1       4.678   5.713  16.265  0.00  0.00    +0.000 OA
BRANCH  14  15
ATOM     15  C   UNL     1       6.055   6.045  16.473  0.00  0.00    +0.000 C 
BRANCH  15  16
ATOM     16  C   UNL     1       6.948   4.876  16.076  0.00  0.00    +0.000 C 
BRANCH  16  17
ATOM     17  C   UNL     1       7.061   4.788  14.553  0.00  0.00    +0.000 C 
BRANCH  17  18
ATOM     18  C   UNL     1       6.106   3.745  13.981  0.00  0.00    +0.000 C 
BRANCH  18  20
ATOM     19  C   UNL     1       4.993   3.157  11.806  0.00  0.00    +0.000 C 
ATOM     20  C   UNL     1       6.291   3.580  12.473  0.00  0.00    +0.000 C 
ENDBRANCH  18  20
ENDBRANCH  17  18
ENDBRANCH  16  17
ENDBRANCH  15  16
ENDBRANCH  14  15
ENDBRANCH   1  14
TORSDOF 6
ENDMDL
