MODEL 1
REMARK VINA RESULT:      -8.3      0.000      0.000
REMARK  Name = 
REMARK  9 active torsions:
REMARK  status: ('A' for Active; 'I' for Inactive)
REMARK    1  A    between atoms: C_1  and  C_2
REMARK    2  A    between atoms: C_4  and  C_5
REMARK    3  A    between atoms: C_6  and  C_7
REMARK    4  A    between atoms: C_9  and  C_10
REMARK    5  A    between atoms: N_12  and  C_13
REMARK    6  A    between atoms: C_14  and  C_15
REMARK    7  A    between atoms: N_16  and  C_17
REMARK    8  A    between atoms: N_18  and  C_19
REMARK    9  A    between atoms: C_29  and  O_30
REMARK                            x       y       z     vdW  Elec       q    Type
REMARK                         _______ _______ _______ _____ _____    ______ ____
ROOT
ATOM      1  C   UNL     1       0.911  10.018  19.738  0.00  0.00    +0.000 C 
ATOM      2  O   UNL     1       1.395  11.081  19.339  0.00  0.00    +0.000 OA
ATOM      3  N   UNL     1      -0.253   9.928  20.476  0.00  0.00    +0.000 N 
ATOM      4  H   UNL     1      -0.332   9.074  21.023  0.00  0.00    +0.000 HD
ENDROOT
BRANCH   3   5
ATOM      5  C   UNL     1      -0.981  11.015  20.881  0.00  0.00    +0.000 A 
ATOM      6  C   UNL     1      -1.760  11.866  20.187  0.00  0.00    +0.000 A 
ATOM      7  C   UNL     1      -2.021  11.858  18.717  0.00  0.00    +0.000 C 
ATOM      8  N   UNL     1      -2.431  12.738  21.038  0.00  0.00    +0.000 N 
ATOM      9  C   UNL     1      -3.197  13.920  20.706  0.00  0.00    +0.000 C 
ATOM     10  N   UNL     1      -2.048  12.442  22.366  0.00  0.00    +0.000 N 
ATOM     11  C   UNL     1      -1.019  11.497  22.302  0.00  0.00    +0.000 A 
ATOM     12  O   UNL     1      -0.248  11.115  23.170  0.00  0.00    +0.000 OA
BRANCH  10  13
ATOM     13  C   UNL     1      -2.258  13.368  23.403  0.00  0.00    +0.000 A 
ATOM     14  C   UNL     1      -3.444  13.408  24.140  0.00  0.00    +0.000 A 
ATOM     15  C   UNL     1      -3.586  14.331  25.184  0.00  0.00    +0.000 A 
ATOM     16  C   UNL     1      -2.559  15.233  25.471  0.00  0.00    +0.000 A 
ATOM     17  C   UNL     1      -1.383  15.207  24.724  0.00  0.00    +0.000 A 
ATOM     18  C   UNL     1      -1.229  14.269  23.701  0.00  0.00    +0.000 A 
ENDBRANCH  10  13
ENDBRANCH   3   5
BRANCH   1  21
ATOM     19  C   UNL     1       2.774   7.055  18.561  0.00  0.00    +0.000 A 
ATOM     20  C   UNL     1       2.200   8.289  18.310  0.00  0.00    +0.000 A 
ATOM     21  C   UNL     1       1.599   8.732  19.519  0.00  0.00    +0.000 A 
ATOM     22  N   UNL     1       1.760   7.813  20.486  0.00  0.00    +0.000 NA
ATOM     23  N   UNL     1       2.490   6.850  19.893  0.00  0.00    +0.000 N 
ATOM     24  H   UNL     1       2.776   6.065  20.463  0.00  0.00    +0.000 HD
BRANCH  19  30
ATOM     25  C   UNL     1       6.059   3.351  15.455  0.00  0.00    +0.000 C 
ATOM     26  C   UNL     1       5.194   4.310  16.205  0.00  0.00    +0.000 A 
ATOM     27  C   UNL     1       3.941   3.918  16.706  0.00  0.00    +0.000 A 
ATOM     28  C   UNL     1       3.123   4.806  17.442  0.00  0.00    +0.000 A 
ATOM     29  C   UNL     1       1.772   4.277  17.859  0.00  0.00    +0.000 C 
ATOM     30  C   UNL     1       3.572   6.124  17.726  0.00  0.00    +0.000 A 
ATOM     31  C   UNL     1       4.820   6.505  17.174  0.00  0.00    +0.000 A 
ATOM     32  C   UNL     1       5.612   5.620  16.428  0.00  0.00    +0.000 A 
BRANCH  31  33
ATOM     33  O   UNL     1       5.384   7.745  17.324  0.00  0.00    +0.000 OA
ATOM     34  H   UNL     1       4.724   8.343  17.701  0.00  0.00    +0.000 HD
ENDBRANCH  31  33
ENDBRANCH  19  30
ENDBRANCH   1  21
TORSDOF 5
ENDMDL
MODEL 2
REMARK VINA RESULT:      -8.1      2.059     10.587
REMARK  Name = 
REMARK  9 active torsions:
REMARK  status: ('A' for Active; 'I' for Inactive)
REMARK    1  A    between atoms: C_1  and  C_2
REMARK    2  A    between atoms: C_4  and  C_5
REMARK    3  A    between atoms: C_6  and  C_7
REMARK    4  A    between atoms: C_9  and  C_10
REMARK    5  A    between atoms: N_12  and  C_13
REMARK    6  A    between atoms: C_14  and  C_15
REMARK    7  A    between atoms: N_16  and  C_17
REMARK    8  A    between atoms: N_18  and  C_19
REMARK    9  A    between atoms: C_29  and  O_30
REMARK                            x       y       z     vdW  Elec       q    Type
REMARK                         _______ _______ _______ _____ _____    ______ ____
ROOT
ATOM      1  C   UNL     1       1.410   9.131  18.499  0.00  0.00    +0.000 C 
ATOM      2  O   UNL     1       1.370   8.977  17.276  0.00  0.00    +0.000 OA
ATOM      3  N   UNL     1       2.014   8.244  19.370  0.00  0.00    +0.000 N 
ATOM      4  H   UNL     1       1.669   8.303  20.325  0.00  0.00    +0.000 HD
ENDROOT
BRANCH   3   5
ATOM      5  C   UNL     1       2.603   7.073  18.974  0.00  0.00    +0.000 A 
ATOM      6  C   UNL     1       2.413   5.805  19.385  0.00  0.00    +0.000 A 
ATOM      7  C   UNL     1       1.485   5.331  20.453  0.00  0.00    +0.000 C 
ATOM      8  N   UNL     1       3.126   4.910  18.594  0.00  0.00    +0.000 N 
ATOM      9  C   UNL     1       3.363   3.499  18.807  0.00  0.00    +0.000 C 
ATOM     10  N   UNL     1       3.834   5.650  17.619  0.00  0.00    +0.000 N 
ATOM     11  C   UNL     1       3.676   7.004  17.927  0.00  0.00    +0.000 A 
ATOM     12  O   UNL     1       4.272   7.983  17.500  0.00  0.00    +0.000 OA
BRANCH  10  13
ATOM     13  C   UNL     1       4.915   5.080  16.923  0.00  0.00    +0.000 A 
ATOM     14  C   UNL     1       4.770   4.509  15.656  0.00  0.00    +0.000 A 
ATOM     15  C   UNL     1       5.887   3.985  14.994  0.00  0.00    +0.000 A 
ATOM     16  C   UNL     1       7.142   4.002  15.609  0.00  0.00    +0.000 A 
ATOM     17  C   UNL     1       7.284   4.553  16.881  0.00  0.00    +0.000 A 
ATOM     18  C   UNL     1       6.175   5.101  17.530  0.00  0.00    +0.000 A 
ENDBRANCH  10  13
ENDBRANCH   3   5
BRANCH   1  21
ATOM     19  C   UNL     1      -0.692  11.480  20.422  0.00  0.00    +0.000 A 
ATOM     20  C   UNL     1      -0.425  10.197  19.977  0.00  0.00    +0.000 A 
ATOM     21  C   UNL     1       0.730  10.265  19.152  0.00  0.00    +0.000 A 
ATOM     22  N   UNL     1       1.162  11.533  19.055  0.00  0.00    +0.000 NA
ATOM     23  N   UNL     1       0.318  12.220  19.847  0.00  0.00    +0.000 N 
ATOM     24  H   UNL     1       0.490  13.211  19.964  0.00  0.00    +0.000 HD
BRANCH  19  30
ATOM     25  C   UNL     1      -4.909  13.558  23.894  0.00  0.00    +0.000 C 
ATOM     26  C   UNL     1      -3.798  13.061  23.028  0.00  0.00    +0.000 A 
ATOM     27  C   UNL     1      -2.918  12.062  23.479  0.00  0.00    +0.000 A 
ATOM     28  C   UNL     1      -1.880  11.560  22.661  0.00  0.00    +0.000 A 
ATOM     29  C   UNL     1      -0.965  10.541  23.296  0.00  0.00    +0.000 C 
ATOM     30  C   UNL     1      -1.720  12.039  21.333  0.00  0.00    +0.000 A 
ATOM     31  C   UNL     1      -2.595  13.074  20.919  0.00  0.00    +0.000 A 
ATOM     32  C   UNL     1      -3.608  13.577  21.749  0.00  0.00    +0.000 A 
BRANCH  31  33
ATOM     33  O   UNL     1      -2.558  13.669  19.685  0.00  0.00    +0.000 OA
ATOM     34  H   UNL     1      -3.463  13.762  19.358  0.00  0.00    +0.000 HD
ENDBRANCH  31  33
ENDBRANCH  19  30
ENDBRANCH   1  21
TORSDOF 5
ENDMDL
MODEL 3
REMARK VINA RESULT:      -8.1      1.295      1.542
REMARK  Name = 
REMARK  9 active torsions:
REMARK  status: ('A' for Active; 'I' for Inactive)
REMARK    1  A    between atoms: C_1  and  C_2
REMARK    2  A    between atoms: C_4  and  C_5
REMARK    3  A    between atoms: C_6  and  C_7
REMARK    4  A    between atoms: C_9  and  C_10
REMARK    5  A    between atoms: N_12  and  C_13
REMARK    6  A    between atoms: C_14  and  C_15
REMARK    7  A    between atoms: N_16  and  C_17
REMARK    8  A    between atoms: N_18  and  C_19
REMARK    9  A    between atoms: C_29  and  O_30
REMARK                            x       y       z     vdW  Elec       q    Type
REMARK                         _______ _______ _______ _____ _____    ______ ____
ROOT
ATOM      1  C   UNL     1       0.498   9.853  19.896  0.00  0.00    +0.000 C 
ATOM      2  O   UNL     1      -0.423  10.140  19.127  0.00  0.00    +0.000 OA
ATOM      3  N   UNL     1       0.891  10.641  20.960  0.00  0.00    +0.000 N 
ATOM      4  H   UNL     1       1.846  10.476  21.267  0.00  0.00    +0.000 HD
ENDROOT
BRANCH   3   5
ATOM      5  C   UNL     1       0.324  11.852  21.257  0.00  0.00    +0.000 A 
ATOM      6  C   UNL     1       0.493  13.067  20.702  0.00  0.00    +0.000 A 
ATOM      7  C   UNL     1       1.409  13.429  19.581  0.00  0.00    +0.000 C 
ATOM      8  N   UNL     1      -0.406  13.988  21.230  0.00  0.00    +0.000 N 
ATOM      9  C   UNL     1      -0.434  15.425  21.066  0.00  0.00    +0.000 C 
ATOM     10  N   UNL     1      -1.195  13.329  22.201  0.00  0.00    +0.000 N 
ATOM     11  C   UNL     1      -0.659  12.049  22.374  0.00  0.00    +0.000 A 
ATOM     12  O   UNL     1      -0.873  11.218  23.245  0.00  0.00    +0.000 OA
BRANCH  10  13
ATOM     13  C   UNL     1      -1.923  14.057  23.158  0.00  0.00    +0.000 A 
ATOM     14  C   UNL     1      -1.316  14.640  24.274  0.00  0.00    +0.000 A 
ATOM     15  C   UNL     1      -2.084  15.382  25.178  0.00  0.00    +0.000 A 
ATOM     16  C   UNL     1      -3.462  15.517  24.987  0.00  0.00    +0.000 A 
ATOM     17  C   UNL     1      -4.072  14.921  23.885  0.00  0.00    +0.000 A 
ATOM     18  C   UNL     1      -3.301  14.203  22.967  0.00  0.00    +0.000 A 
ENDBRANCH  10  13
ENDBRANCH   3   5
BRANCH   1  21
ATOM     19  C   UNL     1       2.611   7.064  18.714  0.00  0.00    +0.000 A 
ATOM     20  C   UNL     1       1.854   8.192  18.449  0.00  0.00    +0.000 A 
ATOM     21  C   UNL     1       1.326   8.650  19.686  0.00  0.00    +0.000 A 
ATOM     22  N   UNL     1       1.707   7.839  20.687  0.00  0.00    +0.000 NA
ATOM     23  N   UNL     1       2.495   6.932  20.080  0.00  0.00    +0.000 N 
ATOM     24  H   UNL     1       2.940   6.236  20.665  0.00  0.00    +0.000 HD
BRANCH  19  30
ATOM     25  C   UNL     1       6.009   3.538  15.523  0.00  0.00    +0.000 C 
ATOM     26  C   UNL     1       5.114   4.452  16.295  0.00  0.00    +0.000 A 
ATOM     27  C   UNL     1       3.882   4.003  16.802  0.00  0.00    +0.000 A 
ATOM     28  C   UNL     1       3.037   4.847  17.559  0.00  0.00    +0.000 A 
ATOM     29  C   UNL     1       1.712   4.259  17.981  0.00  0.00    +0.000 C 
ATOM     30  C   UNL     1       3.436   6.178  17.858  0.00  0.00    +0.000 A 
ATOM     31  C   UNL     1       4.662   6.616  17.300  0.00  0.00    +0.000 A 
ATOM     32  C   UNL     1       5.481   5.774  16.533  0.00  0.00    +0.000 A 
BRANCH  31  33
ATOM     33  O   UNL     1       5.178   7.875  17.463  0.00  0.00    +0.000 OA
ATOM     34  H   UNL     1       4.544   8.409  17.960  0.00  0.00    +0.000 HD
ENDBRANCH  31  33
ENDBRANCH  19  30
ENDBRANCH   1  21
TORSDOF 5
ENDMDL
MODEL 4
REMARK VINA RESULT:      -8.0      1.667      2.125
REMARK  Name = 
REMARK  9 active torsions:
REMARK  status: ('A' for Active; 'I' for Inactive)
REMARK    1  A    between atoms: C_1  and  C_2
REMARK    2  A    between atoms: C_4  and  C_5
REMARK    3  A    between atoms: C_6  and  C_7
REMARK    4  A    between atoms: C_9  and  C_10
REMARK    5  A    between atoms: N_12  and  C_13
REMARK    6  A    between atoms: C_14  and  C_15
REMARK    7  A    between atoms: N_16  and  C_17
REMARK    8  A    between atoms: N_18  and  C_19
REMARK    9  A    between atoms: C_29  and  O_30
REMARK                            x       y       z     vdW  Elec       q    Type
REMARK                         _______ _______ _______ _____ _____    ______ ____
ROOT
ATOM      1  C   UNL     1       0.996  10.222  19.154  0.00  0.00    +0.000 C 
ATOM      2  O   UNL     1       1.414  11.340  18.846  0.00  0.00    +0.000 OA
ATOM      3  N   UNL     1      -0.146  10.001  19.899  0.00  0.00    +0.000 N 
ATOM      4  H   UNL     1      -0.167   9.098  20.367  0.00  0.00    +0.000 HD
ENDROOT
BRANCH   3   5
ATOM      5  C   UNL     1      -0.922  11.005  20.413  0.00  0.00    +0.000 A 
ATOM      6  C   UNL     1      -1.837  11.801  19.829  0.00  0.00    +0.000 A 
ATOM      7  C   UNL     1      -2.240  11.813  18.392  0.00  0.00    +0.000 C 
ATOM      8  N   UNL     1      -2.495  12.584  20.773  0.00  0.00    +0.000 N 
ATOM      9  C   UNL     1      -3.390  13.701  20.561  0.00  0.00    +0.000 C 
ATOM     10  N   UNL     1      -1.959  12.285  22.046  0.00  0.00    +0.000 N 
ATOM     11  C   UNL     1      -0.862  11.440  21.849  0.00  0.00    +0.000 A 
ATOM     12  O   UNL     1       0.021  11.103  22.624  0.00  0.00    +0.000 OA
BRANCH  10  13
ATOM     13  C   UNL     1      -2.145  13.157  23.133  0.00  0.00    +0.000 A 
ATOM     14  C   UNL     1      -1.199  14.122  23.488  0.00  0.00    +0.000 A 
ATOM     15  C   UNL     1      -1.452  14.986  24.560  0.00  0.00    +0.000 A 
ATOM     16  C   UNL     1      -2.633  14.868  25.296  0.00  0.00    +0.000 A 
ATOM     17  C   UNL     1      -3.569  13.894  24.956  0.00  0.00    +0.000 A 
ATOM     18  C   UNL     1      -3.330  13.049  23.869  0.00  0.00    +0.000 A 
ENDBRANCH  10  13
ENDBRANCH   3   5
BRANCH   1  21
ATOM     19  C   UNL     1       2.685   6.946  18.917  0.00  0.00    +0.000 A 
ATOM     20  C   UNL     1       1.992   7.888  19.657  0.00  0.00    +0.000 A 
ATOM     21  C   UNL     1       1.748   9.000  18.808  0.00  0.00    +0.000 A 
ATOM     22  N   UNL     1       2.283   8.788  17.594  0.00  0.00    +0.000 NA
ATOM     23  N   UNL     1       2.799   7.548  17.684  0.00  0.00    +0.000 N 
ATOM     24  H   UNL     1       3.219   7.157  16.850  0.00  0.00    +0.000 HD
BRANCH  19  30
ATOM     25  C   UNL     1       4.763   1.662  20.306  0.00  0.00    +0.000 C 
ATOM     26  C   UNL     1       4.208   2.992  19.910  0.00  0.00    +0.000 A 
ATOM     27  C   UNL     1       2.926   3.394  20.320  0.00  0.00    +0.000 A 
ATOM     28  C   UNL     1       2.398   4.660  19.978  0.00  0.00    +0.000 A 
ATOM     29  C   UNL     1       0.981   4.934  20.423  0.00  0.00    +0.000 C 
ATOM     30  C   UNL     1       3.177   5.581  19.227  0.00  0.00    +0.000 A 
ATOM     31  C   UNL     1       4.449   5.134  18.792  0.00  0.00    +0.000 A 
ATOM     32  C   UNL     1       4.952   3.867  19.122  0.00  0.00    +0.000 A 
BRANCH  31  33
ATOM     33  O   UNL     1       5.312   5.882  18.036  0.00  0.00    +0.000 OA
ATOM     34  H   UNL     1       6.182   5.458  18.047  0.00  0.00    +0.000 HD
ENDBRANCH  31  33
ENDBRANCH  19  30
ENDBRANCH   1  21
TORSDOF 5
ENDMDL
MODEL 5
REMARK VINA RESULT:      -7.9      0.935      1.554
REMARK  Name = 
REMARK  9 active torsions:
REMARK  status: ('A' for Active; 'I' for Inactive)
REMARK    1  A    between atoms: C_1  and  C_2
REMARK    2  A    between atoms: C_4  and  C_5
REMARK    3  A    between atoms: C_6  and  C_7
REMARK    4  A    between atoms: C_9  and  C_10
REMARK    5  A    between atoms: N_12  and  C_13
REMARK    6  A    between atoms: C_14  and  C_15
REMARK    7  A    between atoms: N_16  and  C_17
REMARK    8  A    between atoms: N_18  and  C_19
REMARK    9  A    between atoms: C_29  and  O_30
REMARK                            x       y       z     vdW  Elec       q    Type
REMARK                         _______ _______ _______ _____ _____    ______ ____
ROOT
ATOM      1  C   UNL     1       0.977   9.918  19.662  0.00  0.00    +0.000 C 
ATOM      2  O   UNL     1       1.453  10.982  19.259  0.00  0.00    +0.000 OA
ATOM      3  N   UNL     1      -0.189   9.822  20.397  0.00  0.00    +0.000 N 
ATOM      4  H   UNL     1      -0.262   8.970  20.949  0.00  0.00    +0.000 HD
ENDROOT
BRANCH   3   5
ATOM      5  C   UNL     1      -0.928  10.905  20.794  0.00  0.00    +0.000 A 
ATOM      6  C   UNL     1      -1.706  11.749  20.091  0.00  0.00    +0.000 A 
ATOM      7  C   UNL     1      -1.955  11.736  18.619  0.00  0.00    +0.000 C 
ATOM      8  N   UNL     1      -2.390  12.618  20.934  0.00  0.00    +0.000 N 
ATOM      9  C   UNL     1      -3.161  13.795  20.593  0.00  0.00    +0.000 C 
ATOM     10  N   UNL     1      -2.016  12.328  22.266  0.00  0.00    +0.000 N 
ATOM     11  C   UNL     1      -0.981  11.390  22.214  0.00  0.00    +0.000 A 
ATOM     12  O   UNL     1      -0.214  11.014  23.089  0.00  0.00    +0.000 OA
BRANCH  10  13
ATOM     13  C   UNL     1      -2.241  13.255  23.299  0.00  0.00    +0.000 A 
ATOM     14  C   UNL     1      -3.425  13.274  24.042  0.00  0.00    +0.000 A 
ATOM     15  C   UNL     1      -3.582  14.199  25.081  0.00  0.00    +0.000 A 
ATOM     16  C   UNL     1      -2.572  15.124  25.359  0.00  0.00    +0.000 A 
ATOM     17  C   UNL     1      -1.399  15.118  24.608  0.00  0.00    +0.000 A 
ATOM     18  C   UNL     1      -1.230  14.178  23.589  0.00  0.00    +0.000 A 
ENDBRANCH  10  13
ENDBRANCH   3   5
BRANCH   1  21
ATOM     19  C   UNL     1       2.892   6.975  18.518  0.00  0.00    +0.000 A 
ATOM     20  C   UNL     1       2.322   8.210  18.261  0.00  0.00    +0.000 A 
ATOM     21  C   UNL     1       1.676   8.637  19.453  0.00  0.00    +0.000 A 
ATOM     22  N   UNL     1       1.806   7.707  20.414  0.00  0.00    +0.000 NA
ATOM     23  N   UNL     1       2.560   6.753  19.836  0.00  0.00    +0.000 N 
ATOM     24  H   UNL     1       2.828   5.961  20.408  0.00  0.00    +0.000 HD
BRANCH  19  30
ATOM     25  C   UNL     1       6.014   3.392  15.116  0.00  0.00    +0.000 C 
ATOM     26  C   UNL     1       5.245   4.293  16.027  0.00  0.00    +0.000 A 
ATOM     27  C   UNL     1       5.699   5.590  16.317  0.00  0.00    +0.000 A 
ATOM     28  C   UNL     1       4.967   6.465  17.153  0.00  0.00    +0.000 A 
ATOM     29  C   UNL     1       5.605   7.804  17.438  0.00  0.00    +0.000 C 
ATOM     30  C   UNL     1       3.722   6.057  17.701  0.00  0.00    +0.000 A 
ATOM     31  C   UNL     1       3.308   4.730  17.426  0.00  0.00    +0.000 A 
ATOM     32  C   UNL     1       4.054   3.866  16.610  0.00  0.00    +0.000 A 
BRANCH  31  33
ATOM     33  O   UNL     1       2.153   4.167  17.899  0.00  0.00    +0.000 OA
ATOM     34  H   UNL     1       2.010   4.468  18.807  0.00  0.00    +0.000 HD
ENDBRANCH  31  33
ENDBRANCH  19  30
ENDBRANCH   1  21
TORSDOF 5
ENDMDL
MODEL 6
REMARK VINA RESULT:      -7.9      7.794     11.038
REMARK  Name = 
REMARK  9 active torsions:
REMARK  status: ('A' for Active; 'I' for Inactive)
REMARK    1  A    between atoms: C_1  and  C_2
REMARK    2  A    between atoms: C_4  and  C_5
REMARK    3  A    between atoms: C_6  and  C_7
REMARK    4  A    between atoms: C_9  and  C_10
REMARK    5  A    between atoms: N_12  and  C_13
REMARK    6  A    between atoms: C_14  and  C_15
REMARK    7  A    between atoms: N_16  and  C_17
REMARK    8  A    between atoms: N_18  and  C_19
REMARK    9  A    between atoms: C_29  and  O_30
REMARK                            x       y       z     vdW  Elec       q    Type
REMARK                         _______ _______ _______ _____ _____    ______ ____
ROOT
ATOM      1  C   UNL     1       7.503   8.184  17.632  0.00  0.00    +0.000 C 
ATOM      2  O   UNL     1       6.713   8.574  16.769  0.00  0.00    +0.000 OA
ATOM      3  N   UNL     1       7.554   6.886  18.104  0.00  0.00    +0.000 N 
ATOM      4  H   UNL     1       7.977   6.798  19.025  0.00  0.00    +0.000 HD
ENDROOT
BRANCH   3   5
ATOM      5  C   UNL     1       6.703   5.895  17.693  0.00  0.00    +0.000 A 
ATOM      6  C   UNL     1       6.679   5.163  16.564  0.00  0.00    +0.000 A 
ATOM      7  C   UNL     1       7.605   5.269  15.398  0.00  0.00    +0.000 C 
ATOM      8  N   UNL     1       5.720   4.159  16.639  0.00  0.00    +0.000 N 
ATOM      9  C   UNL     1       5.230   3.291  15.589  0.00  0.00    +0.000 C 
ATOM     10  N   UNL     1       5.072   4.259  17.891  0.00  0.00    +0.000 N 
ATOM     11  C   UNL     1       5.530   5.429  18.505  0.00  0.00    +0.000 A 
ATOM     12  O   UNL     1       5.098   6.026  19.480  0.00  0.00    +0.000 OA
BRANCH  10  13
ATOM     13  C   UNL     1       3.829   3.639  18.114  0.00  0.00    +0.000 A 
ATOM     14  C   UNL     1       3.720   2.365  18.678  0.00  0.00    +0.000 A 
ATOM     15  C   UNL     1       2.456   1.810  18.908  0.00  0.00    +0.000 A 
ATOM     16  C   UNL     1       1.303   2.511  18.547  0.00  0.00    +0.000 A 
ATOM     17  C   UNL     1       1.410   3.773  17.967  0.00  0.00    +0.000 A 
ATOM     18  C   UNL     1       2.670   4.340  17.762  0.00  0.00    +0.000 A 
ENDBRANCH  10  13
ENDBRANCH   3   5
BRANCH   1  21
ATOM     19  C   UNL     1       9.661  10.948  18.788  0.00  0.00    +0.000 A 
ATOM     20  C   UNL     1       8.832  10.394  17.829  0.00  0.00    +0.000 A 
ATOM     21  C   UNL     1       8.429   9.116  18.301  0.00  0.00    +0.000 A 
ATOM     22  N   UNL     1       8.996   8.858  19.492  0.00  0.00    +0.000 NA
ATOM     23  N   UNL     1       9.690   9.978  19.765  0.00  0.00    +0.000 N 
ATOM     24  H   UNL     1      10.168  10.025  20.657  0.00  0.00    +0.000 HD
BRANCH  19  30
ATOM     25  C   UNL     1      12.276  16.172  18.993  0.00  0.00    +0.000 C 
ATOM     26  C   UNL     1      11.636  14.822  18.983  0.00  0.00    +0.000 A 
ATOM     27  C   UNL     1      10.503  14.550  19.769  0.00  0.00    +0.000 A 
ATOM     28  C   UNL     1       9.868  13.287  19.748  0.00  0.00    +0.000 A 
ATOM     29  C   UNL     1       8.705  13.110  20.694  0.00  0.00    +0.000 C 
ATOM     30  C   UNL     1      10.349  12.258  18.893  0.00  0.00    +0.000 A 
ATOM     31  C   UNL     1      11.516  12.546  18.143  0.00  0.00    +0.000 A 
ATOM     32  C   UNL     1      12.147  13.798  18.189  0.00  0.00    +0.000 A 
BRANCH  31  33
ATOM     33  O   UNL     1      12.127  11.660  17.297  0.00  0.00    +0.000 OA
ATOM     34  H   UNL     1      12.665  12.155  16.664  0.00  0.00    +0.000 HD
ENDBRANCH  31  33
ENDBRANCH  19  30
ENDBRANCH   1  21
TORSDOF 5
ENDMDL
MODEL 7
REMARK VINA RESULT:      -7.9      1.180      1.532
REMARK  Name = 
REMARK  9 active torsions:
REMARK  status: ('A' for Active; 'I' for Inactive)
REMARK    1  A    between atoms: C_1  and  C_2
REMARK    2  A    between atoms: C_4  and  C_5
REMARK    3  A    between atoms: C_6  and  C_7
REMARK    4  A    between atoms: C_9  and  C_10
REMARK    5  A    between atoms: N_12  and  C_13
REMARK    6  A    between atoms: C_14  and  C_15
REMARK    7  A    between atoms: N_16  and  C_17
REMARK    8  A    between atoms: N_18  and  C_19
REMARK    9  A    between atoms: C_29  and  O_30
REMARK                            x       y       z     vdW  Elec       q    Type
REMARK                         _______ _______ _______ _____ _____    ______ ____
ROOT
ATOM      1  C   UNL     1       0.496   8.224  20.867  0.00  0.00    +0.000 C 
ATOM      2  O   UNL     1      -0.432   7.847  21.586  0.00  0.00    +0.000 OA
ATOM      3  N   UNL     1       0.660   9.527  20.436  0.00  0.00    +0.000 N 
ATOM      4  H   UNL     1       1.225   9.617  19.595  0.00  0.00    +0.000 HD
ENDROOT
BRANCH   3   5
ATOM      5  C   UNL     1      -0.214  10.539  20.730  0.00  0.00    +0.000 A 
ATOM      6  C   UNL     1      -0.959  11.324  19.929  0.00  0.00    +0.000 A 
ATOM      7  C   UNL     1      -1.005  11.309  18.437  0.00  0.00    +0.000 C 
ATOM      8  N   UNL     1      -1.822  12.123  20.673  0.00  0.00    +0.000 N 
ATOM      9  C   UNL     1      -2.636  13.235  20.232  0.00  0.00    +0.000 C 
ATOM     10  N   UNL     1      -1.607  11.848  22.043  0.00  0.00    +0.000 N 
ATOM     11  C   UNL     1      -0.499  11.001  22.130  0.00  0.00    +0.000 A 
ATOM     12  O   UNL     1       0.172  10.680  23.100  0.00  0.00    +0.000 OA
BRANCH  10  13
ATOM     13  C   UNL     1      -2.047  12.740  23.037  0.00  0.00    +0.000 A 
ATOM     14  C   UNL     1      -1.292  13.847  23.435  0.00  0.00    +0.000 A 
ATOM     15  C   UNL     1      -1.793  14.721  24.407  0.00  0.00    +0.000 A 
ATOM     16  C   UNL     1      -3.032  14.473  25.005  0.00  0.00    +0.000 A 
ATOM     17  C   UNL     1      -3.777  13.360  24.623  0.00  0.00    +0.000 A 
ATOM     18  C   UNL     1      -3.290  12.503  23.634  0.00  0.00    +0.000 A 
ENDBRANCH  10  13
ENDBRANCH   3   5
BRANCH   1  21
ATOM     19  C   UNL     1       2.914   6.207  18.938  0.00  0.00    +0.000 A 
ATOM     20  C   UNL     1       1.956   7.204  18.991  0.00  0.00    +0.000 A 
ATOM     21  C   UNL     1       1.487   7.273  20.330  0.00  0.00    +0.000 A 
ATOM     22  N   UNL     1       2.098   6.346  21.087  0.00  0.00    +0.000 NA
ATOM     23  N   UNL     1       2.960   5.757  20.238  0.00  0.00    +0.000 N 
ATOM     24  H   UNL     1       3.572   5.044  20.616  0.00  0.00    +0.000 HD
BRANCH  19  30
ATOM     25  C   UNL     1       6.515   4.178  14.805  0.00  0.00    +0.000 C 
ATOM     26  C   UNL     1       5.560   4.710  15.824  0.00  0.00    +0.000 A 
ATOM     27  C   UNL     1       4.527   3.908  16.338  0.00  0.00    +0.000 A 
ATOM     28  C   UNL     1       3.634   4.387  17.324  0.00  0.00    +0.000 A 
ATOM     29  C   UNL     1       2.527   3.446  17.735  0.00  0.00    +0.000 C 
ATOM     30  C   UNL     1       3.784   5.700  17.848  0.00  0.00    +0.000 A 
ATOM     31  C   UNL     1       4.807   6.499  17.283  0.00  0.00    +0.000 A 
ATOM     32  C   UNL     1       5.674   6.017  16.291  0.00  0.00    +0.000 A 
BRANCH  31  33
ATOM     33  O   UNL     1       5.067   7.793  17.650  0.00  0.00    +0.000 OA
ATOM     34  H   UNL     1       5.832   8.110  17.150  0.00  0.00    +0.000 HD
ENDBRANCH  31  33
ENDBRANCH  19  30
ENDBRANCH   1  21
TORSDOF 5
ENDMDL
MODEL 8
REMARK VINA RESULT:      -7.8      2.197     10.620
REMARK  Name = 
REMARK  9 active torsions:
REMARK  status: ('A' for Active; 'I' for Inactive)
REMARK    1  A    between atoms: C_1  and  C_2
REMARK    2  A    between atoms: C_4  and  C_5
REMARK    3  A    between atoms: C_6  and  C_7
REMARK    4  A    between atoms: C_9  and  C_10
REMARK    5  A    between atoms: N_12  and  C_13
REMARK    6  A    between atoms: C_14  and  C_15
REMARK    7  A    between atoms: N_16  and  C_17
REMARK    8  A    between atoms: N_18  and  C_19
REMARK    9  A    between atoms: C_29  and  O_30
REMARK                            x       y       z     vdW  Elec       q    Type
REMARK                         _______ _______ _______ _____ _____    ______ ____
ROOT
ATOM      1  C   UNL     1       1.220   9.135  18.402  0.00  0.00    +0.000 C 
ATOM      2  O   UNL     1       1.177   8.876  17.197  0.00  0.00    +0.000 OA
ATOM      3  N   UNL     1       1.887   8.364  19.335  0.00  0.00    +0.000 N 
ATOM      4  H   UNL     1       1.548   8.482  20.287  0.00  0.00    +0.000 HD
ENDROOT
BRANCH   3   5
ATOM      5  C   UNL     1       2.543   7.202  19.029  0.00  0.00    +0.000 A 
ATOM      6  C   UNL     1       2.423   5.960  19.534  0.00  0.00    +0.000 A 
ATOM      7  C   UNL     1       1.516   5.514  20.632  0.00  0.00    +0.000 C 
ATOM      8  N   UNL     1       3.191   5.050  18.814  0.00  0.00    +0.000 N 
ATOM      9  C   UNL     1       3.506   3.674  19.134  0.00  0.00    +0.000 C 
ATOM     10  N   UNL     1       3.863   5.754  17.788  0.00  0.00    +0.000 N 
ATOM     11  C   UNL     1       3.626   7.116  17.993  0.00  0.00    +0.000 A 
ATOM     12  O   UNL     1       4.169   8.092  17.496  0.00  0.00    +0.000 OA
BRANCH  10  13
ATOM     13  C   UNL     1       4.979   5.196  17.140  0.00  0.00    +0.000 A 
ATOM     14  C   UNL     1       6.258   5.216  17.703  0.00  0.00    +0.000 A 
ATOM     15  C   UNL     1       7.327   4.617  17.027  0.00  0.00    +0.000 A 
ATOM     16  C   UNL     1       7.128   4.026  15.776  0.00  0.00    +0.000 A 
ATOM     17  C   UNL     1       5.857   4.022  15.205  0.00  0.00    +0.000 A 
ATOM     18  C   UNL     1       4.784   4.595  15.891  0.00  0.00    +0.000 A 
ENDBRANCH  10  13
ENDBRANCH   3   5
BRANCH   1  21
ATOM     19  C   UNL     1      -1.116  11.515  19.987  0.00  0.00    +0.000 A 
ATOM     20  C   UNL     1      -0.828  10.241  19.529  0.00  0.00    +0.000 A 
ATOM     21  C   UNL     1       0.477  10.276  18.969  0.00  0.00    +0.000 A 
ATOM     22  N   UNL     1       0.985  11.518  19.043  0.00  0.00    +0.000 NA
ATOM     23  N   UNL     1       0.029  12.217  19.682  0.00  0.00    +0.000 N 
ATOM     24  H   UNL     1       0.224  13.187  19.893  0.00  0.00    +0.000 HD
BRANCH  19  30
ATOM     25  C   UNL     1      -5.831  13.585  22.752  0.00  0.00    +0.000 C 
ATOM     26  C   UNL     1      -4.605  13.104  22.046  0.00  0.00    +0.000 A 
ATOM     27  C   UNL     1      -3.462  12.712  22.763  0.00  0.00    +0.000 A 
ATOM     28  C   UNL     1      -2.305  12.227  22.111  0.00  0.00    +0.000 A 
ATOM     29  C   UNL     1      -1.125  11.908  22.997  0.00  0.00    +0.000 C 
ATOM     30  C   UNL     1      -2.284  12.093  20.697  0.00  0.00    +0.000 A 
ATOM     31  C   UNL     1      -3.434  12.534  19.997  0.00  0.00    +0.000 A 
ATOM     32  C   UNL     1      -4.568  13.032  20.656  0.00  0.00    +0.000 A 
BRANCH  31  33
ATOM     33  O   UNL     1      -3.567  12.504  18.634  0.00  0.00    +0.000 OA
ATOM     34  H   UNL     1      -2.793  12.065  18.256  0.00  0.00    +0.000 HD
ENDBRANCH  31  33
ENDBRANCH  19  30
ENDBRANCH   1  21
TORSDOF 5
ENDMDL
MODEL 9
REMARK VINA RESULT:      -7.8      1.800      2.610
REMARK  Name = 
REMARK  9 active torsions:
REMARK  status: ('A' for Active; 'I' for Inactive)
REMARK    1  A    between atoms: C_1  and  C_2
REMARK    2  A    between atoms: C_4  and  C_5
REMARK    3  A    between atoms: C_6  and  C_7
REMARK    4  A    between atoms: C_9  and  C_10
REMARK    5  A    between atoms: N_12  and  C_13
REMARK    6  A    between atoms: C_14  and  C_15
REMARK    7  A    between atoms: N_16  and  C_17
REMARK    8  A    between atoms: N_18  and  C_19
REMARK    9  A    between atoms: C_29  and  O_30
REMARK                            x       y       z     vdW  Elec       q    Type
REMARK                         _______ _______ _______ _____ _____    ______ ____
ROOT
ATOM      1  C   UNL     1       1.403   8.199  20.360  0.00  0.00    +0.000 C 
ATOM      2  O   UNL     1       0.955   8.084  21.503  0.00  0.00    +0.000 OA
ATOM      3  N   UNL     1       1.128   9.265  19.525  0.00  0.00    +0.000 N 
ATOM      4  H   UNL     1       1.255   9.060  18.537  0.00  0.00    +0.000 HD
ENDROOT
BRANCH   3   5
ATOM      5  C   UNL     1       0.294  10.297  19.862  0.00  0.00    +0.000 A 
ATOM      6  C   UNL     1      -0.902  10.666  19.365  0.00  0.00    +0.000 A 
ATOM      7  C   UNL     1      -1.651  10.025  18.244  0.00  0.00    +0.000 C 
ATOM      8  N   UNL     1      -1.462  11.693  20.118  0.00  0.00    +0.000 N 
ATOM      9  C   UNL     1      -2.620  12.508  19.821  0.00  0.00    +0.000 C 
ATOM     10  N   UNL     1      -0.561  12.021  21.157  0.00  0.00    +0.000 N 
ATOM     11  C   UNL     1       0.616  11.300  20.932  0.00  0.00    +0.000 A 
ATOM     12  O   UNL     1       1.722  11.423  21.436  0.00  0.00    +0.000 OA
BRANCH  10  13
ATOM     13  C   UNL     1      -0.664  13.243  21.845  0.00  0.00    +0.000 A 
ATOM     14  C   UNL     1      -0.171  14.440  21.319  0.00  0.00    +0.000 A 
ATOM     15  C   UNL     1      -0.330  15.634  22.034  0.00  0.00    +0.000 A 
ATOM     16  C   UNL     1      -0.951  15.628  23.286  0.00  0.00    +0.000 A 
ATOM     17  C   UNL     1      -1.426  14.432  23.820  0.00  0.00    +0.000 A 
ATOM     18  C   UNL     1      -1.293  13.245  23.095  0.00  0.00    +0.000 A 
ENDBRANCH  10  13
ENDBRANCH   3   5
BRANCH   1  21
ATOM     19  C   UNL     1       3.506   5.978  18.290  0.00  0.00    +0.000 A 
ATOM     20  C   UNL     1       2.752   7.131  18.429  0.00  0.00    +0.000 A 
ATOM     21  C   UNL     1       2.226   7.139  19.749  0.00  0.00    +0.000 A 
ATOM     22  N   UNL     1       2.605   6.032  20.410  0.00  0.00    +0.000 NA
ATOM     23  N   UNL     1       3.390   5.386  19.528  0.00  0.00    +0.000 N 
ATOM     24  H   UNL     1       3.833   4.530  19.838  0.00  0.00    +0.000 HD
BRANCH  19  30
ATOM     25  C   UNL     1       6.570   3.905  13.765  0.00  0.00    +0.000 C 
ATOM     26  C   UNL     1       5.822   4.414  14.954  0.00  0.00    +0.000 A 
ATOM     27  C   UNL     1       6.154   5.643  15.549  0.00  0.00    +0.000 A 
ATOM     28  C   UNL     1       5.438   6.152  16.656  0.00  0.00    +0.000 A 
ATOM     29  C   UNL     1       5.946   7.448  17.240  0.00  0.00    +0.000 C 
ATOM     30  C   UNL     1       4.327   5.437  17.180  0.00  0.00    +0.000 A 
ATOM     31  C   UNL     1       4.040   4.182  16.588  0.00  0.00    +0.000 A 
ATOM     32  C   UNL     1       4.773   3.680  15.502  0.00  0.00    +0.000 A 
BRANCH  31  33
ATOM     33  O   UNL     1       3.027   3.352  16.991  0.00  0.00    +0.000 OA
ATOM     34  H   UNL     1       3.411   2.516  17.289  0.00  0.00    +0.000 HD
ENDBRANCH  31  33
ENDBRANCH  19  30
ENDBRANCH   1  21
TORSDOF 5
ENDMDL
