MODEL 1
REMARK VINA RESULT:      -7.8      0.000      0.000
REMARK  Name = 
REMARK  6 active torsions:
REMARK  status: ('A' for Active; 'I' for Inactive)
REMARK    1  A    between atoms: C_1  and  O_2
REMARK    2  A    between atoms: O_2  and  C_3
REMARK    3  A    between atoms: C_8  and  O_9
REMARK    4  A    between atoms: O_9  and  C_10
REMARK    5  A    between atoms: C_13  and  N_14
REMARK    6  A    between atoms: C_15  and  N_16
REMARK                            x       y       z     vdW  Elec       q    Type
REMARK                         _______ _______ _______ _____ _____    ______ ____
ROOT
ATOM      1  C   UNL     1       2.115   3.672  18.519  0.00  0.00    +0.000 A 
ATOM      2  C   UNL     1       2.505   4.836  17.844  0.00  0.00    +0.000 A 
ATOM      3  C   UNL     1       2.383   6.108  18.431  0.00  0.00    +0.000 A 
ATOM      4  C   UNL     1       1.866   6.251  19.721  0.00  0.00    +0.000 A 
ATOM      5  C   UNL     1       1.494   5.069  20.397  0.00  0.00    +0.000 A 
ATOM      6  C   UNL     1       1.586   3.790  19.809  0.00  0.00    +0.000 A 
ATOM      7  C   UNL     1       1.810   7.645  20.377  0.00  0.00    +0.000 C 
ATOM      8  C   UNL     1       0.650   7.724  21.371  0.00  0.00    +0.000 C 
ATOM      9  C   UNL     1       0.442   9.108  21.953  0.00  0.00    +0.000 C 
ATOM     10  C   UNL     1       0.022  10.058  20.816  0.00  0.00    +0.000 C 
ATOM     11  C   UNL     1       1.197  10.092  19.790  0.00  0.00    +0.000 C 
ATOM     12  N   UNL     1       1.809   8.790  19.447  0.00  0.00    +0.000 NA
ATOM     13  C   UNL     1       2.003   8.547  18.028  0.00  0.00    +0.000 C 
ATOM     14  C   UNL     1       2.868   7.327  17.703  0.00  0.00    +0.000 C 
ENDROOT
BRANCH  10  15
ATOM     15  N   UNL     1      -0.407  11.343  21.420  0.00  0.00    +0.000 N 
ATOM     16  C   UNL     1       0.329  12.558  21.178  0.00  0.00    +0.000 C 
ATOM     17  C   UNL     1      -0.532  13.567  21.882  0.00  0.00    +0.000 C 
ATOM     18  O   UNL     1      -1.043  12.826  22.994  0.00  0.00    +0.000 OA
ATOM     19  C   UNL     1      -1.013  11.497  22.647  0.00  0.00    +0.000 C 
ATOM     20  O   UNL     1      -1.466  10.607  23.349  0.00  0.00    +0.000 OA
ENDBRANCH  10  15
BRANCH   9  21
ATOM     21  N   UNL     1       1.594   9.635  22.718  0.00  0.00    +0.000 NA
ATOM     22  H   UNL     1       1.545   9.234  23.660  0.00  0.00    +0.000 HD
ATOM     23  H   UNL     1       1.457  10.637  22.883  0.00  0.00    +0.000 HD
ENDBRANCH   9  21
BRANCH   1  25
ATOM     24  C   UNL     1       3.431   1.730  18.116  0.00  0.00    +0.000 C 
ATOM     25  O   UNL     1       2.205   2.432  17.943  0.00  0.00    +0.000 OA
ENDBRANCH   1  25
BRANCH   6  26
ATOM     26  O   UNL     1       1.146   2.795  20.647  0.00  0.00    +0.000 OA
ATOM     27  C   UNL     1       1.857   2.546  21.853  0.00  0.00    +0.000 C 
ENDBRANCH   6  26
TORSDOF 4
ENDMDL
MODEL 2
REMARK VINA RESULT:      -7.8      0.862      1.155
REMARK  Name = 
REMARK  6 active torsions:
REMARK  status: ('A' for Active; 'I' for Inactive)
REMARK    1  A    between atoms: C_1  and  O_2
REMARK    2  A    between atoms: O_2  and  C_3
REMARK    3  A    between atoms: C_8  and  O_9
REMARK    4  A    between atoms: O_9  and  C_10
REMARK    5  A    between atoms: C_13  and  N_14
REMARK    6  A    between atoms: C_15  and  N_16
REMARK                            x       y       z     vdW  Elec       q    Type
REMARK                         _______ _______ _______ _____ _____    ______ ____
ROOT
ATOM      1  C   UNL     1       2.199   3.772  18.505  0.00  0.00    +0.000 A 
ATOM      2  C   UNL     1       2.561   4.955  17.849  0.00  0.00    +0.000 A 
ATOM      3  C   UNL     1       2.396   6.216  18.452  0.00  0.00    +0.000 A 
ATOM      4  C   UNL     1       1.862   6.326  19.738  0.00  0.00    +0.000 A 
ATOM      5  C   UNL     1       1.517   5.125  20.394  0.00  0.00    +0.000 A 
ATOM      6  C   UNL     1       1.652   3.857  19.791  0.00  0.00    +0.000 A 
ATOM      7  C   UNL     1       1.758   7.709  20.411  0.00  0.00    +0.000 C 
ATOM      8  C   UNL     1       0.587   7.740  21.395  0.00  0.00    +0.000 C 
ATOM      9  C   UNL     1       0.332   9.110  21.992  0.00  0.00    +0.000 C 
ATOM     10  C   UNL     1      -0.104  10.062  20.863  0.00  0.00    +0.000 C 
ATOM     11  C   UNL     1       1.080  10.145  19.850  0.00  0.00    +0.000 C 
ATOM     12  N   UNL     1       1.734   8.866  19.497  0.00  0.00    +0.000 NA
ATOM     13  C   UNL     1       1.948   8.648  18.077  0.00  0.00    +0.000 C 
ATOM     14  C   UNL     1       2.852   7.458  17.745  0.00  0.00    +0.000 C 
ENDROOT
BRANCH  10  15
ATOM     15  N   UNL     1      -0.577  11.326  21.480  0.00  0.00    +0.000 N 
ATOM     16  C   UNL     1      -1.120  11.342  22.815  0.00  0.00    +0.000 C 
ATOM     17  C   UNL     1      -1.339  12.812  23.024  0.00  0.00    +0.000 C 
ATOM     18  O   UNL     1      -1.696  13.269  21.716  0.00  0.00    +0.000 OA
ATOM     19  C   UNL     1      -1.160  12.381  20.814  0.00  0.00    +0.000 C 
ATOM     20  O   UNL     1      -1.210  12.537  19.605  0.00  0.00    +0.000 OA
ENDBRANCH  10  15
BRANCH   9  21
ATOM     21  N   UNL     1       1.460   9.660  22.776  0.00  0.00    +0.000 NA
ATOM     22  H   UNL     1       2.066   8.874  23.033  0.00  0.00    +0.000 HD
ATOM     23  H   UNL     1       1.110   9.990  23.681  0.00  0.00    +0.000 HD
ENDBRANCH   9  21
BRANCH   1  25
ATOM     24  C   UNL     1       3.502   1.799  18.231  0.00  0.00    +0.000 C 
ATOM     25  O   UNL     1       2.330   2.543  17.913  0.00  0.00    +0.000 OA
ENDBRANCH   1  25
BRANCH   6  26
ATOM     26  O   UNL     1       1.234   2.838  20.611  0.00  0.00    +0.000 OA
ATOM     27  C   UNL     1       1.964   2.568  21.801  0.00  0.00    +0.000 C 
ENDBRANCH   6  26
TORSDOF 4
ENDMDL
MODEL 3
REMARK VINA RESULT:      -7.5      1.071      1.216
REMARK  Name = 
REMARK  6 active torsions:
REMARK  status: ('A' for Active; 'I' for Inactive)
REMARK    1  A    between atoms: C_1  and  O_2
REMARK    2  A    between atoms: O_2  and  C_3
REMARK    3  A    between atoms: C_8  and  O_9
REMARK    4  A    between atoms: O_9  and  C_10
REMARK    5  A    between atoms: C_13  and  N_14
REMARK    6  A    between atoms: C_15  and  N_16
REMARK                            x       y       z     vdW  Elec       q    Type
REMARK                         _______ _______ _______ _____ _____    ______ ____
ROOT
ATOM      1  C   UNL     1       2.215   3.776  18.845  0.00  0.00    +0.000 A 
ATOM      2  C   UNL     1       2.675   4.893  18.136  0.00  0.00    +0.000 A 
ATOM      3  C   UNL     1       2.472   6.203  18.607  0.00  0.00    +0.000 A 
ATOM      4  C   UNL     1       1.801   6.433  19.811  0.00  0.00    +0.000 A 
ATOM      5  C   UNL     1       1.359   5.298  20.524  0.00  0.00    +0.000 A 
ATOM      6  C   UNL     1       1.531   3.980  20.050  0.00  0.00    +0.000 A 
ATOM      7  C   UNL     1       1.655   7.869  20.348  0.00  0.00    +0.000 C 
ATOM      8  C   UNL     1       0.382   8.002  21.187  0.00  0.00    +0.000 C 
ATOM      9  C   UNL     1       0.094   9.421  21.634  0.00  0.00    +0.000 C 
ATOM     10  C   UNL     1      -0.192  10.277  20.386  0.00  0.00    +0.000 C 
ATOM     11  C   UNL     1       1.099  10.256  19.509  0.00  0.00    +0.000 C 
ATOM     12  N   UNL     1       1.758   8.943  19.342  0.00  0.00    +0.000 NA
ATOM     13  C   UNL     1       2.124   8.600  17.979  0.00  0.00    +0.000 C 
ATOM     14  C   UNL     1       3.032   7.374  17.853  0.00  0.00    +0.000 C 
ENDROOT
BRANCH  10  15
ATOM     15  N   UNL     1      -0.702  11.596  20.836  0.00  0.00    +0.000 N 
ATOM     16  C   UNL     1      -1.948  12.119  20.334  0.00  0.00    +0.000 C 
ATOM     17  C   UNL     1      -2.084  13.376  21.143  0.00  0.00    +0.000 C 
ATOM     18  O   UNL     1      -0.727  13.803  21.298  0.00  0.00    +0.000 OA
ATOM     19  C   UNL     1       0.067  12.689  21.172  0.00  0.00    +0.000 C 
ATOM     20  O   UNL     1       1.276  12.700  21.341  0.00  0.00    +0.000 OA
ENDBRANCH  10  15
BRANCH   9  21
ATOM     21  N   UNL     1       1.140  10.023  22.490  0.00  0.00    +0.000 NA
ATOM     22  H   UNL     1       0.704  10.257  23.387  0.00  0.00    +0.000 HD
ATOM     23  H   UNL     1       1.400  10.938  22.110  0.00  0.00    +0.000 HD
ENDBRANCH   9  21
BRANCH   1  25
ATOM     24  C   UNL     1       3.627   2.202  17.754  0.00  0.00    +0.000 C 
ATOM     25  O   UNL     1       2.383   2.499  18.379  0.00  0.00    +0.000 OA
ENDBRANCH   1  25
BRANCH   6  26
ATOM     26  O   UNL     1       1.001   3.042  20.901  0.00  0.00    +0.000 OA
ATOM     27  C   UNL     1       1.808   2.537  21.957  0.00  0.00    +0.000 C 
ENDBRANCH   6  26
TORSDOF 4
ENDMDL
MODEL 4
REMARK VINA RESULT:      -7.5      1.540      1.658
REMARK  Name = 
REMARK  6 active torsions:
REMARK  status: ('A' for Active; 'I' for Inactive)
REMARK    1  A    between atoms: C_1  and  O_2
REMARK    2  A    between atoms: O_2  and  C_3
REMARK    3  A    between atoms: C_8  and  O_9
REMARK    4  A    between atoms: O_9  and  C_10
REMARK    5  A    between atoms: C_13  and  N_14
REMARK    6  A    between atoms: C_15  and  N_16
REMARK                            x       y       z     vdW  Elec       q    Type
REMARK                         _______ _______ _______ _____ _____    ______ ____
ROOT
ATOM      1  C   UNL     1       3.234   4.235  18.801  0.00  0.00    +0.000 A 
ATOM      2  C   UNL     1       3.330   5.357  17.967  0.00  0.00    +0.000 A 
ATOM      3  C   UNL     1       2.879   6.625  18.378  0.00  0.00    +0.000 A 
ATOM      4  C   UNL     1       2.320   6.807  19.645  0.00  0.00    +0.000 A 
ATOM      5  C   UNL     1       2.245   5.672  20.481  0.00  0.00    +0.000 A 
ATOM      6  C   UNL     1       2.667   4.390  20.072  0.00  0.00    +0.000 A 
ATOM      7  C   UNL     1       1.901   8.217  20.105  0.00  0.00    +0.000 C 
ATOM      8  C   UNL     1       0.741   8.135  21.099  0.00  0.00    +0.000 C 
ATOM      9  C   UNL     1       0.179   9.487  21.491  0.00  0.00    +0.000 C 
ATOM     10  C   UNL     1      -0.445  10.137  20.242  0.00  0.00    +0.000 C 
ATOM     11  C   UNL     1       0.702  10.327  19.201  0.00  0.00    +0.000 C 
ATOM     12  N   UNL     1       1.629   9.188  19.029  0.00  0.00    +0.000 NA
ATOM     13  C   UNL     1       1.903   8.811  17.653  0.00  0.00    +0.000 C 
ATOM     14  C   UNL     1       3.054   7.816  17.483  0.00  0.00    +0.000 C 
ENDROOT
BRANCH  10  15
ATOM     15  N   UNL     1      -1.196  11.341  20.672  0.00  0.00    +0.000 N 
ATOM     16  C   UNL     1      -1.623  11.499  22.040  0.00  0.00    +0.000 C 
ATOM     17  C   UNL     1      -2.217  12.877  22.004  0.00  0.00    +0.000 C 
ATOM     18  O   UNL     1      -2.779  12.946  20.690  0.00  0.00    +0.000 OA
ATOM     19  C   UNL     1      -2.091  12.054  19.905  0.00  0.00    +0.000 C 
ATOM     20  O   UNL     1      -2.270  11.936  18.704  0.00  0.00    +0.000 OA
ENDBRANCH  10  15
BRANCH   9  21
ATOM     21  N   UNL     1       1.147  10.387  22.158  0.00  0.00    +0.000 NA
ATOM     22  H   UNL     1       1.973   9.828  22.392  0.00  0.00    +0.000 HD
ATOM     23  H   UNL     1       0.778  10.655  23.075  0.00  0.00    +0.000 HD
ENDBRANCH   9  21
BRANCH   1  25
ATOM     24  C   UNL     1       2.666   2.163  17.778  0.00  0.00    +0.000 C 
ATOM     25  O   UNL     1       3.643   2.991  18.397  0.00  0.00    +0.000 OA
ENDBRANCH   1  25
BRANCH   6  26
ATOM     26  O   UNL     1       2.478   3.440  21.044  0.00  0.00    +0.000 OA
ATOM     27  C   UNL     1       1.198   2.835  21.177  0.00  0.00    +0.000 C 
ENDBRANCH   6  26
TORSDOF 4
ENDMDL
MODEL 5
REMARK VINA RESULT:      -7.3      1.611      1.838
REMARK  Name = 
REMARK  6 active torsions:
REMARK  status: ('A' for Active; 'I' for Inactive)
REMARK    1  A    between atoms: C_1  and  O_2
REMARK    2  A    between atoms: O_2  and  C_3
REMARK    3  A    between atoms: C_8  and  O_9
REMARK    4  A    between atoms: O_9  and  C_10
REMARK    5  A    between atoms: C_13  and  N_14
REMARK    6  A    between atoms: C_15  and  N_16
REMARK                            x       y       z     vdW  Elec       q    Type
REMARK                         _______ _______ _______ _____ _____    ______ ____
ROOT
ATOM      1  C   UNL     1       3.037   4.503  19.236  0.00  0.00    +0.000 A 
ATOM      2  C   UNL     1       3.205   5.565  18.338  0.00  0.00    +0.000 A 
ATOM      3  C   UNL     1       2.739   6.861  18.627  0.00  0.00    +0.000 A 
ATOM      4  C   UNL     1       2.089   7.131  19.834  0.00  0.00    +0.000 A 
ATOM      5  C   UNL     1       1.942   6.056  20.737  0.00  0.00    +0.000 A 
ATOM      6  C   UNL     1       2.380   4.747  20.447  0.00  0.00    +0.000 A 
ATOM      7  C   UNL     1       1.652   8.571  20.167  0.00  0.00    +0.000 C 
ATOM      8  C   UNL     1       0.422   8.563  21.075  0.00  0.00    +0.000 C 
ATOM      9  C   UNL     1      -0.154   9.941  21.331  0.00  0.00    +0.000 C 
ATOM     10  C   UNL     1      -0.678  10.508  19.999  0.00  0.00    +0.000 C 
ATOM     11  C   UNL     1       0.545  10.621  19.036  0.00  0.00    +0.000 C 
ATOM     12  N   UNL     1       1.470   9.468  19.010  0.00  0.00    +0.000 NA
ATOM     13  C   UNL     1       1.842   8.998  17.687  0.00  0.00    +0.000 C 
ATOM     14  C   UNL     1       2.992   7.988  17.670  0.00  0.00    +0.000 C 
ENDROOT
BRANCH  10  15
ATOM     15  N   UNL     1      -1.446  11.743  20.290  0.00  0.00    +0.000 N 
ATOM     16  C   UNL     1      -2.796  11.906  19.812  0.00  0.00    +0.000 C 
ATOM     17  C   UNL     1      -3.172  13.217  20.440  0.00  0.00    +0.000 C 
ATOM     18  O   UNL     1      -1.937  13.939  20.431  0.00  0.00    +0.000 OA
ATOM     19  C   UNL     1      -0.923  13.012  20.408  0.00  0.00    +0.000 C 
ATOM     20  O   UNL     1       0.259  13.304  20.485  0.00  0.00    +0.000 OA
ENDBRANCH  10  15
BRANCH   9  21
ATOM     21  N   UNL     1       0.771  10.879  22.006  0.00  0.00    +0.000 NA
ATOM     22  H   UNL     1       0.273  11.276  22.809  0.00  0.00    +0.000 HD
ATOM     23  H   UNL     1       0.925  11.692  21.402  0.00  0.00    +0.000 HD
ENDBRANCH   9  21
BRANCH   1  25
ATOM     24  C   UNL     1       2.801   2.560  17.883  0.00  0.00    +0.000 C 
ATOM     25  O   UNL     1       3.463   3.233  18.948  0.00  0.00    +0.000 OA
ENDBRANCH   1  25
BRANCH   6  26
ATOM     26  O   UNL     1       2.110   3.866  21.465  0.00  0.00    +0.000 OA
ATOM     27  C   UNL     1       1.179   2.815  21.237  0.00  0.00    +0.000 C 
ENDBRANCH   6  26
TORSDOF 4
ENDMDL
MODEL 6
REMARK VINA RESULT:      -6.9      2.464      3.767
REMARK  Name = 
REMARK  6 active torsions:
REMARK  status: ('A' for Active; 'I' for Inactive)
REMARK    1  A    between atoms: C_1  and  O_2
REMARK    2  A    between atoms: O_2  and  C_3
REMARK    3  A    between atoms: C_8  and  O_9
REMARK    4  A    between atoms: O_9  and  C_10
REMARK    5  A    between atoms: C_13  and  N_14
REMARK    6  A    between atoms: C_15  and  N_16
REMARK                            x       y       z     vdW  Elec       q    Type
REMARK                         _______ _______ _______ _____ _____    ______ ____
ROOT
ATOM      1  C   UNL     1       5.107   5.169  17.959  0.00  0.00    +0.000 A 
ATOM      2  C   UNL     1       4.242   5.098  19.059  0.00  0.00    +0.000 A 
ATOM      3  C   UNL     1       3.212   6.037  19.252  0.00  0.00    +0.000 A 
ATOM      4  C   UNL     1       3.016   7.077  18.341  0.00  0.00    +0.000 A 
ATOM      5  C   UNL     1       3.883   7.127  17.228  0.00  0.00    +0.000 A 
ATOM      6  C   UNL     1       4.937   6.209  17.038  0.00  0.00    +0.000 A 
ATOM      7  C   UNL     1       1.836   8.051  18.528  0.00  0.00    +0.000 C 
ATOM      8  C   UNL     1       2.176   9.424  17.945  0.00  0.00    +0.000 C 
ATOM      9  C   UNL     1       1.120  10.477  18.216  0.00  0.00    +0.000 C 
ATOM     10  C   UNL     1       1.054  10.724  19.734  0.00  0.00    +0.000 C 
ATOM     11  C   UNL     1       0.633   9.377  20.400  0.00  0.00    +0.000 C 
ATOM     12  N   UNL     1       1.305   8.158  19.900  0.00  0.00    +0.000 NA
ATOM     13  C   UNL     1       1.813   7.262  20.924  0.00  0.00    +0.000 C 
ATOM     14  C   UNL     1       2.265   5.895  20.407  0.00  0.00    +0.000 C 
ENDROOT
BRANCH  10  15
ATOM     15  N   UNL     1       0.198  11.911  19.974  0.00  0.00    +0.000 N 
ATOM     16  C   UNL     1       0.247  13.051  19.093  0.00  0.00    +0.000 C 
ATOM     17  C   UNL     1      -0.843  13.911  19.665  0.00  0.00    +0.000 C 
ATOM     18  O   UNL     1      -0.762  13.635  21.066  0.00  0.00    +0.000 OA
ATOM     19  C   UNL     1      -0.190  12.393  21.205  0.00  0.00    +0.000 C 
ATOM     20  O   UNL     1      -0.061  11.827  22.279  0.00  0.00    +0.000 OA
ENDBRANCH  10  15
BRANCH   9  21
ATOM     21  N   UNL     1      -0.212  10.176  17.645  0.00  0.00    +0.000 NA
ATOM     22  H   UNL     1      -0.441  10.929  16.988  0.00  0.00    +0.000 HD
ATOM     23  H   UNL     1      -0.922  10.280  18.376  0.00  0.00    +0.000 HD
ENDBRANCH   9  21
BRANCH   1  25
ATOM     24  C   UNL     1       7.447   4.747  18.044  0.00  0.00    +0.000 C 
ATOM     25  O   UNL     1       6.131   4.275  17.780  0.00  0.00    +0.000 OA
ENDBRANCH   1  25
BRANCH   6  26
ATOM     26  O   UNL     1       5.659   6.467  15.899  0.00  0.00    +0.000 OA
ATOM     27  C   UNL     1       5.632   5.522  14.837  0.00  0.00    +0.000 C 
ENDBRANCH   6  26
TORSDOF 4
ENDMDL
MODEL 7
REMARK VINA RESULT:      -6.7      2.759      4.067
REMARK  Name = 
REMARK  6 active torsions:
REMARK  status: ('A' for Active; 'I' for Inactive)
REMARK    1  A    between atoms: C_1  and  O_2
REMARK    2  A    between atoms: O_2  and  C_3
REMARK    3  A    between atoms: C_8  and  O_9
REMARK    4  A    between atoms: O_9  and  C_10
REMARK    5  A    between atoms: C_13  and  N_14
REMARK    6  A    between atoms: C_15  and  N_16
REMARK                            x       y       z     vdW  Elec       q    Type
REMARK                         _______ _______ _______ _____ _____    ______ ____
ROOT
ATOM      1  C   UNL     1       5.189   5.211  18.049  0.00  0.00    +0.000 A 
ATOM      2  C   UNL     1       4.320   5.149  19.147  0.00  0.00    +0.000 A 
ATOM      3  C   UNL     1       3.263   6.062  19.306  0.00  0.00    +0.000 A 
ATOM      4  C   UNL     1       3.042   7.069  18.363  0.00  0.00    +0.000 A 
ATOM      5  C   UNL     1       3.914   7.110  17.254  0.00  0.00    +0.000 A 
ATOM      6  C   UNL     1       4.994   6.217  17.096  0.00  0.00    +0.000 A 
ATOM      7  C   UNL     1       1.834   8.014  18.515  0.00  0.00    +0.000 C 
ATOM      8  C   UNL     1       2.138   9.378  17.893  0.00  0.00    +0.000 C 
ATOM      9  C   UNL     1       1.051  10.408  18.126  0.00  0.00    +0.000 C 
ATOM     10  C   UNL     1       0.969  10.698  19.637  0.00  0.00    +0.000 C 
ATOM     11  C   UNL     1       0.583   9.360  20.341  0.00  0.00    +0.000 C 
ATOM     12  N   UNL     1       1.293   8.147  19.881  0.00  0.00    +0.000 NA
ATOM     13  C   UNL     1       1.820   7.297  20.935  0.00  0.00    +0.000 C 
ATOM     14  C   UNL     1       2.314   5.928  20.461  0.00  0.00    +0.000 C 
ENDROOT
BRANCH  10  15
ATOM     15  N   UNL     1       0.079  11.868  19.837  0.00  0.00    +0.000 N 
ATOM     16  C   UNL     1      -1.333  11.693  20.071  0.00  0.00    +0.000 C 
ATOM     17  C   UNL     1      -1.766  13.109  20.320  0.00  0.00    +0.000 C 
ATOM     18  O   UNL     1      -0.907  13.859  19.455  0.00  0.00    +0.000 OA
ATOM     19  C   UNL     1       0.221  13.103  19.244  0.00  0.00    +0.000 C 
ATOM     20  O   UNL     1       1.190  13.500  18.618  0.00  0.00    +0.000 OA
ENDBRANCH  10  15
BRANCH   9  21
ATOM     21  N   UNL     1      -0.269  10.052  17.559  0.00  0.00    +0.000 NA
ATOM     22  H   UNL     1      -0.795  10.923  17.439  0.00  0.00    +0.000 HD
ATOM     23  H   UNL     1      -0.812   9.545  18.264  0.00  0.00    +0.000 HD
ENDBRANCH   9  21
BRANCH   1  25
ATOM     24  C   UNL     1       7.541   4.863  18.143  0.00  0.00    +0.000 C 
ATOM     25  O   UNL     1       6.238   4.342  17.902  0.00  0.00    +0.000 OA
ENDBRANCH   1  25
BRANCH   6  26
ATOM     26  O   UNL     1       5.715   6.462  15.953  0.00  0.00    +0.000 OA
ATOM     27  C   UNL     1       5.651   5.526  14.885  0.00  0.00    +0.000 C 
ENDBRANCH   6  26
TORSDOF 4
ENDMDL
MODEL 8
REMARK VINA RESULT:      -6.6      2.221      3.621
REMARK  Name = 
REMARK  6 active torsions:
REMARK  status: ('A' for Active; 'I' for Inactive)
REMARK    1  A    between atoms: C_1  and  O_2
REMARK    2  A    between atoms: O_2  and  C_3
REMARK    3  A    between atoms: C_8  and  O_9
REMARK    4  A    between atoms: O_9  and  C_10
REMARK    5  A    between atoms: C_13  and  N_14
REMARK    6  A    between atoms: C_15  and  N_16
REMARK                            x       y       z     vdW  Elec       q    Type
REMARK                         _______ _______ _______ _____ _____    ______ ____
ROOT
ATOM      1  C   UNL     1       3.909   5.484  18.686  0.00  0.00    +0.000 A 
ATOM      2  C   UNL     1       3.062   5.686  19.783  0.00  0.00    +0.000 A 
ATOM      3  C   UNL     1       2.262   6.837  19.899  0.00  0.00    +0.000 A 
ATOM      4  C   UNL     1       2.285   7.823  18.910  0.00  0.00    +0.000 A 
ATOM      5  C   UNL     1       3.129   7.599  17.801  0.00  0.00    +0.000 A 
ATOM      6  C   UNL     1       3.957   6.463  17.686  0.00  0.00    +0.000 A 
ATOM      7  C   UNL     1       1.346   9.041  19.016  0.00  0.00    +0.000 C 
ATOM      8  C   UNL     1       1.967  10.259  18.331  0.00  0.00    +0.000 C 
ATOM      9  C   UNL     1       1.168  11.534  18.515  0.00  0.00    +0.000 C 
ATOM     10  C   UNL     1       1.174  11.903  20.010  0.00  0.00    +0.000 C 
ATOM     11  C   UNL     1       0.480  10.734  20.775  0.00  0.00    +0.000 C 
ATOM     12  N   UNL     1       0.867   9.364  20.373  0.00  0.00    +0.000 NA
ATOM     13  C   UNL     1       1.181   8.460  21.466  0.00  0.00    +0.000 C 
ATOM     14  C   UNL     1       1.321   6.992  21.057  0.00  0.00    +0.000 C 
ENDROOT
BRANCH  10  15
ATOM     15  N   UNL     1       0.599  13.263  20.154  0.00  0.00    +0.000 N 
ATOM     16  C   UNL     1       0.939  14.314  19.228  0.00  0.00    +0.000 C 
ATOM     17  C   UNL     1       0.048  15.424  19.705  0.00  0.00    +0.000 C 
ATOM     18  O   UNL     1       0.008  15.212  21.120  0.00  0.00    +0.000 OA
ATOM     19  C   UNL     1       0.279  13.884  21.341  0.00  0.00    +0.000 C 
ATOM     20  O   UNL     1       0.234  13.362  22.443  0.00  0.00    +0.000 OA
ENDBRANCH  10  15
BRANCH   9  21
ATOM     21  N   UNL     1      -0.205  11.486  17.963  0.00  0.00    +0.000 NA
ATOM     22  H   UNL     1      -0.846  11.760  18.713  0.00  0.00    +0.000 HD
ATOM     23  H   UNL     1      -0.460  10.510  17.783  0.00  0.00    +0.000 HD
ENDBRANCH   9  21
BRANCH   1  25
ATOM     24  C   UNL     1       4.338   3.238  19.345  0.00  0.00    +0.000 C 
ATOM     25  O   UNL     1       4.713   4.379  18.581  0.00  0.00    +0.000 OA
ENDBRANCH   1  25
BRANCH   6  26
ATOM     26  O   UNL     1       4.704   6.472  16.535  0.00  0.00    +0.000 OA
ATOM     27  C   UNL     1       6.116   6.609  16.631  0.00  0.00    +0.000 C 
ENDBRANCH   6  26
TORSDOF 4
ENDMDL
MODEL 9
REMARK VINA RESULT:      -6.6      2.190      7.843
REMARK  Name = 
REMARK  6 active torsions:
REMARK  status: ('A' for Active; 'I' for Inactive)
REMARK    1  A    between atoms: C_1  and  O_2
REMARK    2  A    between atoms: O_2  and  C_3
REMARK    3  A    between atoms: C_8  and  O_9
REMARK    4  A    between atoms: O_9  and  C_10
REMARK    5  A    between atoms: C_13  and  N_14
REMARK    6  A    between atoms: C_15  and  N_16
REMARK                            x       y       z     vdW  Elec       q    Type
REMARK                         _______ _______ _______ _____ _____    ______ ____
ROOT
ATOM      1  C   UNL     1       1.002  11.184  20.821  0.00  0.00    +0.000 A 
ATOM      2  C   UNL     1       1.435  10.791  19.548  0.00  0.00    +0.000 A 
ATOM      3  C   UNL     1       1.555   9.435  19.193  0.00  0.00    +0.000 A 
ATOM      4  C   UNL     1       1.239   8.428  20.108  0.00  0.00    +0.000 A 
ATOM      5  C   UNL     1       0.787   8.838  21.380  0.00  0.00    +0.000 A 
ATOM      6  C   UNL     1       0.688  10.193  21.758  0.00  0.00    +0.000 A 
ATOM      7  C   UNL     1       1.304   6.950  19.677  0.00  0.00    +0.000 C 
ATOM      8  C   UNL     1       1.629   6.055  20.874  0.00  0.00    +0.000 C 
ATOM      9  C   UNL     1       1.850   4.602  20.506  0.00  0.00    +0.000 C 
ATOM     10  C   UNL     1       3.105   4.508  19.618  0.00  0.00    +0.000 C 
ATOM     11  C   UNL     1       2.819   5.339  18.329  0.00  0.00    +0.000 C 
ATOM     12  N   UNL     1       2.176   6.656  18.524  0.00  0.00    +0.000 NA
ATOM     13  C   UNL     1       2.785   7.759  17.801  0.00  0.00    +0.000 C 
ATOM     14  C   UNL     1       1.963   9.051  17.801  0.00  0.00    +0.000 C 
ENDROOT
BRANCH  10  15
ATOM     15  N   UNL     1       3.452   3.075  19.456  0.00  0.00    +0.000 N 
ATOM     16  C   UNL     1       4.726   2.566  19.899  0.00  0.00    +0.000 C 
ATOM     17  C   UNL     1       4.562   1.097  19.635  0.00  0.00    +0.000 C 
ATOM     18  O   UNL     1       3.751   1.076  18.457  0.00  0.00    +0.000 OA
ATOM     19  C   UNL     1       3.049   2.258  18.424  0.00  0.00    +0.000 C 
ATOM     20  O   UNL     1       2.198   2.512  17.587  0.00  0.00    +0.000 OA
ENDBRANCH  10  15
BRANCH   9  21
ATOM     21  N   UNL     1       0.682   3.940  19.883  0.00  0.00    +0.000 NA
ATOM     22  H   UNL     1       0.751   4.084  18.871  0.00  0.00    +0.000 HD
ATOM     23  H   UNL     1      -0.169   4.454  20.134  0.00  0.00    +0.000 HD
ENDBRANCH   9  21
BRANCH   1  25
ATOM     24  C   UNL     1       1.888  13.385  20.644  0.00  0.00    +0.000 C 
ATOM     25  O   UNL     1       0.910  12.502  21.183  0.00  0.00    +0.000 OA
ENDBRANCH   1  25
BRANCH   6  26
ATOM     26  O   UNL     1       0.247  10.347  23.049  0.00  0.00    +0.000 OA
ATOM     27  C   UNL     1      -1.131  10.613  23.279  0.00  0.00    +0.000 C 
ENDBRANCH   6  26
TORSDOF 4
ENDMDL
