MODEL 1
REMARK VINA RESULT:      -7.7      0.000      0.000
REMARK  Name = 
REMARK  7 active torsions:
REMARK  status: ('A' for Active; 'I' for Inactive)
REMARK    1  A    between atoms: C_1  and  C_2
REMARK    2  A    between atoms: N_4  and  S_5
REMARK    3  A    between atoms: S_5  and  N_8
REMARK    4  A    between atoms: N_8  and  C_9
REMARK    5  A    between atoms: C_9  and  C_10
REMARK    6  A    between atoms: C_10  and  C_11
REMARK    7  A    between atoms: C_21  and  C_22
REMARK                            x       y       z     vdW  Elec       q    Type
REMARK                         _______ _______ _______ _____ _____    ______ ____
ROOT
ATOM      1  N   UNL     1       3.901   5.399  19.894  0.00  0.00    +0.000 NA
ATOM      2  H   UNL     1       4.556   6.132  19.624  0.00  0.00    +0.000 HD
ENDROOT
BRANCH   1   3
ATOM      3  S   UNL     1       4.203   4.016  18.975  0.00  0.00    +0.000 S 
ATOM      4  O   UNL     1       2.967   3.673  18.345  0.00  0.00    +0.000 OA
ATOM      5  O   UNL     1       4.934   3.075  19.804  0.00  0.00    +0.000 OA
BRANCH   3   9
ATOM      6  C   UNL     1       6.513   4.339  14.998  0.00  0.00    +0.000 C 
ATOM      7  C   UNL     1       5.580   5.445  15.486  0.00  0.00    +0.000 C 
ATOM      8  C   UNL     1       4.582   4.936  16.531  0.00  0.00    +0.000 C 
ATOM      9  N   UNL     1       5.280   4.596  17.812  0.00  0.00    +0.000 NA
ATOM     10  C   UNL     1       6.049   5.802  18.284  0.00  0.00    +0.000 C 
ATOM     11  C   UNL     1       7.011   6.306  17.194  0.00  0.00    +0.000 C 
ATOM     12  C   UNL     1       7.715   7.570  17.676  0.00  0.00    +0.000 C 
ATOM     13  O   UNL     1       6.312   6.590  15.971  0.00  0.00    +0.000 OA
ENDBRANCH   3   9
ENDBRANCH   1   3
BRANCH   1  14
ATOM     14  C   UNL     1       2.495   5.901  19.678  0.00  0.00    +0.000 C 
BRANCH  14  15
ATOM     15  C   UNL     1       2.450   7.282  19.029  0.00  0.00    +0.000 C 
BRANCH  15  16
ATOM     16  C   UNL     1       1.638   8.235  19.831  0.00  0.00    +0.000 A 
ATOM     17  C   UNL     1       1.089   9.448  19.474  0.00  0.00    +0.000 A 
ATOM     18  N   UNL     1       0.431   9.902  20.594  0.00  0.00    +0.000 N 
ATOM     19  C   UNL     1      -0.287  11.081  20.795  0.00  0.00    +0.000 A 
ATOM     20  C   UNL     1      -0.850  11.308  21.995  0.00  0.00    +0.000 A 
ATOM     21  C   UNL     1      -0.697  10.310  23.046  0.00  0.00    +0.000 A 
ATOM     22  C   UNL     1      -0.000   9.175  22.841  0.00  0.00    +0.000 A 
ATOM     23  C   UNL     1       0.606   8.934  21.575  0.00  0.00    +0.000 A 
ATOM     24  N   UNL     1       1.336   7.931  21.138  0.00  0.00    +0.000 NA
ENDBRANCH  15  16
ENDBRANCH  14  15
ENDBRANCH   1  14
TORSDOF 5
ENDMDL
MODEL 2
REMARK VINA RESULT:      -7.6      0.967      1.898
REMARK  Name = 
REMARK  7 active torsions:
REMARK  status: ('A' for Active; 'I' for Inactive)
REMARK    1  A    between atoms: C_1  and  C_2
REMARK    2  A    between atoms: N_4  and  S_5
REMARK    3  A    between atoms: S_5  and  N_8
REMARK    4  A    between atoms: N_8  and  C_9
REMARK    5  A    between atoms: C_9  and  C_10
REMARK    6  A    between atoms: C_10  and  C_11
REMARK    7  A    between atoms: C_21  and  C_22
REMARK                            x       y       z     vdW  Elec       q    Type
REMARK                         _______ _______ _______ _____ _____    ______ ____
ROOT
ATOM      1  N   UNL     1       3.075   5.090  19.220  0.00  0.00    +0.000 NA
ATOM      2  H   UNL     1       3.761   5.693  19.673  0.00  0.00    +0.000 HD
ENDROOT
BRANCH   1   3
ATOM      3  S   UNL     1       3.870   3.804  18.473  0.00  0.00    +0.000 S 
ATOM      4  O   UNL     1       2.919   3.199  17.593  0.00  0.00    +0.000 OA
ATOM      5  O   UNL     1       4.564   3.045  19.498  0.00  0.00    +0.000 OA
BRANCH   3   9
ATOM      6  C   UNL     1       7.189   6.808  17.369  0.00  0.00    +0.000 C 
ATOM      7  C   UNL     1       7.434   5.301  17.392  0.00  0.00    +0.000 C 
ATOM      8  C   UNL     1       6.385   4.560  18.229  0.00  0.00    +0.000 C 
ATOM      9  N   UNL     1       5.046   4.599  17.561  0.00  0.00    +0.000 NA
ATOM     10  C   UNL     1       5.179   4.037  16.169  0.00  0.00    +0.000 C 
ATOM     11  C   UNL     1       6.266   4.781  15.374  0.00  0.00    +0.000 C 
ATOM     12  C   UNL     1       6.427   4.138  14.001  0.00  0.00    +0.000 C 
ATOM     13  O   UNL     1       7.528   4.752  16.062  0.00  0.00    +0.000 OA
ENDBRANCH   3   9
ENDBRANCH   1   3
BRANCH   1  14
ATOM     14  C   UNL     1       2.297   5.908  18.219  0.00  0.00    +0.000 C 
BRANCH  14  15
ATOM     15  C   UNL     1       2.761   7.361  18.150  0.00  0.00    +0.000 C 
BRANCH  15  16
ATOM     16  C   UNL     1       1.965   8.230  19.056  0.00  0.00    +0.000 A 
ATOM     17  C   UNL     1       1.319   9.421  18.798  0.00  0.00    +0.000 A 
ATOM     18  N   UNL     1       0.731   9.790  19.986  0.00  0.00    +0.000 N 
ATOM     19  C   UNL     1      -0.035  10.914  20.295  0.00  0.00    +0.000 A 
ATOM     20  C   UNL     1      -0.507  11.058  21.546  0.00  0.00    +0.000 A 
ATOM     21  C   UNL     1      -0.211  10.032  22.536  0.00  0.00    +0.000 A 
ATOM     22  C   UNL     1       0.531   8.950  22.226  0.00  0.00    +0.000 A 
ATOM     23  C   UNL     1       1.043   8.796  20.906  0.00  0.00    +0.000 A 
ATOM     24  N   UNL     1       1.791   7.858  20.368  0.00  0.00    +0.000 NA
ENDBRANCH  15  16
ENDBRANCH  14  15
ENDBRANCH   1  14
TORSDOF 5
ENDMDL
MODEL 3
REMARK VINA RESULT:      -7.5      1.798      2.654
REMARK  Name = 
REMARK  7 active torsions:
REMARK  status: ('A' for Active; 'I' for Inactive)
REMARK    1  A    between atoms: C_1  and  C_2
REMARK    2  A    between atoms: N_4  and  S_5
REMARK    3  A    between atoms: S_5  and  N_8
REMARK    4  A    between atoms: N_8  and  C_9
REMARK    5  A    between atoms: C_9  and  C_10
REMARK    6  A    between atoms: C_10  and  C_11
REMARK    7  A    between atoms: C_21  and  C_22
REMARK                            x       y       z     vdW  Elec       q    Type
REMARK                         _______ _______ _______ _____ _____    ______ ____
ROOT
ATOM      1  N   UNL     1       3.492   3.323  19.596  0.00  0.00    +0.000 NA
ATOM      2  H   UNL     1       4.175   4.059  19.772  0.00  0.00    +0.000 HD
ENDROOT
BRANCH   1   3
ATOM      3  S   UNL     1       3.431   3.005  17.940  0.00  0.00    +0.000 S 
ATOM      4  O   UNL     1       2.298   3.714  17.435  0.00  0.00    +0.000 OA
ATOM      5  O   UNL     1       3.595   1.575  17.749  0.00  0.00    +0.000 OA
BRANCH   3   9
ATOM      6  C   UNL     1       6.696   4.468  15.031  0.00  0.00    +0.000 C 
ATOM      7  C   UNL     1       5.852   5.437  15.857  0.00  0.00    +0.000 C 
ATOM      8  C   UNL     1       4.555   4.789  16.354  0.00  0.00    +0.000 C 
ATOM      9  N   UNL     1       4.844   3.744  17.388  0.00  0.00    +0.000 NA
ATOM     10  C   UNL     1       5.645   4.368  18.501  0.00  0.00    +0.000 C 
ATOM     11  C   UNL     1       6.918   5.040  17.957  0.00  0.00    +0.000 C 
ATOM     12  C   UNL     1       7.664   5.725  19.098  0.00  0.00    +0.000 C 
ATOM     13  O   UNL     1       6.605   6.010  16.945  0.00  0.00    +0.000 OA
ENDBRANCH   3   9
ENDBRANCH   1   3
BRANCH   1  14
ATOM     14  C   UNL     1       2.149   3.772  20.115  0.00  0.00    +0.000 C 
BRANCH  14  15
ATOM     15  C   UNL     1       2.255   4.899  21.140  0.00  0.00    +0.000 C 
BRANCH  15  16
ATOM     16  C   UNL     1       2.015   6.227  20.516  0.00  0.00    +0.000 A 
ATOM     17  C   UNL     1       1.298   7.308  20.984  0.00  0.00    +0.000 A 
ATOM     18  N   UNL     1       1.409   8.276  20.013  0.00  0.00    +0.000 N 
ATOM     19  C   UNL     1       0.872   9.562  19.965  0.00  0.00    +0.000 A 
ATOM     20  C   UNL     1       1.123  10.336  18.894  0.00  0.00    +0.000 A 
ATOM     21  C   UNL     1       1.957   9.809  17.822  0.00  0.00    +0.000 A 
ATOM     22  C   UNL     1       2.470   8.564  17.879  0.00  0.00    +0.000 A 
ATOM     23  C   UNL     1       2.199   7.736  19.005  0.00  0.00    +0.000 A 
ATOM     24  N   UNL     1       2.563   6.504  19.285  0.00  0.00    +0.000 NA
ENDBRANCH  15  16
ENDBRANCH  14  15
ENDBRANCH   1  14
TORSDOF 5
ENDMDL
MODEL 4
REMARK VINA RESULT:      -7.4      1.182      2.325
REMARK  Name = 
REMARK  7 active torsions:
REMARK  status: ('A' for Active; 'I' for Inactive)
REMARK    1  A    between atoms: C_1  and  C_2
REMARK    2  A    between atoms: N_4  and  S_5
REMARK    3  A    between atoms: S_5  and  N_8
REMARK    4  A    between atoms: N_8  and  C_9
REMARK    5  A    between atoms: C_9  and  C_10
REMARK    6  A    between atoms: C_10  and  C_11
REMARK    7  A    between atoms: C_21  and  C_22
REMARK                            x       y       z     vdW  Elec       q    Type
REMARK                         _______ _______ _______ _____ _____    ______ ____
ROOT
ATOM      1  N   UNL     1       2.399   5.832  18.049  0.00  0.00    +0.000 NA
ATOM      2  H   UNL     1       1.652   5.817  18.743  0.00  0.00    +0.000 HD
ENDROOT
BRANCH   1   3
ATOM      3  S   UNL     1       3.447   4.540  18.334  0.00  0.00    +0.000 S 
ATOM      4  O   UNL     1       2.903   3.419  17.635  0.00  0.00    +0.000 OA
ATOM      5  O   UNL     1       3.734   4.497  19.757  0.00  0.00    +0.000 OA
BRANCH   3   9
ATOM      6  C   UNL     1       7.405   6.786  17.593  0.00  0.00    +0.000 C 
ATOM      7  C   UNL     1       7.338   5.262  17.666  0.00  0.00    +0.000 C 
ATOM      8  C   UNL     1       6.074   4.776  18.383  0.00  0.00    +0.000 C 
ATOM      9  N   UNL     1       4.855   5.053  17.558  0.00  0.00    +0.000 NA
ATOM     10  C   UNL     1       5.030   4.423  16.200  0.00  0.00    +0.000 C 
ATOM     11  C   UNL     1       6.329   4.907  15.531  0.00  0.00    +0.000 C 
ATOM     12  C   UNL     1       6.513   4.194  14.195  0.00  0.00    +0.000 C 
ATOM     13  O   UNL     1       7.472   4.656  16.364  0.00  0.00    +0.000 OA
ENDBRANCH   3   9
ENDBRANCH   1   3
BRANCH   1  14
ATOM     14  C   UNL     1       3.122   7.153  18.143  0.00  0.00    +0.000 C 
BRANCH  14  15
ATOM     15  C   UNL     1       2.214   8.348  17.864  0.00  0.00    +0.000 C 
BRANCH  15  16
ATOM     16  C   UNL     1       1.541   8.820  19.103  0.00  0.00    +0.000 A 
ATOM     17  C   UNL     1       1.561   8.293  20.377  0.00  0.00    +0.000 A 
ATOM     18  N   UNL     1       0.775   9.128  21.137  0.00  0.00    +0.000 N 
ATOM     19  C   UNL     1       0.442   9.060  22.490  0.00  0.00    +0.000 A 
ATOM     20  C   UNL     1      -0.355  10.007  23.015  0.00  0.00    +0.000 A 
ATOM     21  C   UNL     1      -0.840  11.079  22.156  0.00  0.00    +0.000 A 
ATOM     22  C   UNL     1      -0.513  11.134  20.850  0.00  0.00    +0.000 A 
ATOM     23  C   UNL     1       0.323  10.129  20.285  0.00  0.00    +0.000 A 
ATOM     24  N   UNL     1       0.764   9.954  19.058  0.00  0.00    +0.000 NA
ENDBRANCH  15  16
ENDBRANCH  14  15
ENDBRANCH   1  14
TORSDOF 5
ENDMDL
MODEL 5
REMARK VINA RESULT:      -7.2      1.181      2.382
REMARK  Name = 
REMARK  7 active torsions:
REMARK  status: ('A' for Active; 'I' for Inactive)
REMARK    1  A    between atoms: C_1  and  C_2
REMARK    2  A    between atoms: N_4  and  S_5
REMARK    3  A    between atoms: S_5  and  N_8
REMARK    4  A    between atoms: N_8  and  C_9
REMARK    5  A    between atoms: C_9  and  C_10
REMARK    6  A    between atoms: C_10  and  C_11
REMARK    7  A    between atoms: C_21  and  C_22
REMARK                            x       y       z     vdW  Elec       q    Type
REMARK                         _______ _______ _______ _____ _____    ______ ____
ROOT
ATOM      1  N   UNL     1       3.057   4.532  19.101  0.00  0.00    +0.000 NA
ATOM      2  H   UNL     1       2.728   4.262  20.027  0.00  0.00    +0.000 HD
ENDROOT
BRANCH   1   3
ATOM      3  S   UNL     1       4.227   3.432  18.583  0.00  0.00    +0.000 S 
ATOM      4  O   UNL     1       3.549   2.481  17.760  0.00  0.00    +0.000 OA
ATOM      5  O   UNL     1       5.013   3.033  19.737  0.00  0.00    +0.000 OA
BRANCH   3   9
ATOM      6  C   UNL     1       7.029   6.881  17.352  0.00  0.00    +0.000 C 
ATOM      7  C   UNL     1       7.472   5.420  17.307  0.00  0.00    +0.000 C 
ATOM      8  C   UNL     1       6.595   4.526  18.191  0.00  0.00    +0.000 C 
ATOM      9  N   UNL     1       5.217   4.400  17.619  0.00  0.00    +0.000 NA
ATOM     10  C   UNL     1       5.321   3.894  16.203  0.00  0.00    +0.000 C 
ATOM     11  C   UNL     1       6.239   4.796  15.360  0.00  0.00    +0.000 C 
ATOM     12  C   UNL     1       6.382   4.214  13.957  0.00  0.00    +0.000 C 
ATOM     13  O   UNL     1       7.540   4.921  15.956  0.00  0.00    +0.000 OA
ENDBRANCH   3   9
ENDBRANCH   1   3
BRANCH   1  14
ATOM     14  C   UNL     1       3.617   5.931  19.173  0.00  0.00    +0.000 C 
BRANCH  14  15
ATOM     15  C   UNL     1       2.913   6.902  18.228  0.00  0.00    +0.000 C 
BRANCH  15  16
ATOM     16  C   UNL     1       2.097   7.895  18.977  0.00  0.00    +0.000 A 
ATOM     17  C   UNL     1       1.726   7.914  20.305  0.00  0.00    +0.000 A 
ATOM     18  N   UNL     1       0.984   9.061  20.467  0.00  0.00    +0.000 N 
ATOM     19  C   UNL     1       0.355   9.568  21.603  0.00  0.00    +0.000 A 
ATOM     20  C   UNL     1      -0.322  10.727  21.514  0.00  0.00    +0.000 A 
ATOM     21  C   UNL     1      -0.371  11.420  20.234  0.00  0.00    +0.000 A 
ATOM     22  C   UNL     1       0.240  10.920  19.141  0.00  0.00    +0.000 A 
ATOM     23  C   UNL     1       0.951   9.689  19.227  0.00  0.00    +0.000 A 
ATOM     24  N   UNL     1       1.605   8.998  18.319  0.00  0.00    +0.000 NA
ENDBRANCH  15  16
ENDBRANCH  14  15
ENDBRANCH   1  14
TORSDOF 5
ENDMDL
MODEL 6
REMARK VINA RESULT:      -7.1      1.746      3.038
REMARK  Name = 
REMARK  7 active torsions:
REMARK  status: ('A' for Active; 'I' for Inactive)
REMARK    1  A    between atoms: C_1  and  C_2
REMARK    2  A    between atoms: N_4  and  S_5
REMARK    3  A    between atoms: S_5  and  N_8
REMARK    4  A    between atoms: N_8  and  C_9
REMARK    5  A    between atoms: C_9  and  C_10
REMARK    6  A    between atoms: C_10  and  C_11
REMARK    7  A    between atoms: C_21  and  C_22
REMARK                            x       y       z     vdW  Elec       q    Type
REMARK                         _______ _______ _______ _____ _____    ______ ____
ROOT
ATOM      1  N   UNL     1       1.802   3.915  18.695  0.00  0.00    +0.000 NA
ATOM      2  H   UNL     1       1.033   3.488  18.179  0.00  0.00    +0.000 HD
ENDROOT
BRANCH   1   3
ATOM      3  S   UNL     1       3.203   3.006  18.458  0.00  0.00    +0.000 S 
ATOM      4  O   UNL     1       2.841   1.925  17.595  0.00  0.00    +0.000 OA
ATOM      5  O   UNL     1       3.822   2.785  19.753  0.00  0.00    +0.000 OA
BRANCH   3   9
ATOM      6  C   UNL     1       5.558   6.846  17.474  0.00  0.00    +0.000 C 
ATOM      7  C   UNL     1       6.247   5.493  17.646  0.00  0.00    +0.000 C 
ATOM      8  C   UNL     1       5.377   4.500  18.424  0.00  0.00    +0.000 C 
ATOM      9  N   UNL     1       4.186   4.088  17.615  0.00  0.00    +0.000 NA
ATOM     10  C   UNL     1       4.660   3.534  16.296  0.00  0.00    +0.000 C 
ATOM     11  C   UNL     1       5.560   4.545  15.564  0.00  0.00    +0.000 C 
ATOM     12  C   UNL     1       6.083   3.925  14.272  0.00  0.00    +0.000 C 
ATOM     13  O   UNL     1       6.672   4.943  16.382  0.00  0.00    +0.000 OA
ENDBRANCH   3   9
ENDBRANCH   1   3
BRANCH   1  14
ATOM     14  C   UNL     1       1.431   3.976  20.156  0.00  0.00    +0.000 C 
BRANCH  14  15
ATOM     15  C   UNL     1       2.221   5.033  20.925  0.00  0.00    +0.000 C 
BRANCH  15  16
ATOM     16  C   UNL     1       1.972   6.397  20.389  0.00  0.00    +0.000 A 
ATOM     17  C   UNL     1       1.298   7.460  20.953  0.00  0.00    +0.000 A 
ATOM     18  N   UNL     1       1.376   8.479  20.032  0.00  0.00    +0.000 N 
ATOM     19  C   UNL     1       0.858   9.773  20.082  0.00  0.00    +0.000 A 
ATOM     20  C   UNL     1       1.068  10.602  19.044  0.00  0.00    +0.000 A 
ATOM     21  C   UNL     1       1.835  10.124  17.903  0.00  0.00    +0.000 A 
ATOM     22  C   UNL     1       2.330   8.871  17.864  0.00  0.00    +0.000 A 
ATOM     23  C   UNL     1       2.104   7.985  18.956  0.00  0.00    +0.000 A 
ATOM     24  N   UNL     1       2.460   6.734  19.148  0.00  0.00    +0.000 NA
ENDBRANCH  15  16
ENDBRANCH  14  15
ENDBRANCH   1  14
TORSDOF 5
ENDMDL
MODEL 7
REMARK VINA RESULT:      -7.1      1.054      1.534
REMARK  Name = 
REMARK  7 active torsions:
REMARK  status: ('A' for Active; 'I' for Inactive)
REMARK    1  A    between atoms: C_1  and  C_2
REMARK    2  A    between atoms: N_4  and  S_5
REMARK    3  A    between atoms: S_5  and  N_8
REMARK    4  A    between atoms: N_8  and  C_9
REMARK    5  A    between atoms: C_9  and  C_10
REMARK    6  A    between atoms: C_10  and  C_11
REMARK    7  A    between atoms: C_21  and  C_22
REMARK                            x       y       z     vdW  Elec       q    Type
REMARK                         _______ _______ _______ _____ _____    ______ ____
ROOT
ATOM      1  N   UNL     1       2.664   4.404  17.851  0.00  0.00    +0.000 NA
ATOM      2  H   UNL     1       1.875   3.805  17.609  0.00  0.00    +0.000 HD
ENDROOT
BRANCH   1   3
ATOM      3  S   UNL     1       3.973   3.443  18.308  0.00  0.00    +0.000 S 
ATOM      4  O   UNL     1       3.725   2.142  17.769  0.00  0.00    +0.000 OA
ATOM      5  O   UNL     1       4.219   3.658  19.723  0.00  0.00    +0.000 OA
BRANCH   3   9
ATOM      6  C   UNL     1       6.841   4.462  14.844  0.00  0.00    +0.000 C 
ATOM      7  C   UNL     1       5.942   5.515  15.490  0.00  0.00    +0.000 C 
ATOM      8  C   UNL     1       4.768   4.883  16.245  0.00  0.00    +0.000 C 
ATOM      9  N   UNL     1       5.247   4.161  17.467  0.00  0.00    +0.000 NA
ATOM     10  C   UNL     1       6.038   5.119  18.320  0.00  0.00    +0.000 C 
ATOM     11  C   UNL     1       7.182   5.760  17.516  0.00  0.00    +0.000 C 
ATOM     12  C   UNL     1       7.913   6.778  18.386  0.00  0.00    +0.000 C 
ATOM     13  O   UNL     1       6.689   6.413  16.335  0.00  0.00    +0.000 OA
ENDBRANCH   3   9
ENDBRANCH   1   3
BRANCH   1  14
ATOM     14  C   UNL     1       2.247   5.327  18.970  0.00  0.00    +0.000 C 
BRANCH  14  15
ATOM     15  C   UNL     1       2.695   6.769  18.748  0.00  0.00    +0.000 C 
BRANCH  15  16
ATOM     16  C   UNL     1       1.933   7.714  19.606  0.00  0.00    +0.000 A 
ATOM     17  C   UNL     1       1.545   7.596  20.924  0.00  0.00    +0.000 A 
ATOM     18  N   UNL     1       0.874   8.760  21.220  0.00  0.00    +0.000 N 
ATOM     19  C   UNL     1       0.262   9.165  22.406  0.00  0.00    +0.000 A 
ATOM     20  C   UNL     1      -0.340  10.367  22.454  0.00  0.00    +0.000 A 
ATOM     21  C   UNL     1      -0.328  11.211  21.267  0.00  0.00    +0.000 A 
ATOM     22  C   UNL     1       0.266  10.808  20.125  0.00  0.00    +0.000 A 
ATOM     23  C   UNL     1       0.897   9.534  20.065  0.00  0.00    +0.000 A 
ATOM     24  N   UNL     1       1.519   8.917  19.084  0.00  0.00    +0.000 NA
ENDBRANCH  15  16
ENDBRANCH  14  15
ENDBRANCH   1  14
TORSDOF 5
ENDMDL
MODEL 8
REMARK VINA RESULT:      -7.0      1.570      2.383
REMARK  Name = 
REMARK  7 active torsions:
REMARK  status: ('A' for Active; 'I' for Inactive)
REMARK    1  A    between atoms: C_1  and  C_2
REMARK    2  A    between atoms: N_4  and  S_5
REMARK    3  A    between atoms: S_5  and  N_8
REMARK    4  A    between atoms: N_8  and  C_9
REMARK    5  A    between atoms: C_9  and  C_10
REMARK    6  A    between atoms: C_10  and  C_11
REMARK    7  A    between atoms: C_21  and  C_22
REMARK                            x       y       z     vdW  Elec       q    Type
REMARK                         _______ _______ _______ _____ _____    ______ ____
ROOT
ATOM      1  N   UNL     1       2.781   7.228  17.522  0.00  0.00    +0.000 NA
ATOM      2  H   UNL     1       1.956   6.983  16.976  0.00  0.00    +0.000 HD
ENDROOT
BRANCH   1   3
ATOM      3  S   UNL     1       3.420   5.832  18.222  0.00  0.00    +0.000 S 
ATOM      4  O   UNL     1       2.797   4.728  17.561  0.00  0.00    +0.000 OA
ATOM      5  O   UNL     1       3.379   5.991  19.665  0.00  0.00    +0.000 OA
BRANCH   3   9
ATOM      6  C   UNL     1       7.931   6.765  18.415  0.00  0.00    +0.000 C 
ATOM      7  C   UNL     1       7.402   5.336  18.314  0.00  0.00    +0.000 C 
ATOM      8  C   UNL     1       5.935   5.234  18.746  0.00  0.00    +0.000 C 
ATOM      9  N   UNL     1       5.041   5.917  17.759  0.00  0.00    +0.000 NA
ATOM     10  C   UNL     1       5.284   5.330  16.392  0.00  0.00    +0.000 C 
ATOM     11  C   UNL     1       6.773   5.417  16.012  0.00  0.00    +0.000 C 
ATOM     12  C   UNL     1       6.995   4.747  14.660  0.00  0.00    +0.000 C 
ATOM     13  O   UNL     1       7.602   4.782  16.998  0.00  0.00    +0.000 OA
ENDBRANCH   3   9
ENDBRANCH   1   3
BRANCH   1  14
ATOM     14  C   UNL     1       2.385   8.234  18.574  0.00  0.00    +0.000 C 
BRANCH  14  15
ATOM     15  C   UNL     1       1.364   9.251  18.070  0.00  0.00    +0.000 C 
BRANCH  15  16
ATOM     16  C   UNL     1       0.610   9.868  19.193  0.00  0.00    +0.000 A 
ATOM     17  C   UNL     1      -0.213  10.974  19.204  0.00  0.00    +0.000 A 
ATOM     18  N   UNL     1      -0.656  11.095  20.500  0.00  0.00    +0.000 N 
ATOM     19  C   UNL     1      -1.502  12.044  21.073  0.00  0.00    +0.000 A 
ATOM     20  C   UNL     1      -1.795  11.954  22.383  0.00  0.00    +0.000 A 
ATOM     21  C   UNL     1      -1.225  10.862  23.160  0.00  0.00    +0.000 A 
ATOM     22  C   UNL     1      -0.407   9.951  22.596  0.00  0.00    +0.000 A 
ATOM     23  C   UNL     1      -0.086  10.047  21.212  0.00  0.00    +0.000 A 
ATOM     24  N   UNL     1       0.685   9.306  20.446  0.00  0.00    +0.000 NA
ENDBRANCH  15  16
ENDBRANCH  14  15
ENDBRANCH   1  14
TORSDOF 5
ENDMDL
MODEL 9
REMARK VINA RESULT:      -7.0      1.069      1.074
REMARK  Name = 
REMARK  7 active torsions:
REMARK  status: ('A' for Active; 'I' for Inactive)
REMARK    1  A    between atoms: C_1  and  C_2
REMARK    2  A    between atoms: N_4  and  S_5
REMARK    3  A    between atoms: S_5  and  N_8
REMARK    4  A    between atoms: N_8  and  C_9
REMARK    5  A    between atoms: C_9  and  C_10
REMARK    6  A    between atoms: C_10  and  C_11
REMARK    7  A    between atoms: C_21  and  C_22
REMARK                            x       y       z     vdW  Elec       q    Type
REMARK                         _______ _______ _______ _____ _____    ______ ____
ROOT
ATOM      1  N   UNL     1       2.356   5.573  18.187  0.00  0.00    +0.000 NA
ATOM      2  H   UNL     1       1.369   5.354  18.053  0.00  0.00    +0.000 HD
ENDROOT
BRANCH   1   3
ATOM      3  S   UNL     1       3.183   4.169  18.626  0.00  0.00    +0.000 S 
ATOM      4  O   UNL     1       2.522   3.088  17.964  0.00  0.00    +0.000 OA
ATOM      5  O   UNL     1       3.377   4.190  20.065  0.00  0.00    +0.000 OA
BRANCH   3   9
ATOM      6  C   UNL     1       6.500   4.243  15.424  0.00  0.00    +0.000 C 
ATOM      7  C   UNL     1       5.989   5.518  16.092  0.00  0.00    +0.000 C 
ATOM      8  C   UNL     1       4.608   5.320  16.727  0.00  0.00    +0.000 C 
ATOM      9  N   UNL     1       4.695   4.416  17.917  0.00  0.00    +0.000 NA
ATOM     10  C   UNL     1       5.703   4.978  18.885  0.00  0.00    +0.000 C 
ATOM     11  C   UNL     1       7.064   5.198  18.200  0.00  0.00    +0.000 C 
ATOM     12  C   UNL     1       8.036   5.838  19.185  0.00  0.00    +0.000 C 
ATOM     13  O   UNL     1       6.936   6.042  17.044  0.00  0.00    +0.000 OA
ENDBRANCH   3   9
ENDBRANCH   1   3
BRANCH   1  14
ATOM     14  C   UNL     1       2.478   6.633  19.253  0.00  0.00    +0.000 C 
BRANCH  14  15
ATOM     15  C   UNL     1       2.236   8.043  18.719  0.00  0.00    +0.000 C 
BRANCH  15  16
ATOM     16  C   UNL     1       1.417   8.850  19.662  0.00  0.00    +0.000 A 
ATOM     17  C   UNL     1       0.826  10.083  19.489  0.00  0.00    +0.000 A 
ATOM     18  N   UNL     1       0.184  10.357  20.674  0.00  0.00    +0.000 N 
ATOM     19  C   UNL     1      -0.562  11.474  21.052  0.00  0.00    +0.000 A 
ATOM     20  C   UNL     1      -1.101  11.514  22.283  0.00  0.00    +0.000 A 
ATOM     21  C   UNL     1      -0.896  10.386  23.181  0.00  0.00    +0.000 A 
ATOM     22  C   UNL     1      -0.173   9.312  22.806  0.00  0.00    +0.000 A 
ATOM     23  C   UNL     1       0.409   9.268  21.507  0.00  0.00    +0.000 A 
ATOM     24  N   UNL     1       1.156   8.358  20.920  0.00  0.00    +0.000 NA
ENDBRANCH  15  16
ENDBRANCH  14  15
ENDBRANCH   1  14
TORSDOF 5
ENDMDL
