MODEL 1
REMARK VINA RESULT:      -7.8      0.000      0.000
REMARK  Name = 
REMARK  10 active torsions:
REMARK  status: ('A' for Active; 'I' for Inactive)
REMARK    1  A    between atoms: C_1  and  O_2
REMARK    2  A    between atoms: O_2  and  C_3
REMARK    3  A    between atoms: C_3  and  C_5
REMARK    4  A    between atoms: C_5  and  C_6
REMARK    5  A    between atoms: C_5  and  C_9
REMARK    6  A    between atoms: C_6  and  C_7
REMARK    7  A    between atoms: C_9  and  N_10
REMARK    8  A    between atoms: C_9  and  C_21
REMARK    9  A    between atoms: N_13  and  C_14
REMARK   10  A    between atoms: C_14  and  C_15
REMARK                            x       y       z     vdW  Elec       q    Type
REMARK                         _______ _______ _______ _____ _____    ______ ____
ROOT
ATOM      1  C   UNL     1       3.329   5.588  18.662  0.00  0.00    +0.000 C 
ENDROOT
BRANCH   1   2
ATOM      2  N   UNL     1       2.751   6.728  19.385  0.00  0.00    +0.000 N 
ATOM      3  C   UNL     1       2.200   7.842  18.842  0.00  0.00    +0.000 C 
ATOM      4  O   UNL     1       2.297   8.171  17.661  0.00  0.00    +0.000 OA
ATOM      5  N   UNL     1       1.497   8.644  19.669  0.00  0.00    +0.000 N 
ATOM      6  H   UNL     1       2.878   6.719  20.384  0.00  0.00    +0.000 HD
ATOM      7  H   UNL     1       1.119   9.452  19.191  0.00  0.00    +0.000 HD
BRANCH   5   8
ATOM      8  C   UNL     1       1.436   8.618  21.109  0.00  0.00    +0.000 C 
BRANCH   8   9
ATOM      9  C   UNL     1       0.571   9.735  21.640  0.00  0.00    +0.000 A 
ATOM     10  C   UNL     1      -0.297   9.538  22.724  0.00  0.00    +0.000 A 
ATOM     11  C   UNL     1      -1.089  10.581  23.205  0.00  0.00    +0.000 A 
ATOM     12  C   UNL     1      -1.015  11.838  22.610  0.00  0.00    +0.000 A 
ATOM     13  C   UNL     1      -0.150  12.050  21.538  0.00  0.00    +0.000 A 
ATOM     14  C   UNL     1       0.643  11.007  21.055  0.00  0.00    +0.000 A 
ENDBRANCH   8   9
ENDBRANCH   5   8
ENDBRANCH   1   2
BRANCH   1  15
ATOM     15  C   UNL     1       4.823   5.810  18.387  0.00  0.00    +0.000 A 
ATOM     16  C   UNL     1       5.792   5.300  19.270  0.00  0.00    +0.000 A 
ATOM     17  C   UNL     1       7.143   5.636  19.122  0.00  0.00    +0.000 A 
ATOM     18  C   UNL     1       7.545   6.490  18.099  0.00  0.00    +0.000 A 
ATOM     19  C   UNL     1       6.608   6.959  17.185  0.00  0.00    +0.000 A 
ATOM     20  C   UNL     1       5.266   6.596  17.312  0.00  0.00    +0.000 A 
ENDBRANCH   1  15
BRANCH   1  21
ATOM     21  C   UNL     1       3.006   4.154  19.157  0.00  0.00    +0.000 C 
BRANCH  21  22
ATOM     22  C   UNL     1       2.755   3.114  18.049  0.00  0.00    +0.000 C 
ATOM     23  C   UNL     1       3.429   1.760  18.078  0.00  0.00    +0.000 C 
ATOM     24  O   UNL     1       1.947   3.317  17.134  0.00  0.00    +0.000 OA
ENDBRANCH  21  22
BRANCH  21  25
ATOM     25  C   UNL     1       1.917   4.141  20.225  0.00  0.00    +0.000 C 
ATOM     26  O   UNL     1       0.769   4.548  20.100  0.00  0.00    +0.000 OA
BRANCH  25  28
ATOM     27  C   UNL     1       1.792   2.428  21.840  0.00  0.00    +0.000 C 
ATOM     28  O   UNL     1       2.391   3.654  21.408  0.00  0.00    +0.000 OA
ENDBRANCH  25  28
ENDBRANCH  21  25
ENDBRANCH   1  21
TORSDOF 8
ENDMDL
MODEL 2
REMARK VINA RESULT:      -7.8      1.193      1.823
REMARK  Name = 
REMARK  10 active torsions:
REMARK  status: ('A' for Active; 'I' for Inactive)
REMARK    1  A    between atoms: C_1  and  O_2
REMARK    2  A    between atoms: O_2  and  C_3
REMARK    3  A    between atoms: C_3  and  C_5
REMARK    4  A    between atoms: C_5  and  C_6
REMARK    5  A    between atoms: C_5  and  C_9
REMARK    6  A    between atoms: C_6  and  C_7
REMARK    7  A    between atoms: C_9  and  N_10
REMARK    8  A    between atoms: C_9  and  C_21
REMARK    9  A    between atoms: N_13  and  C_14
REMARK   10  A    between atoms: C_14  and  C_15
REMARK                            x       y       z     vdW  Elec       q    Type
REMARK                         _______ _______ _______ _____ _____    ______ ____
ROOT
ATOM      1  C   UNL     1       3.506   5.102  18.171  0.00  0.00    +0.000 C 
ENDROOT
BRANCH   1   2
ATOM      2  N   UNL     1       2.934   6.199  18.962  0.00  0.00    +0.000 N 
ATOM      3  C   UNL     1       2.612   7.440  18.520  0.00  0.00    +0.000 C 
ATOM      4  O   UNL     1       2.955   7.913  17.438  0.00  0.00    +0.000 OA
ATOM      5  N   UNL     1       1.862   8.208  19.339  0.00  0.00    +0.000 N 
ATOM      6  H   UNL     1       2.877   6.036  19.955  0.00  0.00    +0.000 HD
ATOM      7  H   UNL     1       1.665   9.116  18.940  0.00  0.00    +0.000 HD
BRANCH   5   8
ATOM      8  C   UNL     1       1.541   7.993  20.727  0.00  0.00    +0.000 C 
BRANCH   8   9
ATOM      9  C   UNL     1       0.686   9.112  21.271  0.00  0.00    +0.000 A 
ATOM     10  C   UNL     1       0.335  10.216  20.479  0.00  0.00    +0.000 A 
ATOM     11  C   UNL     1      -0.458  11.242  20.995  0.00  0.00    +0.000 A 
ATOM     12  C   UNL     1      -0.916  11.170  22.308  0.00  0.00    +0.000 A 
ATOM     13  C   UNL     1      -0.581  10.074  23.102  0.00  0.00    +0.000 A 
ATOM     14  C   UNL     1       0.213   9.048  22.588  0.00  0.00    +0.000 A 
ENDBRANCH   8   9
ENDBRANCH   5   8
ENDBRANCH   1   2
BRANCH   1  15
ATOM     15  C   UNL     1       5.037   5.197  18.125  0.00  0.00    +0.000 A 
ATOM     16  C   UNL     1       5.746   4.725  17.005  0.00  0.00    +0.000 A 
ATOM     17  C   UNL     1       7.144   4.653  17.021  0.00  0.00    +0.000 A 
ATOM     18  C   UNL     1       7.854   5.042  18.154  0.00  0.00    +0.000 A 
ATOM     19  C   UNL     1       7.172   5.562  19.249  0.00  0.00    +0.000 A 
ATOM     20  C   UNL     1       5.780   5.666  19.220  0.00  0.00    +0.000 A 
ENDBRANCH   1  15
BRANCH   1  21
ATOM     21  C   UNL     1       2.991   3.660  18.419  0.00  0.00    +0.000 C 
BRANCH  21  22
ATOM     22  C   UNL     1       1.512   3.417  18.064  0.00  0.00    +0.000 C 
ATOM     23  C   UNL     1       0.736   2.276  18.683  0.00  0.00    +0.000 C 
ATOM     24  O   UNL     1       0.887   4.178  17.316  0.00  0.00    +0.000 OA
ENDBRANCH  21  22
BRANCH  21  25
ATOM     25  C   UNL     1       3.348   3.150  19.812  0.00  0.00    +0.000 C 
ATOM     26  O   UNL     1       3.972   2.132  20.077  0.00  0.00    +0.000 OA
BRANCH  25  28
ATOM     27  C   UNL     1       2.098   3.280  21.807  0.00  0.00    +0.000 C 
ATOM     28  O   UNL     1       2.830   3.959  20.782  0.00  0.00    +0.000 OA
ENDBRANCH  25  28
ENDBRANCH  21  25
ENDBRANCH   1  21
TORSDOF 8
ENDMDL
MODEL 3
REMARK VINA RESULT:      -7.7      0.940      1.442
REMARK  Name = 
REMARK  10 active torsions:
REMARK  status: ('A' for Active; 'I' for Inactive)
REMARK    1  A    between atoms: C_1  and  O_2
REMARK    2  A    between atoms: O_2  and  C_3
REMARK    3  A    between atoms: C_3  and  C_5
REMARK    4  A    between atoms: C_5  and  C_6
REMARK    5  A    between atoms: C_5  and  C_9
REMARK    6  A    between atoms: C_6  and  C_7
REMARK    7  A    between atoms: C_9  and  N_10
REMARK    8  A    between atoms: C_9  and  C_21
REMARK    9  A    between atoms: N_13  and  C_14
REMARK   10  A    between atoms: C_14  and  C_15
REMARK                            x       y       z     vdW  Elec       q    Type
REMARK                         _______ _______ _______ _____ _____    ______ ____
ROOT
ATOM      1  C   UNL     1       3.168   5.493  18.472  0.00  0.00    +0.000 C 
ENDROOT
BRANCH   1   2
ATOM      2  N   UNL     1       2.627   6.620  19.243  0.00  0.00    +0.000 N 
ATOM      3  C   UNL     1       2.285   7.843  18.766  0.00  0.00    +0.000 C 
ATOM      4  O   UNL     1       2.580   8.272  17.653  0.00  0.00    +0.000 OA
ATOM      5  N   UNL     1       1.568   8.642  19.585  0.00  0.00    +0.000 N 
ATOM      6  H   UNL     1       2.613   6.497  20.242  0.00  0.00    +0.000 HD
ATOM      7  H   UNL     1       1.352   9.534  19.159  0.00  0.00    +0.000 HD
BRANCH   5   8
ATOM      8  C   UNL     1       1.305   8.481  20.993  0.00  0.00    +0.000 C 
BRANCH   8   9
ATOM      9  C   UNL     1       0.384   9.562  21.504  0.00  0.00    +0.000 A 
ATOM     10  C   UNL     1      -0.187   9.494  22.784  0.00  0.00    +0.000 A 
ATOM     11  C   UNL     1      -1.035  10.502  23.242  0.00  0.00    +0.000 A 
ATOM     12  C   UNL     1      -1.316  11.596  22.428  0.00  0.00    +0.000 A 
ATOM     13  C   UNL     1      -0.749  11.680  21.157  0.00  0.00    +0.000 A 
ATOM     14  C   UNL     1       0.100  10.672  20.696  0.00  0.00    +0.000 A 
ENDBRANCH   8   9
ENDBRANCH   5   8
ENDBRANCH   1   2
BRANCH   1  15
ATOM     15  C   UNL     1       4.677   5.657  18.243  0.00  0.00    +0.000 A 
ATOM     16  C   UNL     1       5.182   5.870  16.948  0.00  0.00    +0.000 A 
ATOM     17  C   UNL     1       6.560   5.854  16.705  0.00  0.00    +0.000 A 
ATOM     18  C   UNL     1       7.454   5.617  17.746  0.00  0.00    +0.000 A 
ATOM     19  C   UNL     1       6.974   5.459  19.042  0.00  0.00    +0.000 A 
ATOM     20  C   UNL     1       5.601   5.510  19.290  0.00  0.00    +0.000 A 
ENDBRANCH   1  15
BRANCH   1  21
ATOM     21  C   UNL     1       2.765   4.053  18.882  0.00  0.00    +0.000 C 
BRANCH  21  22
ATOM     22  C   UNL     1       1.506   3.498  18.190  0.00  0.00    +0.000 C 
ATOM     23  C   UNL     1       0.779   2.290  18.740  0.00  0.00    +0.000 C 
ATOM     24  O   UNL     1       1.004   4.052  17.204  0.00  0.00    +0.000 OA
ENDBRANCH  21  22
BRANCH  21  25
ATOM     25  C   UNL     1       2.728   3.870  20.396  0.00  0.00    +0.000 C 
ATOM     26  O   UNL     1       2.270   4.658  21.213  0.00  0.00    +0.000 OA
BRANCH  25  28
ATOM     27  C   UNL     1       4.384   2.267  19.902  0.00  0.00    +0.000 C 
ATOM     28  O   UNL     1       3.332   2.705  20.768  0.00  0.00    +0.000 OA
ENDBRANCH  25  28
ENDBRANCH  21  25
ENDBRANCH   1  21
TORSDOF 8
ENDMDL
MODEL 4
REMARK VINA RESULT:      -7.6      2.546      4.990
REMARK  Name = 
REMARK  10 active torsions:
REMARK  status: ('A' for Active; 'I' for Inactive)
REMARK    1  A    between atoms: C_1  and  O_2
REMARK    2  A    between atoms: O_2  and  C_3
REMARK    3  A    between atoms: C_3  and  C_5
REMARK    4  A    between atoms: C_5  and  C_6
REMARK    5  A    between atoms: C_5  and  C_9
REMARK    6  A    between atoms: C_6  and  C_7
REMARK    7  A    between atoms: C_9  and  N_10
REMARK    8  A    between atoms: C_9  and  C_21
REMARK    9  A    between atoms: N_13  and  C_14
REMARK   10  A    between atoms: C_14  and  C_15
REMARK                            x       y       z     vdW  Elec       q    Type
REMARK                         _______ _______ _______ _____ _____    ______ ____
ROOT
ATOM      1  C   UNL     1       4.815   5.475  18.055  0.00  0.00    +0.000 C 
ENDROOT
BRANCH   1   2
ATOM      2  N   UNL     1       3.767   6.504  18.028  0.00  0.00    +0.000 N 
ATOM      3  C   UNL     1       2.870   6.777  19.008  0.00  0.00    +0.000 C 
ATOM      4  O   UNL     1       2.650   6.059  19.981  0.00  0.00    +0.000 OA
ATOM      5  N   UNL     1       2.168   7.924  18.894  0.00  0.00    +0.000 N 
ATOM      6  H   UNL     1       3.644   6.978  17.148  0.00  0.00    +0.000 HD
ATOM      7  H   UNL     1       1.521   8.056  19.661  0.00  0.00    +0.000 HD
BRANCH   5   8
ATOM      8  C   UNL     1       2.059   8.802  17.757  0.00  0.00    +0.000 C 
BRANCH   8   9
ATOM      9  C   UNL     1       1.388  10.102  18.131  0.00  0.00    +0.000 A 
ATOM     10  C   UNL     1       2.116  11.295  18.248  0.00  0.00    +0.000 A 
ATOM     11  C   UNL     1       1.480  12.489  18.592  0.00  0.00    +0.000 A 
ATOM     12  C   UNL     1       0.106  12.503  18.816  0.00  0.00    +0.000 A 
ATOM     13  C   UNL     1      -0.630  11.325  18.694  0.00  0.00    +0.000 A 
ATOM     14  C   UNL     1       0.004  10.130  18.350  0.00  0.00    +0.000 A 
ENDBRANCH   8   9
ENDBRANCH   5   8
ENDBRANCH   1   2
BRANCH   1  15
ATOM     15  C   UNL     1       4.205   4.073  18.200  0.00  0.00    +0.000 A 
ATOM     16  C   UNL     1       3.184   3.648  17.332  0.00  0.00    +0.000 A 
ATOM     17  C   UNL     1       2.508   2.443  17.557  0.00  0.00    +0.000 A 
ATOM     18  C   UNL     1       2.833   1.651  18.654  0.00  0.00    +0.000 A 
ATOM     19  C   UNL     1       3.877   2.030  19.492  0.00  0.00    +0.000 A 
ATOM     20  C   UNL     1       4.574   3.214  19.247  0.00  0.00    +0.000 A 
ENDBRANCH   1  15
BRANCH   1  21
ATOM     21  C   UNL     1       5.947   5.541  16.997  0.00  0.00    +0.000 C 
BRANCH  21  22
ATOM     22  C   UNL     1       7.187   6.357  17.407  0.00  0.00    +0.000 C 
ATOM     23  C   UNL     1       7.783   6.233  18.791  0.00  0.00    +0.000 C 
ATOM     24  O   UNL     1       7.780   7.091  16.607  0.00  0.00    +0.000 OA
ENDBRANCH  21  22
BRANCH  21  25
ATOM     25  C   UNL     1       5.427   5.926  15.615  0.00  0.00    +0.000 C 
ATOM     26  O   UNL     1       4.991   7.019  15.280  0.00  0.00    +0.000 OA
BRANCH  25  28
ATOM     27  C   UNL     1       6.728   4.585  14.178  0.00  0.00    +0.000 C 
ATOM     28  O   UNL     1       5.452   4.860  14.763  0.00  0.00    +0.000 OA
ENDBRANCH  25  28
ENDBRANCH  21  25
ENDBRANCH   1  21
TORSDOF 8
ENDMDL
MODEL 5
REMARK VINA RESULT:      -7.6      3.173      7.528
REMARK  Name = 
REMARK  10 active torsions:
REMARK  status: ('A' for Active; 'I' for Inactive)
REMARK    1  A    between atoms: C_1  and  O_2
REMARK    2  A    between atoms: O_2  and  C_3
REMARK    3  A    between atoms: C_3  and  C_5
REMARK    4  A    between atoms: C_5  and  C_6
REMARK    5  A    between atoms: C_5  and  C_9
REMARK    6  A    between atoms: C_6  and  C_7
REMARK    7  A    between atoms: C_9  and  N_10
REMARK    8  A    between atoms: C_9  and  C_21
REMARK    9  A    between atoms: N_13  and  C_14
REMARK   10  A    between atoms: C_14  and  C_15
REMARK                            x       y       z     vdW  Elec       q    Type
REMARK                         _______ _______ _______ _____ _____    ______ ____
ROOT
ATOM      1  C   UNL     1       3.639   5.034  19.212  0.00  0.00    +0.000 C 
ENDROOT
BRANCH   1   2
ATOM      2  N   UNL     1       4.390   5.174  17.957  0.00  0.00    +0.000 N 
ATOM      3  C   UNL     1       5.677   4.810  17.735  0.00  0.00    +0.000 C 
ATOM      4  O   UNL     1       6.485   4.509  18.611  0.00  0.00    +0.000 OA
ATOM      5  N   UNL     1       6.093   4.782  16.451  0.00  0.00    +0.000 N 
ATOM      6  H   UNL     1       3.926   5.689  17.227  0.00  0.00    +0.000 HD
ATOM      7  H   UNL     1       7.062   4.502  16.367  0.00  0.00    +0.000 HD
BRANCH   5   8
ATOM      8  C   UNL     1       5.436   5.309  15.282  0.00  0.00    +0.000 C 
BRANCH   8   9
ATOM      9  C   UNL     1       5.989   4.694  14.019  0.00  0.00    +0.000 A 
ATOM     10  C   UNL     1       7.242   5.068  13.509  0.00  0.00    +0.000 A 
ATOM     11  C   UNL     1       7.740   4.488  12.342  0.00  0.00    +0.000 A 
ATOM     12  C   UNL     1       6.994   3.520  11.676  0.00  0.00    +0.000 A 
ATOM     13  C   UNL     1       5.752   3.133  12.177  0.00  0.00    +0.000 A 
ATOM     14  C   UNL     1       5.251   3.712  13.344  0.00  0.00    +0.000 A 
ENDBRANCH   8   9
ENDBRANCH   5   8
ENDBRANCH   1   2
BRANCH   1  15
ATOM     15  C   UNL     1       2.737   6.254  19.452  0.00  0.00    +0.000 A 
ATOM     16  C   UNL     1       2.646   7.272  18.486  0.00  0.00    +0.000 A 
ATOM     17  C   UNL     1       1.962   8.462  18.763  0.00  0.00    +0.000 A 
ATOM     18  C   UNL     1       1.368   8.657  20.007  0.00  0.00    +0.000 A 
ATOM     19  C   UNL     1       1.402   7.638  20.953  0.00  0.00    +0.000 A 
ATOM     20  C   UNL     1       2.055   6.438  20.665  0.00  0.00    +0.000 A 
ENDBRANCH   1  15
BRANCH   1  21
ATOM     21  C   UNL     1       2.933   3.686  19.508  0.00  0.00    +0.000 C 
BRANCH  21  22
ATOM     22  C   UNL     1       3.838   2.441  19.454  0.00  0.00    +0.000 C 
ATOM     23  C   UNL     1       3.684   1.408  18.360  0.00  0.00    +0.000 C 
ATOM     24  O   UNL     1       4.763   2.271  20.258  0.00  0.00    +0.000 OA
ENDBRANCH  21  22
BRANCH  21  25
ATOM     25  C   UNL     1       1.653   3.511  18.696  0.00  0.00    +0.000 C 
ATOM     26  O   UNL     1       1.461   3.891  17.549  0.00  0.00    +0.000 OA
BRANCH  25  28
ATOM     27  C   UNL     1       0.883   2.940  20.850  0.00  0.00    +0.000 C 
ATOM     28  O   UNL     1       0.679   2.903  19.434  0.00  0.00    +0.000 OA
ENDBRANCH  25  28
ENDBRANCH  21  25
ENDBRANCH   1  21
TORSDOF 8
ENDMDL
MODEL 6
REMARK VINA RESULT:      -7.5      0.352      1.354
REMARK  Name = 
REMARK  10 active torsions:
REMARK  status: ('A' for Active; 'I' for Inactive)
REMARK    1  A    between atoms: C_1  and  O_2
REMARK    2  A    between atoms: O_2  and  C_3
REMARK    3  A    between atoms: C_3  and  C_5
REMARK    4  A    between atoms: C_5  and  C_6
REMARK    5  A    between atoms: C_5  and  C_9
REMARK    6  A    between atoms: C_6  and  C_7
REMARK    7  A    between atoms: C_9  and  N_10
REMARK    8  A    between atoms: C_9  and  C_21
REMARK    9  A    between atoms: N_13  and  C_14
REMARK   10  A    between atoms: C_14  and  C_15
REMARK                            x       y       z     vdW  Elec       q    Type
REMARK                         _______ _______ _______ _____ _____    ______ ____
ROOT
ATOM      1  C   UNL     1       3.261   5.485  18.604  0.00  0.00    +0.000 C 
ENDROOT
BRANCH   1   2
ATOM      2  N   UNL     1       2.661   6.601  19.347  0.00  0.00    +0.000 N 
ATOM      3  C   UNL     1       2.275   7.800  18.843  0.00  0.00    +0.000 C 
ATOM      4  O   UNL     1       2.570   8.222  17.727  0.00  0.00    +0.000 OA
ATOM      5  N   UNL     1       1.513   8.581  19.637  0.00  0.00    +0.000 N 
ATOM      6  H   UNL     1       2.637   6.494  20.348  0.00  0.00    +0.000 HD
ATOM      7  H   UNL     1       1.267   9.456  19.192  0.00  0.00    +0.000 HD
BRANCH   5   8
ATOM      8  C   UNL     1       1.236   8.434  21.044  0.00  0.00    +0.000 C 
BRANCH   8   9
ATOM      9  C   UNL     1       0.381   9.569  21.554  0.00  0.00    +0.000 A 
ATOM     10  C   UNL     1       0.201  10.743  20.808  0.00  0.00    +0.000 A 
ATOM     11  C   UNL     1      -0.594  11.783  21.293  0.00  0.00    +0.000 A 
ATOM     12  C   UNL     1      -1.224  11.656  22.527  0.00  0.00    +0.000 A 
ATOM     13  C   UNL     1      -1.060  10.490  23.275  0.00  0.00    +0.000 A 
ATOM     14  C   UNL     1      -0.265   9.449  22.792  0.00  0.00    +0.000 A 
ENDBRANCH   8   9
ENDBRANCH   5   8
ENDBRANCH   1   2
BRANCH   1  15
ATOM     15  C   UNL     1       4.738   5.762  18.292  0.00  0.00    +0.000 A 
ATOM     16  C   UNL     1       5.135   6.128  16.993  0.00  0.00    +0.000 A 
ATOM     17  C   UNL     1       6.491   6.220  16.657  0.00  0.00    +0.000 A 
ATOM     18  C   UNL     1       7.469   5.941  17.607  0.00  0.00    +0.000 A 
ATOM     19  C   UNL     1       7.095   5.631  18.911  0.00  0.00    +0.000 A 
ATOM     20  C   UNL     1       5.743   5.573  19.254  0.00  0.00    +0.000 A 
ENDBRANCH   1  15
BRANCH   1  21
ATOM     21  C   UNL     1       3.003   4.038  19.101  0.00  0.00    +0.000 C 
BRANCH  21  22
ATOM     22  C   UNL     1       2.767   2.993  17.996  0.00  0.00    +0.000 C 
ATOM     23  C   UNL     1       3.357   1.603  18.092  0.00  0.00    +0.000 C 
ATOM     24  O   UNL     1       2.036   3.223  17.024  0.00  0.00    +0.000 OA
ENDBRANCH  21  22
BRANCH  21  25
ATOM     25  C   UNL     1       1.940   3.982  20.194  0.00  0.00    +0.000 C 
ATOM     26  O   UNL     1       0.806   4.438  20.130  0.00  0.00    +0.000 OA
BRANCH  25  28
ATOM     27  C   UNL     1       1.534   2.451  21.939  0.00  0.00    +0.000 C 
ATOM     28  O   UNL     1       2.423   3.388  21.323  0.00  0.00    +0.000 OA
ENDBRANCH  25  28
ENDBRANCH  21  25
ENDBRANCH   1  21
TORSDOF 8
ENDMDL
MODEL 7
REMARK VINA RESULT:      -7.5      3.188      8.004
REMARK  Name = 
REMARK  10 active torsions:
REMARK  status: ('A' for Active; 'I' for Inactive)
REMARK    1  A    between atoms: C_1  and  O_2
REMARK    2  A    between atoms: O_2  and  C_3
REMARK    3  A    between atoms: C_3  and  C_5
REMARK    4  A    between atoms: C_5  and  C_6
REMARK    5  A    between atoms: C_5  and  C_9
REMARK    6  A    between atoms: C_6  and  C_7
REMARK    7  A    between atoms: C_9  and  N_10
REMARK    8  A    between atoms: C_9  and  C_21
REMARK    9  A    between atoms: N_13  and  C_14
REMARK   10  A    between atoms: C_14  and  C_15
REMARK                            x       y       z     vdW  Elec       q    Type
REMARK                         _______ _______ _______ _____ _____    ______ ____
ROOT
ATOM      1  C   UNL     1       0.337  10.646  19.284  0.00  0.00    +0.000 C 
ENDROOT
BRANCH   1   2
ATOM      2  N   UNL     1       0.936   9.307  19.345  0.00  0.00    +0.000 N 
ATOM      3  C   UNL     1       1.820   8.771  18.467  0.00  0.00    +0.000 C 
ATOM      4  O   UNL     1       2.089   9.241  17.363  0.00  0.00    +0.000 OA
ATOM      5  N   UNL     1       2.445   7.635  18.842  0.00  0.00    +0.000 N 
ATOM      6  H   UNL     1       0.567   8.696  20.054  0.00  0.00    +0.000 HD
ATOM      7  H   UNL     1       3.087   7.299  18.136  0.00  0.00    +0.000 HD
BRANCH   5   8
ATOM      8  C   UNL     1       2.141   6.767  19.951  0.00  0.00    +0.000 C 
BRANCH   8   9
ATOM      9  C   UNL     1       1.826   5.367  19.480  0.00  0.00    +0.000 A 
ATOM     10  C   UNL     1       1.222   4.427  20.328  0.00  0.00    +0.000 A 
ATOM     11  C   UNL     1       0.936   3.138  19.877  0.00  0.00    +0.000 A 
ATOM     12  C   UNL     1       1.243   2.778  18.568  0.00  0.00    +0.000 A 
ATOM     13  C   UNL     1       1.835   3.706  17.712  0.00  0.00    +0.000 A 
ATOM     14  C   UNL     1       2.123   4.996  18.162  0.00  0.00    +0.000 A 
ENDBRANCH   8   9
ENDBRANCH   5   8
ENDBRANCH   1   2
BRANCH   1  15
ATOM     15  C   UNL     1      -1.036  10.604  18.596  0.00  0.00    +0.000 A 
ATOM     16  C   UNL     1      -1.246   9.778  17.478  0.00  0.00    +0.000 A 
ATOM     17  C   UNL     1      -2.435   9.855  16.744  0.00  0.00    +0.000 A 
ATOM     18  C   UNL     1      -3.427  10.761  17.109  0.00  0.00    +0.000 A 
ATOM     19  C   UNL     1      -3.259  11.547  18.244  0.00  0.00    +0.000 A 
ATOM     20  C   UNL     1      -2.087  11.445  18.996  0.00  0.00    +0.000 A 
ENDBRANCH   1  15
BRANCH   1  21
ATOM     21  C   UNL     1       0.351  11.525  20.563  0.00  0.00    +0.000 C 
BRANCH  21  22
ATOM     22  C   UNL     1       1.374  12.676  20.561  0.00  0.00    +0.000 C 
ATOM     23  C   UNL     1       2.184  13.002  19.326  0.00  0.00    +0.000 C 
ATOM     24  O   UNL     1       1.526  13.416  21.540  0.00  0.00    +0.000 OA
ENDBRANCH  21  22
BRANCH  21  25
ATOM     25  C   UNL     1       0.415  10.690  21.838  0.00  0.00    +0.000 C 
ATOM     26  O   UNL     1       1.403  10.127  22.291  0.00  0.00    +0.000 OA
BRANCH  25  28
ATOM     27  C   UNL     1      -1.426  11.837  22.760  0.00  0.00    +0.000 C 
ATOM     28  O   UNL     1      -0.813  10.589  22.424  0.00  0.00    +0.000 OA
ENDBRANCH  25  28
ENDBRANCH  21  25
ENDBRANCH   1  21
TORSDOF 8
ENDMDL
MODEL 8
REMARK VINA RESULT:      -7.5      2.585      4.859
REMARK  Name = 
REMARK  10 active torsions:
REMARK  status: ('A' for Active; 'I' for Inactive)
REMARK    1  A    between atoms: C_1  and  O_2
REMARK    2  A    between atoms: O_2  and  C_3
REMARK    3  A    between atoms: C_3  and  C_5
REMARK    4  A    between atoms: C_5  and  C_6
REMARK    5  A    between atoms: C_5  and  C_9
REMARK    6  A    between atoms: C_6  and  C_7
REMARK    7  A    between atoms: C_9  and  N_10
REMARK    8  A    between atoms: C_9  and  C_21
REMARK    9  A    between atoms: N_13  and  C_14
REMARK   10  A    between atoms: C_14  and  C_15
REMARK                            x       y       z     vdW  Elec       q    Type
REMARK                         _______ _______ _______ _____ _____    ______ ____
ROOT
ATOM      1  C   UNL     1       4.841   5.617  18.162  0.00  0.00    +0.000 C 
ENDROOT
BRANCH   1   2
ATOM      2  N   UNL     1       3.768   6.618  18.127  0.00  0.00    +0.000 N 
ATOM      3  C   UNL     1       2.846   6.856  19.093  0.00  0.00    +0.000 C 
ATOM      4  O   UNL     1       2.628   6.121  20.055  0.00  0.00    +0.000 OA
ATOM      5  N   UNL     1       2.116   7.986  18.980  0.00  0.00    +0.000 N 
ATOM      6  H   UNL     1       3.648   7.098  17.251  0.00  0.00    +0.000 HD
ATOM      7  H   UNL     1       1.452   8.092  19.736  0.00  0.00    +0.000 HD
BRANCH   5   8
ATOM      8  C   UNL     1       2.004   8.873  17.850  0.00  0.00    +0.000 C 
BRANCH   8   9
ATOM      9  C   UNL     1       0.989   9.961  18.106  0.00  0.00    +0.000 A 
ATOM     10  C   UNL     1      -0.377   9.762  17.852  0.00  0.00    +0.000 A 
ATOM     11  C   UNL     1      -1.303  10.777  18.097  0.00  0.00    +0.000 A 
ATOM     12  C   UNL     1      -0.875  11.999  18.607  0.00  0.00    +0.000 A 
ATOM     13  C   UNL     1       0.478  12.205  18.872  0.00  0.00    +0.000 A 
ATOM     14  C   UNL     1       1.407  11.192  18.628  0.00  0.00    +0.000 A 
ENDBRANCH   8   9
ENDBRANCH   5   8
ENDBRANCH   1   2
BRANCH   1  15
ATOM     15  C   UNL     1       4.265   4.194  18.208  0.00  0.00    +0.000 A 
ATOM     16  C   UNL     1       3.267   3.801  17.298  0.00  0.00    +0.000 A 
ATOM     17  C   UNL     1       2.618   2.568  17.436  0.00  0.00    +0.000 A 
ATOM     18  C   UNL     1       2.949   1.714  18.485  0.00  0.00    +0.000 A 
ATOM     19  C   UNL     1       3.971   2.064  19.361  0.00  0.00    +0.000 A 
ATOM     20  C   UNL     1       4.642   3.278  19.203  0.00  0.00    +0.000 A 
ENDBRANCH   1  15
BRANCH   1  21
ATOM     21  C   UNL     1       6.025   5.763  17.170  0.00  0.00    +0.000 C 
BRANCH  21  22
ATOM     22  C   UNL     1       7.225   6.576  17.691  0.00  0.00    +0.000 C 
ATOM     23  C   UNL     1       7.956   6.173  18.952  0.00  0.00    +0.000 C 
ATOM     24  O   UNL     1       7.676   7.546  17.069  0.00  0.00    +0.000 OA
ENDBRANCH  21  22
BRANCH  21  25
ATOM     25  C   UNL     1       5.569   6.218  15.787  0.00  0.00    +0.000 C 
ATOM     26  O   UNL     1       4.741   7.085  15.542  0.00  0.00    +0.000 OA
BRANCH  25  28
ATOM     27  C   UNL     1       6.210   4.077  15.037  0.00  0.00    +0.000 C 
ATOM     28  O   UNL     1       6.172   5.488  14.804  0.00  0.00    +0.000 OA
ENDBRANCH  25  28
ENDBRANCH  21  25
ENDBRANCH   1  21
TORSDOF 8
ENDMDL
MODEL 9
REMARK VINA RESULT:      -7.5      0.616      1.128
REMARK  Name = 
REMARK  10 active torsions:
REMARK  status: ('A' for Active; 'I' for Inactive)
REMARK    1  A    between atoms: C_1  and  O_2
REMARK    2  A    between atoms: O_2  and  C_3
REMARK    3  A    between atoms: C_3  and  C_5
REMARK    4  A    between atoms: C_5  and  C_6
REMARK    5  A    between atoms: C_5  and  C_9
REMARK    6  A    between atoms: C_6  and  C_7
REMARK    7  A    between atoms: C_9  and  N_10
REMARK    8  A    between atoms: C_9  and  C_21
REMARK    9  A    between atoms: N_13  and  C_14
REMARK   10  A    between atoms: C_14  and  C_15
REMARK                            x       y       z     vdW  Elec       q    Type
REMARK                         _______ _______ _______ _____ _____    ______ ____
ROOT
ATOM      1  C   UNL     1       3.050   5.863  18.587  0.00  0.00    +0.000 C 
ENDROOT
BRANCH   1   2
ATOM      2  N   UNL     1       2.560   7.037  19.322  0.00  0.00    +0.000 N 
ATOM      3  C   UNL     1       2.054   8.177  18.789  0.00  0.00    +0.000 C 
ATOM      4  O   UNL     1       2.131   8.495  17.604  0.00  0.00    +0.000 OA
ATOM      5  N   UNL     1       1.424   9.021  19.633  0.00  0.00    +0.000 N 
ATOM      6  H   UNL     1       2.718   7.025  20.316  0.00  0.00    +0.000 HD
ATOM      7  H   UNL     1       1.075   9.846  19.162  0.00  0.00    +0.000 HD
BRANCH   5   8
ATOM      8  C   UNL     1       1.407   9.004  21.074  0.00  0.00    +0.000 C 
BRANCH   8   9
ATOM      9  C   UNL     1       0.507  10.085  21.623  0.00  0.00    +0.000 A 
ATOM     10  C   UNL     1       0.495  11.377  21.076  0.00  0.00    +0.000 A 
ATOM     11  C   UNL     1      -0.344  12.364  21.593  0.00  0.00    +0.000 A 
ATOM     12  C   UNL     1      -1.188  12.068  22.659  0.00  0.00    +0.000 A 
ATOM     13  C   UNL     1      -1.193  10.785  23.206  0.00  0.00    +0.000 A 
ATOM     14  C   UNL     1      -0.353   9.796  22.691  0.00  0.00    +0.000 A 
ENDBRANCH   8   9
ENDBRANCH   5   8
ENDBRANCH   1   2
BRANCH   1  15
ATOM     15  C   UNL     1       4.566   5.949  18.361  0.00  0.00    +0.000 A 
ATOM     16  C   UNL     1       5.455   5.331  19.259  0.00  0.00    +0.000 A 
ATOM     17  C   UNL     1       6.835   5.541  19.158  0.00  0.00    +0.000 A 
ATOM     18  C   UNL     1       7.348   6.375  18.168  0.00  0.00    +0.000 A 
ATOM     19  C   UNL     1       6.487   6.950  17.239  0.00  0.00    +0.000 A 
ATOM     20  C   UNL     1       5.114   6.713  17.319  0.00  0.00    +0.000 A 
ENDBRANCH   1  15
BRANCH   1  21
ATOM     21  C   UNL     1       2.579   4.456  19.038  0.00  0.00    +0.000 C 
BRANCH  21  22
ATOM     22  C   UNL     1       2.013   3.560  17.920  0.00  0.00    +0.000 C 
ATOM     23  C   UNL     1       2.592   2.190  17.646  0.00  0.00    +0.000 C 
ATOM     24  O   UNL     1       1.027   3.894  17.251  0.00  0.00    +0.000 OA
ENDBRANCH  21  22
BRANCH  21  25
ATOM     25  C   UNL     1       1.664   4.514  20.257  0.00  0.00    +0.000 C 
ATOM     26  O   UNL     1       1.407   5.505  20.928  0.00  0.00    +0.000 OA
BRANCH  25  28
ATOM     27  C   UNL     1       1.899   2.586  21.593  0.00  0.00    +0.000 C 
ATOM     28  O   UNL     1       1.177   3.278  20.569  0.00  0.00    +0.000 OA
ENDBRANCH  25  28
ENDBRANCH  21  25
ENDBRANCH   1  21
TORSDOF 8
ENDMDL
