MODEL 1
REMARK VINA RESULT:      -8.4      0.000      0.000
REMARK  Name = 
REMARK  6 active torsions:
REMARK  status: ('A' for Active; 'I' for Inactive)
REMARK    1  A    between atoms: C_4  and  N_5
REMARK    2  A    between atoms: N_8  and  C_9
REMARK    3  A    between atoms: C_12  and  S_13
REMARK    4  A    between atoms: S_13  and  N_16
REMARK    5  A    between atoms: N_28  and  C_29
REMARK    6  A    between atoms: C_29  and  C_30
REMARK                            x       y       z     vdW  Elec       q    Type
REMARK                         _______ _______ _______ _____ _____    ______ ____
ROOT
ATOM      1  N   UNL     1       0.289  11.836  21.677  0.00  0.00    +0.000 NA
ATOM      2  C   UNL     1       0.492  10.521  22.343  0.00  0.00    +0.000 C 
ATOM      3  C   UNL     1       0.072   9.295  21.505  0.00  0.00    +0.000 C 
ATOM      4  N   UNL     1       0.590   9.327  20.118  0.00  0.00    +0.000 N 
ATOM      5  C   UNL     1       0.796  10.632  19.458  0.00  0.00    +0.000 C 
ATOM      6  C   UNL     1       1.114  11.778  20.448  0.00  0.00    +0.000 C 
ENDROOT
BRANCH   1  10
ATOM      7  O   UNL     1      -2.123  15.542  21.673  0.00  0.00    +0.000 OA
ATOM      8  C   UNL     1      -1.911  14.347  21.824  0.00  0.00    +0.000 C 
ATOM      9  C   UNL     1      -1.457  13.434  20.725  0.00  0.00    +0.000 C 
ATOM     10  C   UNL     1      -1.154  12.104  21.421  0.00  0.00    +0.000 C 
ATOM     11  C   UNL     1      -1.909  12.281  22.743  0.00  0.00    +0.000 C 
ATOM     12  O   UNL     1      -2.239  11.368  23.490  0.00  0.00    +0.000 OA
ATOM     13  N   UNL     1      -2.166  13.606  22.936  0.00  0.00    +0.000 N 
BRANCH  13  14
ATOM     14  C   UNL     1      -2.821  14.128  24.115  0.00  0.00    +0.000 C 
BRANCH  14  15
ATOM     15  C   UNL     1      -4.321  14.221  23.968  0.00  0.00    +0.000 A 
ATOM     16  C   UNL     1      -4.940  15.461  23.753  0.00  0.00    +0.000 A 
ATOM     17  C   UNL     1      -6.318  15.536  23.533  0.00  0.00    +0.000 A 
ATOM     18  C   UNL     1      -7.089  14.376  23.537  0.00  0.00    +0.000 A 
ATOM     19  C   UNL     1      -6.490  13.143  23.788  0.00  0.00    +0.000 A 
ATOM     20  C   UNL     1      -5.114  13.066  24.012  0.00  0.00    +0.000 A 
ENDBRANCH  14  15
ENDBRANCH  13  14
ENDBRANCH   1  10
BRANCH   4  21
ATOM     21  C   UNL     1       1.416   8.289  19.679  0.00  0.00    +0.000 A 
ATOM     22  C   UNL     1       1.608   7.136  20.465  0.00  0.00    +0.000 A 
ATOM     23  C   UNL     1       2.410   6.081  20.010  0.00  0.00    +0.000 A 
ATOM     24  C   UNL     1       3.011   6.152  18.757  0.00  0.00    +0.000 A 
ATOM     25  C   UNL     1       2.872   7.309  17.995  0.00  0.00    +0.000 A 
ATOM     26  C   UNL     1       2.067   8.355  18.447  0.00  0.00    +0.000 A 
BRANCH  24  27
ATOM     27  S   UNL     1       4.088   4.873  18.150  0.00  0.00    +0.000 S 
ATOM     28  O   UNL     1       4.581   4.156  19.300  0.00  0.00    +0.000 OA
ATOM     29  O   UNL     1       3.390   4.195  17.084  0.00  0.00    +0.000 OA
BRANCH  27  30
ATOM     30  N   UNL     1       5.414   5.676  17.464  0.00  0.00    +0.000 NA
ATOM     31  C   UNL     1       5.635   5.674  15.999  0.00  0.00    +0.000 C 
ATOM     32  C   UNL     1       6.648   4.596  15.598  0.00  0.00    +0.000 C 
ATOM     33  O   UNL     1       7.867   4.673  16.351  0.00  0.00    +0.000 OA
ATOM     34  C   UNL     1       7.655   4.680  17.770  0.00  0.00    +0.000 C 
ATOM     35  C   UNL     1       6.693   5.785  18.198  0.00  0.00    +0.000 C 
ENDBRANCH  27  30
ENDBRANCH  24  27
ENDBRANCH   4  21
TORSDOF 6
ENDMDL
MODEL 2
REMARK VINA RESULT:      -8.2      1.615      2.666
REMARK  Name = 
REMARK  6 active torsions:
REMARK  status: ('A' for Active; 'I' for Inactive)
REMARK    1  A    between atoms: C_4  and  N_5
REMARK    2  A    between atoms: N_8  and  C_9
REMARK    3  A    between atoms: C_12  and  S_13
REMARK    4  A    between atoms: S_13  and  N_16
REMARK    5  A    between atoms: N_28  and  C_29
REMARK    6  A    between atoms: C_29  and  C_30
REMARK                            x       y       z     vdW  Elec       q    Type
REMARK                         _______ _______ _______ _____ _____    ______ ____
ROOT
ATOM      1  N   UNL     1       0.598  11.435  21.258  0.00  0.00    +0.000 NA
ATOM      2  C   UNL     1       0.998  10.218  22.014  0.00  0.00    +0.000 C 
ATOM      3  C   UNL     1       0.634   8.881  21.335  0.00  0.00    +0.000 C 
ATOM      4  N   UNL     1       1.015   8.825  19.905  0.00  0.00    +0.000 N 
ATOM      5  C   UNL     1       1.021  10.073  19.114  0.00  0.00    +0.000 C 
ATOM      6  C   UNL     1       1.307  11.336  19.961  0.00  0.00    +0.000 C 
ENDROOT
BRANCH   1  10
ATOM      7  O   UNL     1      -2.149  14.875  20.842  0.00  0.00    +0.000 OA
ATOM      8  C   UNL     1      -1.809  13.753  21.188  0.00  0.00    +0.000 C 
ATOM      9  C   UNL     1      -1.381  12.678  20.234  0.00  0.00    +0.000 C 
ATOM     10  C   UNL     1      -0.882  11.538  21.127  0.00  0.00    +0.000 C 
ATOM     11  C   UNL     1      -1.515  11.915  22.471  0.00  0.00    +0.000 C 
ATOM     12  O   UNL     1      -1.677  11.145  23.410  0.00  0.00    +0.000 OA
ATOM     13  N   UNL     1      -1.877  13.228  22.441  0.00  0.00    +0.000 N 
BRANCH  13  14
ATOM     14  C   UNL     1      -2.458  13.921  23.570  0.00  0.00    +0.000 C 
BRANCH  14  15
ATOM     15  C   UNL     1      -3.968  13.884  23.577  0.00  0.00    +0.000 A 
ATOM     16  C   UNL     1      -4.650  12.767  24.082  0.00  0.00    +0.000 A 
ATOM     17  C   UNL     1      -6.045  12.768  24.166  0.00  0.00    +0.000 A 
ATOM     18  C   UNL     1      -6.769  13.878  23.738  0.00  0.00    +0.000 A 
ATOM     19  C   UNL     1      -6.103  14.979  23.200  0.00  0.00    +0.000 A 
ATOM     20  C   UNL     1      -4.710  14.978  23.110  0.00  0.00    +0.000 A 
ENDBRANCH  14  15
ENDBRANCH  13  14
ENDBRANCH   1  10
BRANCH   4  21
ATOM     21  C   UNL     1       1.900   7.833  19.478  0.00  0.00    +0.000 A 
ATOM     22  C   UNL     1       2.539   7.923  18.227  0.00  0.00    +0.000 A 
ATOM     23  C   UNL     1       3.453   6.944  17.813  0.00  0.00    +0.000 A 
ATOM     24  C   UNL     1       3.758   5.876  18.652  0.00  0.00    +0.000 A 
ATOM     25  C   UNL     1       3.092   5.749  19.867  0.00  0.00    +0.000 A 
ATOM     26  C   UNL     1       2.189   6.728  20.280  0.00  0.00    +0.000 A 
BRANCH  24  27
ATOM     27  S   UNL     1       4.863   4.572  18.158  0.00  0.00    +0.000 S 
ATOM     28  O   UNL     1       5.385   4.929  16.863  0.00  0.00    +0.000 OA
ATOM     29  O   UNL     1       5.738   4.305  19.275  0.00  0.00    +0.000 OA
BRANCH  27  30
ATOM     30  N   UNL     1       3.886   3.203  17.936  0.00  0.00    +0.000 NA
ATOM     31  C   UNL     1       2.640   3.275  17.137  0.00  0.00    +0.000 C 
ATOM     32  C   UNL     1       1.416   3.453  18.043  0.00  0.00    +0.000 C 
ATOM     33  O   UNL     1       1.356   2.475  19.092  0.00  0.00    +0.000 OA
ATOM     34  C   UNL     1       2.564   2.400  19.863  0.00  0.00    +0.000 C 
ATOM     35  C   UNL     1       3.790   2.166  18.985  0.00  0.00    +0.000 C 
ENDBRANCH  27  30
ENDBRANCH  24  27
ENDBRANCH   4  21
TORSDOF 6
ENDMDL
MODEL 3
REMARK VINA RESULT:      -8.2      1.670      2.572
REMARK  Name = 
REMARK  6 active torsions:
REMARK  status: ('A' for Active; 'I' for Inactive)
REMARK    1  A    between atoms: C_4  and  N_5
REMARK    2  A    between atoms: N_8  and  C_9
REMARK    3  A    between atoms: C_12  and  S_13
REMARK    4  A    between atoms: S_13  and  N_16
REMARK    5  A    between atoms: N_28  and  C_29
REMARK    6  A    between atoms: C_29  and  C_30
REMARK                            x       y       z     vdW  Elec       q    Type
REMARK                         _______ _______ _______ _____ _____    ______ ____
ROOT
ATOM      1  N   UNL     1      -0.190  12.073  22.015  0.00  0.00    +0.000 NA
ATOM      2  C   UNL     1      -0.070  10.664  22.478  0.00  0.00    +0.000 C 
ATOM      3  C   UNL     1      -0.376   9.598  21.405  0.00  0.00    +0.000 C 
ATOM      4  N   UNL     1       0.314   9.845  20.118  0.00  0.00    +0.000 N 
ATOM      5  C   UNL     1       0.599  11.236  19.712  0.00  0.00    +0.000 C 
ATOM      6  C   UNL     1       0.785  12.200  20.907  0.00  0.00    +0.000 C 
ENDROOT
BRANCH   1  10
ATOM      7  O   UNL     1      -2.505  15.839  22.065  0.00  0.00    +0.000 OA
ATOM      8  C   UNL     1      -2.338  14.630  22.135  0.00  0.00    +0.000 C 
ATOM      9  C   UNL     1      -1.783  13.798  21.019  0.00  0.00    +0.000 C 
ATOM     10  C   UNL     1      -1.588  12.405  21.626  0.00  0.00    +0.000 C 
ATOM     11  C   UNL     1      -2.483  12.496  22.868  0.00  0.00    +0.000 C 
ATOM     12  O   UNL     1      -2.914  11.535  23.494  0.00  0.00    +0.000 OA
ATOM     13  N   UNL     1      -2.731  13.807  23.145  0.00  0.00    +0.000 N 
BRANCH  13  14
ATOM     14  C   UNL     1      -3.503  14.250  24.285  0.00  0.00    +0.000 C 
BRANCH  14  15
ATOM     15  C   UNL     1      -4.984  14.326  24.006  0.00  0.00    +0.000 A 
ATOM     16  C   UNL     1      -5.786  13.178  24.092  0.00  0.00    +0.000 A 
ATOM     17  C   UNL     1      -7.169  13.265  23.916  0.00  0.00    +0.000 A 
ATOM     18  C   UNL     1      -7.762  14.496  23.644  0.00  0.00    +0.000 A 
ATOM     19  C   UNL     1      -6.971  15.637  23.518  0.00  0.00    +0.000 A 
ATOM     20  C   UNL     1      -5.587  15.551  23.688  0.00  0.00    +0.000 A 
ENDBRANCH  14  15
ENDBRANCH  13  14
ENDBRANCH   1  10
BRANCH   4  21
ATOM     21  C   UNL     1       1.191   8.878  19.624  0.00  0.00    +0.000 A 
ATOM     22  C   UNL     1       1.697   8.962  18.312  0.00  0.00    +0.000 A 
ATOM     23  C   UNL     1       2.603   8.009  17.827  0.00  0.00    +0.000 A 
ATOM     24  C   UNL     1       3.033   6.973  18.651  0.00  0.00    +0.000 A 
ATOM     25  C   UNL     1       2.498   6.849  19.931  0.00  0.00    +0.000 A 
ATOM     26  C   UNL     1       1.603   7.804  20.413  0.00  0.00    +0.000 A 
BRANCH  24  27
ATOM     27  S   UNL     1       4.134   5.700  18.074  0.00  0.00    +0.000 S 
ATOM     28  O   UNL     1       4.857   6.246  16.952  0.00  0.00    +0.000 OA
ATOM     29  O   UNL     1       4.822   5.173  19.228  0.00  0.00    +0.000 OA
BRANCH  27  30
ATOM     30  N   UNL     1       3.135   4.471  17.467  0.00  0.00    +0.000 NA
ATOM     31  C   UNL     1       1.691   4.430  17.792  0.00  0.00    +0.000 C 
ATOM     32  C   UNL     1       1.416   3.469  18.954  0.00  0.00    +0.000 C 
ATOM     33  O   UNL     1       1.982   2.167  18.742  0.00  0.00    +0.000 OA
ATOM     34  C   UNL     1       3.381   2.205  18.422  0.00  0.00    +0.000 C 
ATOM     35  C   UNL     1       3.670   3.113  17.230  0.00  0.00    +0.000 C 
ENDBRANCH  27  30
ENDBRANCH  24  27
ENDBRANCH   4  21
TORSDOF 6
ENDMDL
MODEL 4
REMARK VINA RESULT:      -8.2      1.700      2.503
REMARK  Name = 
REMARK  6 active torsions:
REMARK  status: ('A' for Active; 'I' for Inactive)
REMARK    1  A    between atoms: C_4  and  N_5
REMARK    2  A    between atoms: N_8  and  C_9
REMARK    3  A    between atoms: C_12  and  S_13
REMARK    4  A    between atoms: S_13  and  N_16
REMARK    5  A    between atoms: N_28  and  C_29
REMARK    6  A    between atoms: C_29  and  C_30
REMARK                            x       y       z     vdW  Elec       q    Type
REMARK                         _______ _______ _______ _____ _____    ______ ____
ROOT
ATOM      1  N   UNL     1       0.660  11.405  21.266  0.00  0.00    +0.000 NA
ATOM      2  C   UNL     1       1.035  10.183  22.027  0.00  0.00    +0.000 C 
ATOM      3  C   UNL     1       0.650   8.851  21.350  0.00  0.00    +0.000 C 
ATOM      4  N   UNL     1       1.036   8.784  19.922  0.00  0.00    +0.000 N 
ATOM      5  C   UNL     1       1.068  10.029  19.128  0.00  0.00    +0.000 C 
ATOM      6  C   UNL     1       1.373  11.289  19.972  0.00  0.00    +0.000 C 
ENDROOT
BRANCH   1  10
ATOM      7  O   UNL     1      -2.040  14.897  21.010  0.00  0.00    +0.000 OA
ATOM      8  C   UNL     1      -1.718  13.754  21.299  0.00  0.00    +0.000 C 
ATOM      9  C   UNL     1      -1.294  12.726  20.293  0.00  0.00    +0.000 C 
ATOM     10  C   UNL     1      -0.818  11.534  21.128  0.00  0.00    +0.000 C 
ATOM     11  C   UNL     1      -1.458  11.847  22.485  0.00  0.00    +0.000 C 
ATOM     12  O   UNL     1      -1.639  11.030  23.380  0.00  0.00    +0.000 OA
ATOM     13  N   UNL     1      -1.804  13.165  22.522  0.00  0.00    +0.000 N 
BRANCH  13  14
ATOM     14  C   UNL     1      -2.387  13.804  23.681  0.00  0.00    +0.000 C 
BRANCH  14  15
ATOM     15  C   UNL     1      -3.879  13.600  23.784  0.00  0.00    +0.000 A 
ATOM     16  C   UNL     1      -4.764  14.454  23.109  0.00  0.00    +0.000 A 
ATOM     17  C   UNL     1      -6.139  14.213  23.137  0.00  0.00    +0.000 A 
ATOM     18  C   UNL     1      -6.644  13.126  23.846  0.00  0.00    +0.000 A 
ATOM     19  C   UNL     1      -5.777  12.292  24.552  0.00  0.00    +0.000 A 
ATOM     20  C   UNL     1      -4.402  12.534  24.530  0.00  0.00    +0.000 A 
ENDBRANCH  14  15
ENDBRANCH  13  14
ENDBRANCH   1  10
BRANCH   4  21
ATOM     21  C   UNL     1       1.906   7.775  19.502  0.00  0.00    +0.000 A 
ATOM     22  C   UNL     1       2.202   6.682  20.339  0.00  0.00    +0.000 A 
ATOM     23  C   UNL     1       3.049   5.652  19.905  0.00  0.00    +0.000 A 
ATOM     24  C   UNL     1       3.592   5.690  18.624  0.00  0.00    +0.000 A 
ATOM     25  C   UNL     1       3.349   6.792  17.809  0.00  0.00    +0.000 A 
ATOM     26  C   UNL     1       2.500   7.811  18.241  0.00  0.00    +0.000 A 
BRANCH  24  27
ATOM     27  S   UNL     1       4.720   4.445  18.038  0.00  0.00    +0.000 S 
ATOM     28  O   UNL     1       4.952   4.712  16.640  0.00  0.00    +0.000 OA
ATOM     29  O   UNL     1       5.810   4.376  18.982  0.00  0.00    +0.000 OA
BRANCH  27  30
ATOM     30  N   UNL     1       3.872   2.979  18.127  0.00  0.00    +0.000 NA
ATOM     31  C   UNL     1       2.571   2.807  17.441  0.00  0.00    +0.000 C 
ATOM     32  C   UNL     1       1.404   3.028  18.411  0.00  0.00    +0.000 C 
ATOM     33  O   UNL     1       1.520   2.239  19.606  0.00  0.00    +0.000 OA
ATOM     34  C   UNL     1       2.783   2.402  20.269  0.00  0.00    +0.000 C 
ATOM     35  C   UNL     1       3.958   2.130  19.334  0.00  0.00    +0.000 C 
ENDBRANCH  27  30
ENDBRANCH  24  27
ENDBRANCH   4  21
TORSDOF 6
ENDMDL
MODEL 5
REMARK VINA RESULT:      -8.1      1.511      2.437
REMARK  Name = 
REMARK  6 active torsions:
REMARK  status: ('A' for Active; 'I' for Inactive)
REMARK    1  A    between atoms: C_4  and  N_5
REMARK    2  A    between atoms: N_8  and  C_9
REMARK    3  A    between atoms: C_12  and  S_13
REMARK    4  A    between atoms: S_13  and  N_16
REMARK    5  A    between atoms: N_28  and  C_29
REMARK    6  A    between atoms: C_29  and  C_30
REMARK                            x       y       z     vdW  Elec       q    Type
REMARK                         _______ _______ _______ _____ _____    ______ ____
ROOT
ATOM      1  N   UNL     1      -0.002  11.422  22.074  0.00  0.00    +0.000 NA
ATOM      2  C   UNL     1      -0.012  10.005  22.527  0.00  0.00    +0.000 C 
ATOM      3  C   UNL     1      -0.283   8.968  21.417  0.00  0.00    +0.000 C 
ATOM      4  N   UNL     1       0.536   9.181  20.201  0.00  0.00    +0.000 N 
ATOM      5  C   UNL     1       0.941  10.555  19.841  0.00  0.00    +0.000 C 
ATOM      6  C   UNL     1       1.076  11.496  21.061  0.00  0.00    +0.000 C 
ENDROOT
BRANCH   1  10
ATOM      7  O   UNL     1      -1.549  15.266  20.532  0.00  0.00    +0.000 OA
ATOM      8  C   UNL     1      -1.611  14.184  21.098  0.00  0.00    +0.000 C 
ATOM      9  C   UNL     1      -1.306  12.875  20.433  0.00  0.00    +0.000 C 
ATOM     10  C   UNL     1      -1.336  11.844  21.564  0.00  0.00    +0.000 C 
ATOM     11  C   UNL     1      -2.105  12.612  22.645  0.00  0.00    +0.000 C 
ATOM     12  O   UNL     1      -2.665  12.098  23.607  0.00  0.00    +0.000 OA
ATOM     13  N   UNL     1      -2.079  13.942  22.352  0.00  0.00    +0.000 N 
BRANCH  13  14
ATOM     14  C   UNL     1      -2.668  14.958  23.197  0.00  0.00    +0.000 C 
BRANCH  14  15
ATOM     15  C   UNL     1      -1.691  15.549  24.184  0.00  0.00    +0.000 A 
ATOM     16  C   UNL     1      -0.668  16.405  23.750  0.00  0.00    +0.000 A 
ATOM     17  C   UNL     1       0.183  17.018  24.673  0.00  0.00    +0.000 A 
ATOM     18  C   UNL     1       0.026  16.774  26.035  0.00  0.00    +0.000 A 
ATOM     19  C   UNL     1      -0.962  15.895  26.476  0.00  0.00    +0.000 A 
ATOM     20  C   UNL     1      -1.811  15.277  25.555  0.00  0.00    +0.000 A 
ENDBRANCH  14  15
ENDBRANCH  13  14
ENDBRANCH   1  10
BRANCH   4  21
ATOM     21  C   UNL     1       1.394   8.165  19.776  0.00  0.00    +0.000 A 
ATOM     22  C   UNL     1       1.621   7.028  20.576  0.00  0.00    +0.000 A 
ATOM     23  C   UNL     1       2.456   5.993  20.134  0.00  0.00    +0.000 A 
ATOM     24  C   UNL     1       3.056   6.068  18.881  0.00  0.00    +0.000 A 
ATOM     25  C   UNL     1       2.882   7.211  18.105  0.00  0.00    +0.000 A 
ATOM     26  C   UNL     1       2.044   8.236  18.544  0.00  0.00    +0.000 A 
BRANCH  24  27
ATOM     27  S   UNL     1       4.173   4.815  18.290  0.00  0.00    +0.000 S 
ATOM     28  O   UNL     1       4.691   4.132  19.450  0.00  0.00    +0.000 OA
ATOM     29  O   UNL     1       3.495   4.098  17.236  0.00  0.00    +0.000 OA
BRANCH  27  30
ATOM     30  N   UNL     1       5.471   5.651  17.589  0.00  0.00    +0.000 NA
ATOM     31  C   UNL     1       5.609   5.751  16.118  0.00  0.00    +0.000 C 
ATOM     32  C   UNL     1       6.582   4.693  15.584  0.00  0.00    +0.000 C 
ATOM     33  O   UNL     1       7.843   4.703  16.270  0.00  0.00    +0.000 OA
ATOM     34  C   UNL     1       7.710   4.612  17.696  0.00  0.00    +0.000 C 
ATOM     35  C   UNL     1       6.790   5.693  18.255  0.00  0.00    +0.000 C 
ENDBRANCH  27  30
ENDBRANCH  24  27
ENDBRANCH   4  21
TORSDOF 6
ENDMDL
MODEL 6
REMARK VINA RESULT:      -8.1      2.290      3.473
REMARK  Name = 
REMARK  6 active torsions:
REMARK  status: ('A' for Active; 'I' for Inactive)
REMARK    1  A    between atoms: C_4  and  N_5
REMARK    2  A    between atoms: N_8  and  C_9
REMARK    3  A    between atoms: C_12  and  S_13
REMARK    4  A    between atoms: S_13  and  N_16
REMARK    5  A    between atoms: N_28  and  C_29
REMARK    6  A    between atoms: C_29  and  C_30
REMARK                            x       y       z     vdW  Elec       q    Type
REMARK                         _______ _______ _______ _____ _____    ______ ____
ROOT
ATOM      1  N   UNL     1      -0.992  10.212  20.015  0.00  0.00    +0.000 NA
ATOM      2  C   UNL     1      -0.501   9.885  18.649  0.00  0.00    +0.000 C 
ATOM      3  C   UNL     1       1.033   9.791  18.515  0.00  0.00    +0.000 C 
ATOM      4  N   UNL     1       1.666   8.967  19.570  0.00  0.00    +0.000 N 
ATOM      5  C   UNL     1       1.041   8.909  20.908  0.00  0.00    +0.000 C 
ATOM      6  C   UNL     1      -0.491   9.118  20.879  0.00  0.00    +0.000 C 
ENDROOT
BRANCH   1  10
ATOM      7  O   UNL     1      -2.180  12.828  23.376  0.00  0.00    +0.000 OA
ATOM      8  C   UNL     1      -1.784  12.568  22.248  0.00  0.00    +0.000 C 
ATOM      9  C   UNL     1      -0.532  11.796  21.960  0.00  0.00    +0.000 C 
ATOM     10  C   UNL     1      -0.552  11.568  20.446  0.00  0.00    +0.000 C 
ATOM     11  C   UNL     1      -1.565  12.628  19.999  0.00  0.00    +0.000 C 
ATOM     12  O   UNL     1      -1.675  13.056  18.856  0.00  0.00    +0.000 OA
ATOM     13  N   UNL     1      -2.302  13.023  21.075  0.00  0.00    +0.000 N 
BRANCH  13  14
ATOM     14  C   UNL     1      -3.384  13.979  20.994  0.00  0.00    +0.000 C 
BRANCH  14  15
ATOM     15  C   UNL     1      -4.749  13.335  21.046  0.00  0.00    +0.000 A 
ATOM     16  C   UNL     1      -5.236  12.606  19.950  0.00  0.00    +0.000 A 
ATOM     17  C   UNL     1      -6.461  11.941  20.031  0.00  0.00    +0.000 A 
ATOM     18  C   UNL     1      -7.216  12.006  21.200  0.00  0.00    +0.000 A 
ATOM     19  C   UNL     1      -6.760  12.759  22.281  0.00  0.00    +0.000 A 
ATOM     20  C   UNL     1      -5.537  13.429  22.201  0.00  0.00    +0.000 A 
ENDBRANCH  14  15
ENDBRANCH  13  14
ENDBRANCH   1  10
BRANCH   4  21
ATOM     21  C   UNL     1       2.408   7.844  19.199  0.00  0.00    +0.000 A 
ATOM     22  C   UNL     1       3.047   7.781  17.945  0.00  0.00    +0.000 A 
ATOM     23  C   UNL     1       3.819   6.668  17.586  0.00  0.00    +0.000 A 
ATOM     24  C   UNL     1       3.982   5.614  18.481  0.00  0.00    +0.000 A 
ATOM     25  C   UNL     1       3.311   5.642  19.700  0.00  0.00    +0.000 A 
ATOM     26  C   UNL     1       2.550   6.754  20.058  0.00  0.00    +0.000 A 
BRANCH  24  27
ATOM     27  S   UNL     1       4.899   4.149  18.059  0.00  0.00    +0.000 S 
ATOM     28  O   UNL     1       5.532   4.399  16.788  0.00  0.00    +0.000 OA
ATOM     29  O   UNL     1       5.668   3.775  19.222  0.00  0.00    +0.000 OA
BRANCH  27  30
ATOM     30  N   UNL     1       3.738   2.939  17.803  0.00  0.00    +0.000 NA
ATOM     31  C   UNL     1       2.506   3.215  17.028  0.00  0.00    +0.000 C 
ATOM     32  C   UNL     1       1.329   3.526  17.959  0.00  0.00    +0.000 C 
ATOM     33  O   UNL     1       1.144   2.527  18.972  0.00  0.00    +0.000 OA
ATOM     34  C   UNL     1       2.338   2.255  19.721  0.00  0.00    +0.000 C 
ATOM     35  C   UNL     1       3.509   1.886  18.816  0.00  0.00    +0.000 C 
ENDBRANCH  27  30
ENDBRANCH  24  27
ENDBRANCH   4  21
TORSDOF 6
ENDMDL
MODEL 7
REMARK VINA RESULT:      -8.1      1.731      2.652
REMARK  Name = 
REMARK  6 active torsions:
REMARK  status: ('A' for Active; 'I' for Inactive)
REMARK    1  A    between atoms: C_4  and  N_5
REMARK    2  A    between atoms: N_8  and  C_9
REMARK    3  A    between atoms: C_12  and  S_13
REMARK    4  A    between atoms: S_13  and  N_16
REMARK    5  A    between atoms: N_28  and  C_29
REMARK    6  A    between atoms: C_29  and  C_30
REMARK                            x       y       z     vdW  Elec       q    Type
REMARK                         _______ _______ _______ _____ _____    ______ ____
ROOT
ATOM      1  N   UNL     1      -0.961  10.234  20.107  0.00  0.00    +0.000 NA
ATOM      2  C   UNL     1      -0.553   9.858  18.727  0.00  0.00    +0.000 C 
ATOM      3  C   UNL     1       0.968   9.714  18.514  0.00  0.00    +0.000 C 
ATOM      4  N   UNL     1       1.632   8.897  19.556  0.00  0.00    +0.000 N 
ATOM      5  C   UNL     1       1.078   8.891  20.925  0.00  0.00    +0.000 C 
ATOM      6  C   UNL     1      -0.447   9.146  20.972  0.00  0.00    +0.000 C 
ENDROOT
BRANCH   1  10
ATOM      7  O   UNL     1      -1.900  12.971  23.450  0.00  0.00    +0.000 OA
ATOM      8  C   UNL     1      -1.569  12.670  22.312  0.00  0.00    +0.000 C 
ATOM      9  C   UNL     1      -0.357  11.852  21.984  0.00  0.00    +0.000 C 
ATOM     10  C   UNL     1      -0.459  11.585  20.479  0.00  0.00    +0.000 C 
ATOM     11  C   UNL     1      -1.460  12.665  20.054  0.00  0.00    +0.000 C 
ATOM     12  O   UNL     1      -1.613  13.067  18.906  0.00  0.00    +0.000 OA
ATOM     13  N   UNL     1      -2.130  13.111  21.154  0.00  0.00    +0.000 N 
BRANCH  13  14
ATOM     14  C   UNL     1      -3.186  14.098  21.099  0.00  0.00    +0.000 C 
BRANCH  14  15
ATOM     15  C   UNL     1      -4.567  13.495  21.182  0.00  0.00    +0.000 A 
ATOM     16  C   UNL     1      -5.154  12.899  20.055  0.00  0.00    +0.000 A 
ATOM     17  C   UNL     1      -6.396  12.267  20.155  0.00  0.00    +0.000 A 
ATOM     18  C   UNL     1      -7.067  12.233  21.375  0.00  0.00    +0.000 A 
ATOM     19  C   UNL     1      -6.511  12.855  22.492  0.00  0.00    +0.000 A 
ATOM     20  C   UNL     1      -5.272  13.492  22.394  0.00  0.00    +0.000 A 
ENDBRANCH  14  15
ENDBRANCH  13  14
ENDBRANCH   1  10
BRANCH   4  21
ATOM     21  C   UNL     1       2.320   7.743  19.176  0.00  0.00    +0.000 A 
ATOM     22  C   UNL     1       2.904   7.637  17.898  0.00  0.00    +0.000 A 
ATOM     23  C   UNL     1       3.622   6.492  17.528  0.00  0.00    +0.000 A 
ATOM     24  C   UNL     1       3.786   5.449  18.435  0.00  0.00    +0.000 A 
ATOM     25  C   UNL     1       3.168   5.520  19.680  0.00  0.00    +0.000 A 
ATOM     26  C   UNL     1       2.461   6.664  20.049  0.00  0.00    +0.000 A 
BRANCH  24  27
ATOM     27  S   UNL     1       4.635   3.946  18.004  0.00  0.00    +0.000 S 
ATOM     28  O   UNL     1       4.568   3.079  19.155  0.00  0.00    +0.000 OA
ATOM     29  O   UNL     1       4.137   3.526  16.716  0.00  0.00    +0.000 OA
BRANCH  27  30
ATOM     30  N   UNL     1       6.263   4.379  17.806  0.00  0.00    +0.000 NA
ATOM     31  C   UNL     1       6.863   5.477  18.598  0.00  0.00    +0.000 C 
ATOM     32  C   UNL     1       6.879   6.786  17.800  0.00  0.00    +0.000 C 
ATOM     33  O   UNL     1       7.476   6.636  16.503  0.00  0.00    +0.000 OA
ATOM     34  C   UNL     1       6.900   5.569  15.736  0.00  0.00    +0.000 C 
ATOM     35  C   UNL     1       6.926   4.243  16.491  0.00  0.00    +0.000 C 
ENDBRANCH  27  30
ENDBRANCH  24  27
ENDBRANCH   4  21
TORSDOF 6
ENDMDL
MODEL 8
REMARK VINA RESULT:      -8.1      1.186      1.747
REMARK  Name = 
REMARK  6 active torsions:
REMARK  status: ('A' for Active; 'I' for Inactive)
REMARK    1  A    between atoms: C_4  and  N_5
REMARK    2  A    between atoms: N_8  and  C_9
REMARK    3  A    between atoms: C_12  and  S_13
REMARK    4  A    between atoms: S_13  and  N_16
REMARK    5  A    between atoms: N_28  and  C_29
REMARK    6  A    between atoms: C_29  and  C_30
REMARK                            x       y       z     vdW  Elec       q    Type
REMARK                         _______ _______ _______ _____ _____    ______ ____
ROOT
ATOM      1  N   UNL     1       0.825  11.163  20.726  0.00  0.00    +0.000 NA
ATOM      2  C   UNL     1       1.447  10.147  21.617  0.00  0.00    +0.000 C 
ATOM      3  C   UNL     1       1.070   8.685  21.300  0.00  0.00    +0.000 C 
ATOM      4  N   UNL     1       1.190   8.345  19.863  0.00  0.00    +0.000 N 
ATOM      5  C   UNL     1       0.957   9.399  18.854  0.00  0.00    +0.000 C 
ATOM      6  C   UNL     1       1.294  10.821  19.363  0.00  0.00    +0.000 C 
ENDROOT
BRANCH   1  10
ATOM      7  O   UNL     1      -2.174  14.405  20.526  0.00  0.00    +0.000 OA
ATOM      8  C   UNL     1      -1.704  13.341  20.901  0.00  0.00    +0.000 C 
ATOM      9  C   UNL     1      -1.384  12.200  19.983  0.00  0.00    +0.000 C 
ATOM     10  C   UNL     1      -0.658  11.179  20.864  0.00  0.00    +0.000 C 
ATOM     11  C   UNL     1      -1.060  11.657  22.265  0.00  0.00    +0.000 C 
ATOM     12  O   UNL     1      -0.999  10.976  23.282  0.00  0.00    +0.000 OA
ATOM     13  N   UNL     1      -1.509  12.941  22.187  0.00  0.00    +0.000 N 
BRANCH  13  14
ATOM     14  C   UNL     1      -1.921  13.714  23.338  0.00  0.00    +0.000 C 
BRANCH  14  15
ATOM     15  C   UNL     1      -3.399  13.606  23.627  0.00  0.00    +0.000 A 
ATOM     16  C   UNL     1      -4.283  14.607  23.199  0.00  0.00    +0.000 A 
ATOM     17  C   UNL     1      -5.660  14.466  23.392  0.00  0.00    +0.000 A 
ATOM     18  C   UNL     1      -6.163  13.331  24.023  0.00  0.00    +0.000 A 
ATOM     19  C   UNL     1      -5.290  12.347  24.487  0.00  0.00    +0.000 A 
ATOM     20  C   UNL     1      -3.914  12.489  24.299  0.00  0.00    +0.000 A 
ENDBRANCH  14  15
ENDBRANCH  13  14
ENDBRANCH   1  10
BRANCH   4  21
ATOM     21  C   UNL     1       2.058   7.320  19.480  0.00  0.00    +0.000 A 
ATOM     22  C   UNL     1       2.687   7.339  18.220  0.00  0.00    +0.000 A 
ATOM     23  C   UNL     1       3.583   6.327  17.848  0.00  0.00    +0.000 A 
ATOM     24  C   UNL     1       3.880   5.298  18.737  0.00  0.00    +0.000 A 
ATOM     25  C   UNL     1       3.222   5.240  19.962  0.00  0.00    +0.000 A 
ATOM     26  C   UNL     1       2.337   6.252  20.333  0.00  0.00    +0.000 A 
BRANCH  24  27
ATOM     27  S   UNL     1       4.961   3.954  18.300  0.00  0.00    +0.000 S 
ATOM     28  O   UNL     1       4.968   3.040  19.416  0.00  0.00    +0.000 OA
ATOM     29  O   UNL     1       4.593   3.520  16.974  0.00  0.00    +0.000 OA
BRANCH  27  30
ATOM     30  N   UNL     1       6.515   4.628  18.206  0.00  0.00    +0.000 NA
ATOM     31  C   UNL     1       6.811   5.951  18.802  0.00  0.00    +0.000 C 
ATOM     32  C   UNL     1       6.750   7.058  17.743  0.00  0.00    +0.000 C 
ATOM     33  O   UNL     1       7.555   6.767  16.590  0.00  0.00    +0.000 OA
ATOM     34  C   UNL     1       7.272   5.483  16.014  0.00  0.00    +0.000 C 
ATOM     35  C   UNL     1       7.384   4.359  17.040  0.00  0.00    +0.000 C 
ENDBRANCH  27  30
ENDBRANCH  24  27
ENDBRANCH   4  21
TORSDOF 6
ENDMDL
MODEL 9
REMARK VINA RESULT:      -8.0      1.851      2.584
REMARK  Name = 
REMARK  6 active torsions:
REMARK  status: ('A' for Active; 'I' for Inactive)
REMARK    1  A    between atoms: C_4  and  N_5
REMARK    2  A    between atoms: N_8  and  C_9
REMARK    3  A    between atoms: C_12  and  S_13
REMARK    4  A    between atoms: S_13  and  N_16
REMARK    5  A    between atoms: N_28  and  C_29
REMARK    6  A    between atoms: C_29  and  C_30
REMARK                            x       y       z     vdW  Elec       q    Type
REMARK                         _______ _______ _______ _____ _____    ______ ____
ROOT
ATOM      1  N   UNL     1       0.307  12.441  21.083  0.00  0.00    +0.000 NA
ATOM      2  C   UNL     1       0.131  11.062  21.615  0.00  0.00    +0.000 C 
ATOM      3  C   UNL     1      -0.172   9.988  20.550  0.00  0.00    +0.000 C 
ATOM      4  N   UNL     1       0.736  10.046  19.382  0.00  0.00    +0.000 N 
ATOM      5  C   UNL     1       1.296  11.350  18.971  0.00  0.00    +0.000 C 
ATOM      6  C   UNL     1       1.447  12.349  20.142  0.00  0.00    +0.000 C 
ENDROOT
BRANCH   1  10
ATOM      7  O   UNL     1      -1.088  16.508  20.053  0.00  0.00    +0.000 OA
ATOM      8  C   UNL     1      -1.206  15.340  20.395  0.00  0.00    +0.000 C 
ATOM      9  C   UNL     1      -0.772  14.176  19.556  0.00  0.00    +0.000 C 
ATOM     10  C   UNL     1      -0.946  12.953  20.462  0.00  0.00    +0.000 C 
ATOM     11  C   UNL     1      -1.888  13.511  21.536  0.00  0.00    +0.000 C 
ATOM     12  O   UNL     1      -2.572  12.830  22.290  0.00  0.00    +0.000 OA
ATOM     13  N   UNL     1      -1.851  14.873  21.498  0.00  0.00    +0.000 N 
BRANCH  13  14
ATOM     14  C   UNL     1      -2.586  15.716  22.415  0.00  0.00    +0.000 C 
BRANCH  14  15
ATOM     15  C   UNL     1      -1.860  15.952  23.717  0.00  0.00    +0.000 A 
ATOM     16  C   UNL     1      -0.818  16.889  23.792  0.00  0.00    +0.000 A 
ATOM     17  C   UNL     1      -0.203  17.167  25.015  0.00  0.00    +0.000 A 
ATOM     18  C   UNL     1      -0.616  16.508  26.170  0.00  0.00    +0.000 A 
ATOM     19  C   UNL     1      -1.625  15.547  26.101  0.00  0.00    +0.000 A 
ATOM     20  C   UNL     1      -2.237  15.263  24.878  0.00  0.00    +0.000 A 
ENDBRANCH  14  15
ENDBRANCH  13  14
ENDBRANCH   1  10
BRANCH   4  21
ATOM     21  C   UNL     1       1.515   8.928  19.074  0.00  0.00    +0.000 A 
ATOM     22  C   UNL     1       2.160   8.817  17.826  0.00  0.00    +0.000 A 
ATOM     23  C   UNL     1       2.967   7.711  17.529  0.00  0.00    +0.000 A 
ATOM     24  C   UNL     1       3.160   6.714  18.481  0.00  0.00    +0.000 A 
ATOM     25  C   UNL     1       2.485   6.786  19.696  0.00  0.00    +0.000 A 
ATOM     26  C   UNL     1       1.688   7.892  19.991  0.00  0.00    +0.000 A 
BRANCH  24  27
ATOM     27  S   UNL     1       4.125   5.257  18.142  0.00  0.00    +0.000 S 
ATOM     28  O   UNL     1       4.577   4.747  19.412  0.00  0.00    +0.000 OA
ATOM     29  O   UNL     1       3.361   4.439  17.231  0.00  0.00    +0.000 OA
BRANCH  27  30
ATOM     30  N   UNL     1       5.500   5.801  17.311  0.00  0.00    +0.000 NA
ATOM     31  C   UNL     1       5.681   5.521  15.868  0.00  0.00    +0.000 C 
ATOM     32  C   UNL     1       6.582   4.299  15.654  0.00  0.00    +0.000 C 
ATOM     33  O   UNL     1       7.823   4.393  16.370  0.00  0.00    +0.000 OA
ATOM     34  C   UNL     1       7.649   4.670  17.767  0.00  0.00    +0.000 C 
ATOM     35  C   UNL     1       6.802   5.917  18.002  0.00  0.00    +0.000 C 
ENDBRANCH  27  30
ENDBRANCH  24  27
ENDBRANCH   4  21
TORSDOF 6
ENDMDL
