MODEL 1
REMARK VINA RESULT:      -9.2      0.000      0.000
REMARK  Name = 
REMARK  8 active torsions:
REMARK  status: ('A' for Active; 'I' for Inactive)
REMARK    1  A    between atoms: C_1  and  O_2
REMARK    2  A    between atoms: O_2  and  C_3
REMARK    3  A    between atoms: C_8  and  C_9
REMARK    4  A    between atoms: C_9  and  N_10
REMARK    5  A    between atoms: C_11  and  C_13
REMARK    6  A    between atoms: N_16  and  S_17
REMARK    7  A    between atoms: S_17  and  C_20
REMARK    8  A    between atoms: C_23  and  N_24
REMARK                            x       y       z     vdW  Elec       q    Type
REMARK                         _______ _______ _______ _____ _____    ______ ____
ROOT
ATOM      1  C   UNL     1       7.831   5.932  18.174  0.00  0.00    +0.000 C 
ATOM      2  C   UNL     1       7.560   4.820  17.150  0.00  0.00    +0.000 C 
ATOM      3  C   UNL     1       6.067   4.531  16.980  0.00  0.00    +0.000 C 
ATOM      4  N   UNL     1       5.424   4.193  18.284  0.00  0.00    +0.000 NA
ATOM      5  C   UNL     1       5.688   5.212  19.347  0.00  0.00    +0.000 C 
ATOM      6  C   UNL     1       7.178   5.519  19.494  0.00  0.00    +0.000 C 
ENDROOT
BRANCH   1   8
ATOM      7  N   UNL     1       8.160   8.385  18.081  0.00  0.00    +0.000 N 
ATOM      8  C   UNL     1       7.415   7.315  17.641  0.00  0.00    +0.000 C 
ATOM      9  O   UNL     1       6.500   7.445  16.829  0.00  0.00    +0.000 OA
ATOM     10  H   UNL     1       8.894   8.259  18.763  0.00  0.00    +0.000 HD
BRANCH   7  11
ATOM     11  C   UNL     1       7.867   9.756  17.674  0.00  0.00    +0.000 C 
BRANCH  11  17
ATOM     12  C   UNL     1       8.743  12.150  17.985  0.00  0.00    +0.000 A 
ATOM     13  C   UNL     1       9.625  13.046  18.610  0.00  0.00    +0.000 A 
ATOM     14  C   UNL     1      10.605  12.584  19.488  0.00  0.00    +0.000 A 
ATOM     15  C   UNL     1      10.691  11.226  19.773  0.00  0.00    +0.000 A 
ATOM     16  C   UNL     1       9.779  10.335  19.203  0.00  0.00    +0.000 A 
ATOM     17  C   UNL     1       8.789  10.780  18.304  0.00  0.00    +0.000 A 
BRANCH  12  19
ATOM     18  C   UNL     1       6.976  13.631  17.473  0.00  0.00    +0.000 C 
ATOM     19  O   UNL     1       7.817  12.552  17.056  0.00  0.00    +0.000 OA
ENDBRANCH  12  19
ENDBRANCH  11  17
ENDBRANCH   7  11
ENDBRANCH   1   8
BRANCH   4  20
ATOM     20  S   UNL     1       3.718   3.892  18.146  0.00  0.00    +0.000 S 
ATOM     21  O   UNL     1       3.383   3.837  16.738  0.00  0.00    +0.000 OA
ATOM     22  O   UNL     1       3.398   2.785  19.025  0.00  0.00    +0.000 OA
BRANCH  20  23
ATOM     23  C   UNL     1       2.976   5.363  18.810  0.00  0.00    +0.000 A 
ATOM     24  C   UNL     1       2.350   5.298  20.050  0.00  0.00    +0.000 A 
ATOM     25  C   UNL     1       1.775   6.451  20.599  0.00  0.00    +0.000 A 
ATOM     26  C   UNL     1       1.804   7.679  19.922  0.00  0.00    +0.000 A 
ATOM     27  C   UNL     1       2.464   7.722  18.682  0.00  0.00    +0.000 A 
ATOM     28  C   UNL     1       3.060   6.576  18.131  0.00  0.00    +0.000 A 
BRANCH  26  29
ATOM     29  N   UNL     1       1.179   8.842  20.460  0.00  0.00    +0.000 N 
ATOM     30  C   UNL     1       1.198   9.158  21.869  0.00  0.00    +0.000 C 
ATOM     31  C   UNL     1       0.199  10.286  22.025  0.00  0.00    +0.000 C 
ATOM     32  C   UNL     1       0.255  11.002  20.695  0.00  0.00    +0.000 C 
ATOM     33  C   UNL     1       0.631   9.910  19.724  0.00  0.00    +0.000 C 
ATOM     34  O   UNL     1       0.490  10.029  18.516  0.00  0.00    +0.000 OA
ENDBRANCH  26  29
ENDBRANCH  20  23
ENDBRANCH   4  20
TORSDOF 7
ENDMDL
MODEL 2
REMARK VINA RESULT:      -9.1      0.845      1.150
REMARK  Name = 
REMARK  8 active torsions:
REMARK  status: ('A' for Active; 'I' for Inactive)
REMARK    1  A    between atoms: C_1  and  O_2
REMARK    2  A    between atoms: O_2  and  C_3
REMARK    3  A    between atoms: C_8  and  C_9
REMARK    4  A    between atoms: C_9  and  N_10
REMARK    5  A    between atoms: C_11  and  C_13
REMARK    6  A    between atoms: N_16  and  S_17
REMARK    7  A    between atoms: S_17  and  C_20
REMARK    8  A    between atoms: C_23  and  N_24
REMARK                            x       y       z     vdW  Elec       q    Type
REMARK                         _______ _______ _______ _____ _____    ______ ____
ROOT
ATOM      1  C   UNL     1       7.840   5.845  18.226  0.00  0.00    +0.000 C 
ATOM      2  C   UNL     1       7.479   4.703  17.264  0.00  0.00    +0.000 C 
ATOM      3  C   UNL     1       5.969   4.494  17.141  0.00  0.00    +0.000 C 
ATOM      4  N   UNL     1       5.340   4.257  18.474  0.00  0.00    +0.000 NA
ATOM      5  C   UNL     1       5.689   5.309  19.480  0.00  0.00    +0.000 C 
ATOM      6  C   UNL     1       7.197   5.535  19.579  0.00  0.00    +0.000 C 
ENDROOT
BRANCH   1   8
ATOM      7  N   UNL     1       8.210   8.292  18.118  0.00  0.00    +0.000 N 
ATOM      8  C   UNL     1       7.491   7.223  17.634  0.00  0.00    +0.000 C 
ATOM      9  O   UNL     1       6.651   7.349  16.744  0.00  0.00    +0.000 OA
ATOM     10  H   UNL     1       8.880   8.170  18.863  0.00  0.00    +0.000 HD
BRANCH   7  11
ATOM     11  C   UNL     1       7.972   9.658  17.663  0.00  0.00    +0.000 C 
BRANCH  11  17
ATOM     12  C   UNL     1       8.701  12.072  18.151  0.00  0.00    +0.000 A 
ATOM     13  C   UNL     1       9.473  12.977  18.898  0.00  0.00    +0.000 A 
ATOM     14  C   UNL     1      10.379  12.520  19.855  0.00  0.00    +0.000 A 
ATOM     15  C   UNL     1      10.498  11.157  20.097  0.00  0.00    +0.000 A 
ATOM     16  C   UNL     1       9.690  10.253  19.402  0.00  0.00    +0.000 A 
ATOM     17  C   UNL     1       8.778  10.693  18.422  0.00  0.00    +0.000 A 
BRANCH  12  19
ATOM     18  C   UNL     1       7.202  13.723  17.376  0.00  0.00    +0.000 C 
ATOM     19  O   UNL     1       7.857  12.473  17.147  0.00  0.00    +0.000 OA
ENDBRANCH  12  19
ENDBRANCH  11  17
ENDBRANCH   7  11
ENDBRANCH   1   8
BRANCH   4  20
ATOM     20  S   UNL     1       3.617   4.050  18.390  0.00  0.00    +0.000 S 
ATOM     21  O   UNL     1       3.280   3.629  17.045  0.00  0.00    +0.000 OA
ATOM     22  O   UNL     1       3.216   3.258  19.534  0.00  0.00    +0.000 OA
BRANCH  20  23
ATOM     23  C   UNL     1       2.984   5.697  18.602  0.00  0.00    +0.000 A 
ATOM     24  C   UNL     1       2.387   6.036  19.811  0.00  0.00    +0.000 A 
ATOM     25  C   UNL     1       1.898   7.334  20.004  0.00  0.00    +0.000 A 
ATOM     26  C   UNL     1       1.986   8.308  18.999  0.00  0.00    +0.000 A 
ATOM     27  C   UNL     1       2.616   7.946  17.796  0.00  0.00    +0.000 A 
ATOM     28  C   UNL     1       3.126   6.652  17.598  0.00  0.00    +0.000 A 
BRANCH  26  29
ATOM     29  N   UNL     1       1.448   9.616  19.180  0.00  0.00    +0.000 N 
ATOM     30  C   UNL     1       1.847  10.744  18.371  0.00  0.00    +0.000 C 
ATOM     31  C   UNL     1       1.263  11.950  19.077  0.00  0.00    +0.000 C 
ATOM     32  C   UNL     1       0.019  11.409  19.744  0.00  0.00    +0.000 C 
ATOM     33  C   UNL     1       0.363   9.964  20.007  0.00  0.00    +0.000 C 
ATOM     34  O   UNL     1      -0.270   9.271  20.791  0.00  0.00    +0.000 OA
ENDBRANCH  26  29
ENDBRANCH  20  23
ENDBRANCH   4  20
TORSDOF 7
ENDMDL
MODEL 3
REMARK VINA RESULT:      -8.8      1.543      1.986
REMARK  Name = 
REMARK  8 active torsions:
REMARK  status: ('A' for Active; 'I' for Inactive)
REMARK    1  A    between atoms: C_1  and  O_2
REMARK    2  A    between atoms: O_2  and  C_3
REMARK    3  A    between atoms: C_8  and  C_9
REMARK    4  A    between atoms: C_9  and  N_10
REMARK    5  A    between atoms: C_11  and  C_13
REMARK    6  A    between atoms: N_16  and  S_17
REMARK    7  A    between atoms: S_17  and  C_20
REMARK    8  A    between atoms: C_23  and  N_24
REMARK                            x       y       z     vdW  Elec       q    Type
REMARK                         _______ _______ _______ _____ _____    ______ ____
ROOT
ATOM      1  C   UNL     1       7.876   6.061  18.148  0.00  0.00    +0.000 C 
ATOM      2  C   UNL     1       7.389   5.141  17.018  0.00  0.00    +0.000 C 
ATOM      3  C   UNL     1       5.866   5.003  16.991  0.00  0.00    +0.000 C 
ATOM      4  N   UNL     1       5.337   4.526  18.302  0.00  0.00    +0.000 NA
ATOM      5  C   UNL     1       5.813   5.349  19.458  0.00  0.00    +0.000 C 
ATOM      6  C   UNL     1       7.332   5.509  19.466  0.00  0.00    +0.000 C 
ENDROOT
BRANCH   1   8
ATOM      7  N   UNL     1       8.416   8.468  18.384  0.00  0.00    +0.000 N 
ATOM      8  C   UNL     1       7.542   7.538  17.868  0.00  0.00    +0.000 C 
ATOM      9  O   UNL     1       6.576   7.861  17.178  0.00  0.00    +0.000 OA
ATOM     10  H   UNL     1       9.191   8.183  18.963  0.00  0.00    +0.000 HD
BRANCH   7  11
ATOM     11  C   UNL     1       8.213   9.903  18.213  0.00  0.00    +0.000 C 
BRANCH  11  17
ATOM     12  C   UNL     1       9.712  11.080  19.935  0.00  0.00    +0.000 A 
ATOM     13  C   UNL     1      10.852  11.846  20.227  0.00  0.00    +0.000 A 
ATOM     14  C   UNL     1      11.661  12.336  19.202  0.00  0.00    +0.000 A 
ATOM     15  C   UNL     1      11.356  12.038  17.879  0.00  0.00    +0.000 A 
ATOM     16  C   UNL     1      10.258  11.225  17.583  0.00  0.00    +0.000 A 
ATOM     17  C   UNL     1       9.421  10.731  18.603  0.00  0.00    +0.000 A 
BRANCH  12  19
ATOM     18  C   UNL     1       8.620  11.574  21.970  0.00  0.00    +0.000 C 
ATOM     19  O   UNL     1       8.846  10.645  20.906  0.00  0.00    +0.000 OA
ENDBRANCH  12  19
ENDBRANCH  11  17
ENDBRANCH   7  11
ENDBRANCH   1   8
BRANCH   4  20
ATOM     20  S   UNL     1       3.606   4.387  18.331  0.00  0.00    +0.000 S 
ATOM     21  O   UNL     1       3.174   3.874  17.047  0.00  0.00    +0.000 OA
ATOM     22  O   UNL     1       3.242   3.707  19.558  0.00  0.00    +0.000 OA
BRANCH  20  23
ATOM     23  C   UNL     1       3.050   6.071  18.442  0.00  0.00    +0.000 A 
ATOM     24  C   UNL     1       2.410   6.491  19.602  0.00  0.00    +0.000 A 
ATOM     25  C   UNL     1       1.980   7.819  19.717  0.00  0.00    +0.000 A 
ATOM     26  C   UNL     1       2.170   8.743  18.679  0.00  0.00    +0.000 A 
ATOM     27  C   UNL     1       2.842   8.298  17.527  0.00  0.00    +0.000 A 
ATOM     28  C   UNL     1       3.292   6.973  17.409  0.00  0.00    +0.000 A 
BRANCH  26  29
ATOM     29  N   UNL     1       1.693  10.083  18.777  0.00  0.00    +0.000 N 
ATOM     30  C   UNL     1       2.367  11.200  18.157  0.00  0.00    +0.000 C 
ATOM     31  C   UNL     1       1.700  12.426  18.745  0.00  0.00    +0.000 C 
ATOM     32  C   UNL     1       0.291  11.965  19.036  0.00  0.00    +0.000 C 
ATOM     33  C   UNL     1       0.455  10.490  19.308  0.00  0.00    +0.000 C 
ATOM     34  O   UNL     1      -0.408   9.826  19.864  0.00  0.00    +0.000 OA
ENDBRANCH  26  29
ENDBRANCH  20  23
ENDBRANCH   4  20
TORSDOF 7
ENDMDL
MODEL 4
REMARK VINA RESULT:      -8.6      1.446      1.951
REMARK  Name = 
REMARK  8 active torsions:
REMARK  status: ('A' for Active; 'I' for Inactive)
REMARK    1  A    between atoms: C_1  and  O_2
REMARK    2  A    between atoms: O_2  and  C_3
REMARK    3  A    between atoms: C_8  and  C_9
REMARK    4  A    between atoms: C_9  and  N_10
REMARK    5  A    between atoms: C_11  and  C_13
REMARK    6  A    between atoms: N_16  and  S_17
REMARK    7  A    between atoms: S_17  and  C_20
REMARK    8  A    between atoms: C_23  and  N_24
REMARK                            x       y       z     vdW  Elec       q    Type
REMARK                         _______ _______ _______ _____ _____    ______ ____
ROOT
ATOM      1  C   UNL     1       7.868   5.945  18.277  0.00  0.00    +0.000 C 
ATOM      2  C   UNL     1       7.531   4.948  17.158  0.00  0.00    +0.000 C 
ATOM      3  C   UNL     1       6.025   4.806  16.933  0.00  0.00    +0.000 C 
ATOM      4  N   UNL     1       5.318   4.420  18.190  0.00  0.00    +0.000 NA
ATOM      5  C   UNL     1       5.639   5.322  19.341  0.00  0.00    +0.000 C 
ATOM      6  C   UNL     1       7.145   5.484  19.544  0.00  0.00    +0.000 C 
ENDROOT
BRANCH   1   8
ATOM      7  N   UNL     1       8.352   8.367  18.459  0.00  0.00    +0.000 N 
ATOM      8  C   UNL     1       7.586   7.398  17.853  0.00  0.00    +0.000 C 
ATOM      9  O   UNL     1       6.758   7.668  16.984  0.00  0.00    +0.000 OA
ATOM     10  H   UNL     1       9.012   8.127  19.184  0.00  0.00    +0.000 HD
BRANCH   7  11
ATOM     11  C   UNL     1       8.181   9.788  18.169  0.00  0.00    +0.000 C 
BRANCH  11  17
ATOM     12  C   UNL     1       9.668  10.983  19.888  0.00  0.00    +0.000 A 
ATOM     13  C   UNL     1      10.801  11.762  20.177  0.00  0.00    +0.000 A 
ATOM     14  C   UNL     1      11.604  12.259  19.151  0.00  0.00    +0.000 A 
ATOM     15  C   UNL     1      11.301  11.955  17.830  0.00  0.00    +0.000 A 
ATOM     16  C   UNL     1      10.212  11.130  17.536  0.00  0.00    +0.000 A 
ATOM     17  C   UNL     1       9.380  10.628  18.556  0.00  0.00    +0.000 A 
BRANCH  12  19
ATOM     18  C   UNL     1       8.572  11.469  21.923  0.00  0.00    +0.000 C 
ATOM     19  O   UNL     1       8.807  10.541  20.860  0.00  0.00    +0.000 OA
ENDBRANCH  12  19
ENDBRANCH  11  17
ENDBRANCH   7  11
ENDBRANCH   1   8
BRANCH   4  20
ATOM     20  S   UNL     1       3.598   4.281  17.993  0.00  0.00    +0.000 S 
ATOM     21  O   UNL     1       3.324   4.039  16.591  0.00  0.00    +0.000 OA
ATOM     22  O   UNL     1       3.114   3.368  19.008  0.00  0.00    +0.000 OA
BRANCH  20  23
ATOM     23  C   UNL     1       2.998   5.909  18.375  0.00  0.00    +0.000 A 
ATOM     24  C   UNL     1       3.129   6.914  17.422  0.00  0.00    +0.000 A 
ATOM     25  C   UNL     1       2.646   8.199  17.697  0.00  0.00    +0.000 A 
ATOM     26  C   UNL     1       2.035   8.507  18.921  0.00  0.00    +0.000 A 
ATOM     27  C   UNL     1       1.893   7.467  19.856  0.00  0.00    +0.000 A 
ATOM     28  C   UNL     1       2.359   6.170  19.584  0.00  0.00    +0.000 A 
BRANCH  26  29
ATOM     29  N   UNL     1       1.583   9.826  19.218  0.00  0.00    +0.000 N 
ATOM     30  C   UNL     1       0.784  10.136  20.380  0.00  0.00    +0.000 C 
ATOM     31  C   UNL     1       0.302  11.553  20.150  0.00  0.00    +0.000 C 
ATOM     32  C   UNL     1       1.403  12.178  19.325  0.00  0.00    +0.000 C 
ATOM     33  C   UNL     1       1.977  11.009  18.563  0.00  0.00    +0.000 C 
ATOM     34  O   UNL     1       2.687  11.152  17.579  0.00  0.00    +0.000 OA
ENDBRANCH  26  29
ENDBRANCH  20  23
ENDBRANCH   4  20
TORSDOF 7
ENDMDL
MODEL 5
REMARK VINA RESULT:      -8.5      1.308      1.606
REMARK  Name = 
REMARK  8 active torsions:
REMARK  status: ('A' for Active; 'I' for Inactive)
REMARK    1  A    between atoms: C_1  and  O_2
REMARK    2  A    between atoms: O_2  and  C_3
REMARK    3  A    between atoms: C_8  and  C_9
REMARK    4  A    between atoms: C_9  and  N_10
REMARK    5  A    between atoms: C_11  and  C_13
REMARK    6  A    between atoms: N_16  and  S_17
REMARK    7  A    between atoms: S_17  and  C_20
REMARK    8  A    between atoms: C_23  and  N_24
REMARK                            x       y       z     vdW  Elec       q    Type
REMARK                         _______ _______ _______ _____ _____    ______ ____
ROOT
ATOM      1  C   UNL     1       8.018   5.794  18.692  0.00  0.00    +0.000 C 
ATOM      2  C   UNL     1       7.853   4.694  17.632  0.00  0.00    +0.000 C 
ATOM      3  C   UNL     1       6.404   4.543  17.165  0.00  0.00    +0.000 C 
ATOM      4  N   UNL     1       5.483   4.290  18.313  0.00  0.00    +0.000 NA
ATOM      5  C   UNL     1       5.625   5.298  19.410  0.00  0.00    +0.000 C 
ATOM      6  C   UNL     1       7.078   5.467  19.854  0.00  0.00    +0.000 C 
ENDROOT
BRANCH   1   8
ATOM      7  N   UNL     1       8.636   8.192  18.630  0.00  0.00    +0.000 N 
ATOM      8  C   UNL     1       7.850   7.200  18.089  0.00  0.00    +0.000 C 
ATOM      9  O   UNL     1       7.093   7.410  17.142  0.00  0.00    +0.000 OA
ATOM     10  H   UNL     1       9.235   8.003  19.420  0.00  0.00    +0.000 HD
BRANCH   7  11
ATOM     11  C   UNL     1       8.568   9.576  18.170  0.00  0.00    +0.000 C 
BRANCH  11  17
ATOM     12  C   UNL     1      10.105  11.550  18.749  0.00  0.00    +0.000 A 
ATOM     13  C   UNL     1      10.633  12.436  19.701  0.00  0.00    +0.000 A 
ATOM     14  C   UNL     1      10.316  12.300  21.053  0.00  0.00    +0.000 A 
ATOM     15  C   UNL     1       9.444  11.298  21.459  0.00  0.00    +0.000 A 
ATOM     16  C   UNL     1       8.866  10.450  20.510  0.00  0.00    +0.000 A 
ATOM     17  C   UNL     1       9.182  10.562  19.142  0.00  0.00    +0.000 A 
BRANCH  12  19
ATOM     18  C   UNL     1      11.429  12.590  17.092  0.00  0.00    +0.000 C 
ATOM     19  O   UNL     1      10.452  11.598  17.422  0.00  0.00    +0.000 OA
ENDBRANCH  12  19
ENDBRANCH  11  17
ENDBRANCH   7  11
ENDBRANCH   1   8
BRANCH   4  20
ATOM     20  S   UNL     1       3.819   4.146  17.836  0.00  0.00    +0.000 S 
ATOM     21  O   UNL     1       3.761   4.189  16.388  0.00  0.00    +0.000 OA
ATOM     22  O   UNL     1       3.250   3.032  18.565  0.00  0.00    +0.000 OA
BRANCH  20  23
ATOM     23  C   UNL     1       3.078   5.644  18.439  0.00  0.00    +0.000 A 
ATOM     24  C   UNL     1       2.429   5.624  19.669  0.00  0.00    +0.000 A 
ATOM     25  C   UNL     1       1.854   6.798  20.170  0.00  0.00    +0.000 A 
ATOM     26  C   UNL     1       1.906   8.003  19.455  0.00  0.00    +0.000 A 
ATOM     27  C   UNL     1       2.588   8.001  18.226  0.00  0.00    +0.000 A 
ATOM     28  C   UNL     1       3.184   6.834  17.722  0.00  0.00    +0.000 A 
BRANCH  26  29
ATOM     29  N   UNL     1       1.281   9.188  19.944  0.00  0.00    +0.000 N 
ATOM     30  C   UNL     1       0.687  10.176  19.074  0.00  0.00    +0.000 C 
ATOM     31  C   UNL     1       0.413  11.364  19.971  0.00  0.00    +0.000 C 
ATOM     32  C   UNL     1       0.164  10.743  21.326  0.00  0.00    +0.000 C 
ATOM     33  C   UNL     1       0.992   9.482  21.290  0.00  0.00    +0.000 C 
ATOM     34  O   UNL     1       1.284   8.860  22.302  0.00  0.00    +0.000 OA
ENDBRANCH  26  29
ENDBRANCH  20  23
ENDBRANCH   4  20
TORSDOF 7
ENDMDL
MODEL 6
REMARK VINA RESULT:      -8.3      4.534     10.581
REMARK  Name = 
REMARK  8 active torsions:
REMARK  status: ('A' for Active; 'I' for Inactive)
REMARK    1  A    between atoms: C_1  and  O_2
REMARK    2  A    between atoms: O_2  and  C_3
REMARK    3  A    between atoms: C_8  and  C_9
REMARK    4  A    between atoms: C_9  and  N_10
REMARK    5  A    between atoms: C_11  and  C_13
REMARK    6  A    between atoms: N_16  and  S_17
REMARK    7  A    between atoms: S_17  and  C_20
REMARK    8  A    between atoms: C_23  and  N_24
REMARK                            x       y       z     vdW  Elec       q    Type
REMARK                         _______ _______ _______ _____ _____    ______ ____
ROOT
ATOM      1  C   UNL     1      -0.305  13.868  19.422  0.00  0.00    +0.000 C 
ATOM      2  C   UNL     1      -0.393  12.701  18.426  0.00  0.00    +0.000 C 
ATOM      3  C   UNL     1      -0.454  11.340  19.122  0.00  0.00    +0.000 C 
ATOM      4  N   UNL     1       0.707  11.143  20.039  0.00  0.00    +0.000 NA
ATOM      5  C   UNL     1       0.884  12.270  21.008  0.00  0.00    +0.000 C 
ATOM      6  C   UNL     1       0.916  13.629  20.312  0.00  0.00    +0.000 C 
ENDROOT
BRANCH   1   8
ATOM      7  N   UNL     1      -2.619  13.151  19.940  0.00  0.00    +0.000 N 
ATOM      8  C   UNL     1      -1.632  14.082  20.173  0.00  0.00    +0.000 C 
ATOM      9  O   UNL     1      -1.779  15.004  20.974  0.00  0.00    +0.000 OA
ATOM     10  H   UNL     1      -2.485  12.414  19.264  0.00  0.00    +0.000 HD
BRANCH   7  11
ATOM     11  C   UNL     1      -3.934  13.240  20.568  0.00  0.00    +0.000 C 
BRANCH  11  17
ATOM     12  C   UNL     1      -6.086  11.838  20.591  0.00  0.00    +0.000 A 
ATOM     13  C   UNL     1      -7.018  11.036  19.912  0.00  0.00    +0.000 A 
ATOM     14  C   UNL     1      -6.816  10.685  18.578  0.00  0.00    +0.000 A 
ATOM     15  C   UNL     1      -5.698  11.159  17.901  0.00  0.00    +0.000 A 
ATOM     16  C   UNL     1      -4.797  12.007  18.552  0.00  0.00    +0.000 A 
ATOM     17  C   UNL     1      -4.976  12.364  19.903  0.00  0.00    +0.000 A 
BRANCH  12  19
ATOM     18  C   UNL     1      -7.456  12.725  22.299  0.00  0.00    +0.000 C 
ATOM     19  O   UNL     1      -6.205  12.142  21.924  0.00  0.00    +0.000 OA
ENDBRANCH  12  19
ENDBRANCH  11  17
ENDBRANCH   7  11
ENDBRANCH   1   8
BRANCH   4  20
ATOM     20  S   UNL     1       0.662   9.624  20.880  0.00  0.00    +0.000 S 
ATOM     21  O   UNL     1       1.399   9.773  22.119  0.00  0.00    +0.000 OA
ATOM     22  O   UNL     1      -0.713   9.170  20.890  0.00  0.00    +0.000 OA
BRANCH  20  23
ATOM     23  C   UNL     1       1.601   8.536  19.835  0.00  0.00    +0.000 A 
ATOM     24  C   UNL     1       1.978   7.292  20.328  0.00  0.00    +0.000 A 
ATOM     25  C   UNL     1       2.703   6.412  19.514  0.00  0.00    +0.000 A 
ATOM     26  C   UNL     1       3.071   6.759  18.206  0.00  0.00    +0.000 A 
ATOM     27  C   UNL     1       2.656   8.013  17.725  0.00  0.00    +0.000 A 
ATOM     28  C   UNL     1       1.914   8.895  18.527  0.00  0.00    +0.000 A 
BRANCH  26  29
ATOM     29  N   UNL     1       3.847   5.882  17.393  0.00  0.00    +0.000 N 
ATOM     30  C   UNL     1       5.061   6.300  16.731  0.00  0.00    +0.000 C 
ATOM     31  C   UNL     1       5.385   5.172  15.773  0.00  0.00    +0.000 C 
ATOM     32  C   UNL     1       4.824   3.946  16.458  0.00  0.00    +0.000 C 
ATOM     33  C   UNL     1       3.669   4.492  17.261  0.00  0.00    +0.000 C 
ATOM     34  O   UNL     1       2.791   3.775  17.718  0.00  0.00    +0.000 OA
ENDBRANCH  26  29
ENDBRANCH  20  23
ENDBRANCH   4  20
TORSDOF 7
ENDMDL
MODEL 7
REMARK VINA RESULT:      -8.3      4.630     10.981
REMARK  Name = 
REMARK  8 active torsions:
REMARK  status: ('A' for Active; 'I' for Inactive)
REMARK    1  A    between atoms: C_1  and  O_2
REMARK    2  A    between atoms: O_2  and  C_3
REMARK    3  A    between atoms: C_8  and  C_9
REMARK    4  A    between atoms: C_9  and  N_10
REMARK    5  A    between atoms: C_11  and  C_13
REMARK    6  A    between atoms: N_16  and  S_17
REMARK    7  A    between atoms: S_17  and  C_20
REMARK    8  A    between atoms: C_23  and  N_24
REMARK                            x       y       z     vdW  Elec       q    Type
REMARK                         _______ _______ _______ _____ _____    ______ ____
ROOT
ATOM      1  C   UNL     1      -1.245  13.035  19.579  0.00  0.00    +0.000 C 
ATOM      2  C   UNL     1      -1.350  11.768  18.717  0.00  0.00    +0.000 C 
ATOM      3  C   UNL     1      -1.042  10.494  19.507  0.00  0.00    +0.000 C 
ATOM      4  N   UNL     1       0.302  10.564  20.152  0.00  0.00    +0.000 NA
ATOM      5  C   UNL     1       0.494  11.802  20.971  0.00  0.00    +0.000 C 
ATOM      6  C   UNL     1       0.157  13.070  20.188  0.00  0.00    +0.000 C 
ENDROOT
BRANCH   1   8
ATOM      7  N   UNL     1      -3.608  13.574  20.092  0.00  0.00    +0.000 N 
ATOM      8  C   UNL     1      -2.402  13.137  20.590  0.00  0.00    +0.000 C 
ATOM      9  O   UNL     1      -2.264  12.797  21.764  0.00  0.00    +0.000 OA
ATOM     10  H   UNL     1      -3.695  13.866  19.129  0.00  0.00    +0.000 HD
BRANCH   7  11
ATOM     11  C   UNL     1      -4.786  13.737  20.939  0.00  0.00    +0.000 C 
BRANCH  11  17
ATOM     12  C   UNL     1      -6.800  12.344  21.713  0.00  0.00    +0.000 A 
ATOM     13  C   UNL     1      -7.730  11.321  21.471  0.00  0.00    +0.000 A 
ATOM     14  C   UNL     1      -7.646  10.540  20.319  0.00  0.00    +0.000 A 
ATOM     15  C   UNL     1      -6.650  10.796  19.383  0.00  0.00    +0.000 A 
ATOM     16  C   UNL     1      -5.758  11.852  19.587  0.00  0.00    +0.000 A 
ATOM     17  C   UNL     1      -5.818  12.645  20.750  0.00  0.00    +0.000 A 
BRANCH  12  19
ATOM     18  C   UNL     1      -7.906  13.976  23.013  0.00  0.00    +0.000 C 
ATOM     19  O   UNL     1      -6.798  13.084  22.869  0.00  0.00    +0.000 OA
ENDBRANCH  12  19
ENDBRANCH  11  17
ENDBRANCH   7  11
ENDBRANCH   1   8
BRANCH   4  20
ATOM     20  S   UNL     1       0.682   9.153  21.092  0.00  0.00    +0.000 S 
ATOM     21  O   UNL     1       1.541   9.559  22.186  0.00  0.00    +0.000 OA
ATOM     22  O   UNL     1      -0.559   8.452  21.349  0.00  0.00    +0.000 OA
BRANCH  20  23
ATOM     23  C   UNL     1       1.663   8.164  19.988  0.00  0.00    +0.000 A 
ATOM     24  C   UNL     1       1.976   8.671  18.732  0.00  0.00    +0.000 A 
ATOM     25  C   UNL     1       2.764   7.915  17.855  0.00  0.00    +0.000 A 
ATOM     26  C   UNL     1       3.240   6.644  18.208  0.00  0.00    +0.000 A 
ATOM     27  C   UNL     1       2.930   6.167  19.493  0.00  0.00    +0.000 A 
ATOM     28  C   UNL     1       2.156   6.924  20.387  0.00  0.00    +0.000 A 
BRANCH  26  29
ATOM     29  N   UNL     1       4.004   5.855  17.298  0.00  0.00    +0.000 N 
ATOM     30  C   UNL     1       5.175   6.359  16.619  0.00  0.00    +0.000 C 
ATOM     31  C   UNL     1       5.488   5.317  15.566  0.00  0.00    +0.000 C 
ATOM     32  C   UNL     1       4.992   4.027  16.177  0.00  0.00    +0.000 C 
ATOM     33  C   UNL     1       3.859   4.474  17.067  0.00  0.00    +0.000 C 
ATOM     34  O   UNL     1       3.022   3.697  17.503  0.00  0.00    +0.000 OA
ENDBRANCH  26  29
ENDBRANCH  20  23
ENDBRANCH   4  20
TORSDOF 7
ENDMDL
MODEL 8
REMARK VINA RESULT:      -8.2      4.994      9.183
REMARK  Name = 
REMARK  8 active torsions:
REMARK  status: ('A' for Active; 'I' for Inactive)
REMARK    1  A    between atoms: C_1  and  O_2
REMARK    2  A    between atoms: O_2  and  C_3
REMARK    3  A    between atoms: C_8  and  C_9
REMARK    4  A    between atoms: C_9  and  N_10
REMARK    5  A    between atoms: C_11  and  C_13
REMARK    6  A    between atoms: N_16  and  S_17
REMARK    7  A    between atoms: S_17  and  C_20
REMARK    8  A    between atoms: C_23  and  N_24
REMARK                            x       y       z     vdW  Elec       q    Type
REMARK                         _______ _______ _______ _____ _____    ______ ____
ROOT
ATOM      1  C   UNL     1       0.892   9.566  18.085  0.00  0.00    +0.000 C 
ATOM      2  C   UNL     1       1.795  10.784  17.843  0.00  0.00    +0.000 C 
ATOM      3  C   UNL     1       1.770  11.774  19.010  0.00  0.00    +0.000 C 
ATOM      4  N   UNL     1       0.379  12.221  19.317  0.00  0.00    +0.000 NA
ATOM      5  C   UNL     1      -0.570  11.081  19.516  0.00  0.00    +0.000 C 
ATOM      6  C   UNL     1      -0.521  10.081  18.363  0.00  0.00    +0.000 C 
ENDROOT
BRANCH   1   8
ATOM      7  N   UNL     1       2.198   7.553  18.702  0.00  0.00    +0.000 N 
ATOM      8  C   UNL     1       1.472   8.628  19.161  0.00  0.00    +0.000 C 
ATOM      9  O   UNL     1       1.334   8.860  20.361  0.00  0.00    +0.000 OA
ATOM     10  H   UNL     1       2.282   7.369  17.713  0.00  0.00    +0.000 HD
BRANCH   7  11
ATOM     11  C   UNL     1       2.788   6.571  19.607  0.00  0.00    +0.000 C 
BRANCH  11  17
ATOM     12  C   UNL     1       2.442   4.405  18.273  0.00  0.00    +0.000 A 
ATOM     13  C   UNL     1       1.895   3.115  18.176  0.00  0.00    +0.000 A 
ATOM     14  C   UNL     1       1.067   2.616  19.181  0.00  0.00    +0.000 A 
ATOM     15  C   UNL     1       0.806   3.388  20.307  0.00  0.00    +0.000 A 
ATOM     16  C   UNL     1       1.397   4.648  20.440  0.00  0.00    +0.000 A 
ATOM     17  C   UNL     1       2.225   5.176  19.430  0.00  0.00    +0.000 A 
BRANCH  12  19
ATOM     18  C   UNL     1       4.460   4.333  17.046  0.00  0.00    +0.000 C 
ATOM     19  O   UNL     1       3.196   4.965  17.272  0.00  0.00    +0.000 OA
ENDBRANCH  12  19
ENDBRANCH  11  17
ENDBRANCH   7  11
ENDBRANCH   1   8
BRANCH   4  20
ATOM     20  S   UNL     1       0.296  13.319  20.660  0.00  0.00    +0.000 S 
ATOM     21  O   UNL     1       1.127  12.794  21.724  0.00  0.00    +0.000 OA
ATOM     22  O   UNL     1       0.513  14.656  20.145  0.00  0.00    +0.000 OA
BRANCH  20  23
ATOM     23  C   UNL     1      -1.393  13.197  21.199  0.00  0.00    +0.000 A 
ATOM     24  C   UNL     1      -1.677  12.486  22.360  0.00  0.00    +0.000 A 
ATOM     25  C   UNL     1      -2.999  12.393  22.812  0.00  0.00    +0.000 A 
ATOM     26  C   UNL     1      -4.056  12.996  22.115  0.00  0.00    +0.000 A 
ATOM     27  C   UNL     1      -3.738  13.730  20.959  0.00  0.00    +0.000 A 
ATOM     28  C   UNL     1      -2.413  13.844  20.506  0.00  0.00    +0.000 A 
BRANCH  26  29
ATOM     29  N   UNL     1      -5.407  12.864  22.550  0.00  0.00    +0.000 N 
ATOM     30  C   UNL     1      -5.938  13.589  23.681  0.00  0.00    +0.000 C 
ATOM     31  C   UNL     1      -7.281  12.945  23.955  0.00  0.00    +0.000 C 
ATOM     32  C   UNL     1      -7.734  12.464  22.596  0.00  0.00    +0.000 C 
ATOM     33  C   UNL     1      -6.438  12.185  21.874  0.00  0.00    +0.000 C 
ATOM     34  O   UNL     1      -6.387  11.508  20.857  0.00  0.00    +0.000 OA
ENDBRANCH  26  29
ENDBRANCH  20  23
ENDBRANCH   4  20
TORSDOF 7
ENDMDL
MODEL 9
REMARK VINA RESULT:      -8.0      1.847      2.612
REMARK  Name = 
REMARK  8 active torsions:
REMARK  status: ('A' for Active; 'I' for Inactive)
REMARK    1  A    between atoms: C_1  and  O_2
REMARK    2  A    between atoms: O_2  and  C_3
REMARK    3  A    between atoms: C_8  and  C_9
REMARK    4  A    between atoms: C_9  and  N_10
REMARK    5  A    between atoms: C_11  and  C_13
REMARK    6  A    between atoms: N_16  and  S_17
REMARK    7  A    between atoms: S_17  and  C_20
REMARK    8  A    between atoms: C_23  and  N_24
REMARK                            x       y       z     vdW  Elec       q    Type
REMARK                         _______ _______ _______ _____ _____    ______ ____
ROOT
ATOM      1  C   UNL     1       7.092   6.218  16.851  0.00  0.00    +0.000 C 
ATOM      2  C   UNL     1       5.841   6.961  16.357  0.00  0.00    +0.000 C 
ATOM      3  C   UNL     1       4.692   6.907  17.365  0.00  0.00    +0.000 C 
ATOM      4  N   UNL     1       4.344   5.500  17.722  0.00  0.00    +0.000 NA
ATOM      5  C   UNL     1       5.528   4.700  18.166  0.00  0.00    +0.000 C 
ATOM      6  C   UNL     1       6.684   4.780  17.171  0.00  0.00    +0.000 C 
ENDROOT
BRANCH   1   8
ATOM      7  N   UNL     1       8.092   8.294  17.761  0.00  0.00    +0.000 N 
ATOM      8  C   UNL     1       7.790   6.972  17.997  0.00  0.00    +0.000 C 
ATOM      9  O   UNL     1       8.017   6.434  19.080  0.00  0.00    +0.000 OA
ATOM     10  H   UNL     1       7.916   8.712  16.859  0.00  0.00    +0.000 HD
BRANCH   7  11
ATOM     11  C   UNL     1       8.771   9.125  18.750  0.00  0.00    +0.000 C 
BRANCH  11  17
ATOM     12  C   UNL     1       9.783  11.482  18.878  0.00  0.00    +0.000 A 
ATOM     13  C   UNL     1       9.772  12.829  18.481  0.00  0.00    +0.000 A 
ATOM     14  C   UNL     1       8.763  13.318  17.652  0.00  0.00    +0.000 A 
ATOM     15  C   UNL     1       7.776  12.459  17.185  0.00  0.00    +0.000 A 
ATOM     16  C   UNL     1       7.815  11.103  17.525  0.00  0.00    +0.000 A 
ATOM     17  C   UNL     1       8.818  10.592  18.372  0.00  0.00    +0.000 A 
BRANCH  12  19
ATOM     18  C   UNL     1      11.890  11.772  19.905  0.00  0.00    +0.000 C 
ATOM     19  O   UNL     1      10.710  10.978  19.755  0.00  0.00    +0.000 OA
ENDBRANCH  12  19
ENDBRANCH  11  17
ENDBRANCH   7  11
ENDBRANCH   1   8
BRANCH   4  20
ATOM     20  S   UNL     1       3.065   5.389  18.893  0.00  0.00    +0.000 S 
ATOM     21  O   UNL     1       2.067   4.469  18.383  0.00  0.00    +0.000 OA
ATOM     22  O   UNL     1       3.676   5.171  20.188  0.00  0.00    +0.000 OA
BRANCH  20  23
ATOM     23  C   UNL     1       2.342   7.012  18.883  0.00  0.00    +0.000 A 
ATOM     24  C   UNL     1       1.967   7.586  20.093  0.00  0.00    +0.000 A 
ATOM     25  C   UNL     1       1.412   8.872  20.108  0.00  0.00    +0.000 A 
ATOM     26  C   UNL     1       1.214   9.599  18.926  0.00  0.00    +0.000 A 
ATOM     27  C   UNL     1       1.625   9.005  17.720  0.00  0.00    +0.000 A 
ATOM     28  C   UNL     1       2.198   7.723  17.695  0.00  0.00    +0.000 A 
BRANCH  26  29
ATOM     29  N   UNL     1       0.608  10.890  18.938  0.00  0.00    +0.000 N 
ATOM     30  C   UNL     1       1.373  12.113  18.866  0.00  0.00    +0.000 C 
ATOM     31  C   UNL     1       0.380  13.208  19.194  0.00  0.00    +0.000 C 
ATOM     32  C   UNL     1      -0.939  12.658  18.700  0.00  0.00    +0.000 C 
ATOM     33  C   UNL     1      -0.769  11.165  18.839  0.00  0.00    +0.000 C 
ATOM     34  O   UNL     1      -1.716  10.393  18.817  0.00  0.00    +0.000 OA
ENDBRANCH  26  29
ENDBRANCH  20  23
ENDBRANCH   4  20
TORSDOF 7
ENDMDL
