MODEL 1
REMARK VINA RESULT:      -7.5      0.000      0.000
REMARK  Name = 
REMARK  7 active torsions:
REMARK  status: ('A' for Active; 'I' for Inactive)
REMARK    1  A    between atoms: C_1  and  C_2
REMARK    2  A    between atoms: C_5  and  C_6
REMARK    3  A    between atoms: C_8  and  C_9
REMARK    4  A    between atoms: C_9  and  N_10
REMARK    5  A    between atoms: N_10  and  C_11
REMARK    6  A    between atoms: C_14  and  C_15
REMARK    7  A    between atoms: C_18  and  C_19
REMARK                            x       y       z     vdW  Elec       q    Type
REMARK                         _______ _______ _______ _____ _____    ______ ____
ROOT
ATOM      1  N   UNL     1       3.098   7.118  17.465  0.00  0.00    +0.000 N 
ATOM      2  H   UNL     1       2.596   6.956  16.596  0.00  0.00    +0.000 HD
ENDROOT
BRANCH   1   3
ATOM      3  C   UNL     1       2.932   6.078  18.387  0.00  0.00    +0.000 A 
ATOM      4  C   UNL     1       2.871   6.282  19.764  0.00  0.00    +0.000 A 
ATOM      5  C   UNL     1       2.570   5.233  20.636  0.00  0.00    +0.000 A 
ATOM      6  C   UNL     1       2.300   3.936  20.169  0.00  0.00    +0.000 A 
ATOM      7  C   UNL     1       2.337   3.700  18.784  0.00  0.00    +0.000 A 
ATOM      8  C   UNL     1       2.064   2.383  18.115  0.00  0.00    +0.000 C 
ATOM      9  C   UNL     1       2.647   4.785  17.921  0.00  0.00    +0.000 A 
BRANCH   6  10
ATOM     10  C   UNL     1       1.908   2.970  21.239  0.00  0.00    +0.000 C 
ATOM     11  N   UNL     1       0.612   2.559  21.339  0.00  0.00    +0.000 N 
ATOM     12  O   UNL     1       2.746   2.492  21.995  0.00  0.00    +0.000 OA
ATOM     13  H   UNL     1      -0.081   2.732  20.620  0.00  0.00    +0.000 HD
ATOM     14  H   UNL     1       0.430   1.825  22.016  0.00  0.00    +0.000 HD
ENDBRANCH   6  10
ENDBRANCH   1   3
BRANCH   1  15
ATOM     15  C   UNL     1       4.454   7.603  17.192  0.00  0.00    +0.000 C 
BRANCH  15  18
ATOM     16  C   UNL     1       6.331   5.206  15.222  0.00  0.00    +0.000 A 
ATOM     17  N   UNL     1       5.431   6.152  15.410  0.00  0.00    +0.000 NA
ATOM     18  C   UNL     1       5.429   6.549  16.743  0.00  0.00    +0.000 A 
ATOM     19  C   UNL     1       6.361   5.907  17.537  0.00  0.00    +0.000 A 
ATOM     20  S   UNL     1       7.227   4.753  16.614  0.00  0.00    +0.000 S 
BRANCH  16  25
ATOM     21  C   UNL     1       5.553   2.145  11.510  0.00  0.00    +0.000 C 
ATOM     22  C   UNL     1       6.256   3.233  12.216  0.00  0.00    +0.000 A 
ATOM     23  C   UNL     1       7.317   4.046  11.888  0.00  0.00    +0.000 A 
ATOM     24  C   UNL     1       7.496   4.917  12.988  0.00  0.00    +0.000 A 
ATOM     25  C   UNL     1       6.543   4.591  13.940  0.00  0.00    +0.000 A 
ATOM     26  O   UNL     1       5.790   3.548  13.455  0.00  0.00    +0.000 OA
ENDBRANCH  16  25
ENDBRANCH  15  18
ENDBRANCH   1  15
TORSDOF 5
ENDMDL
MODEL 2
REMARK VINA RESULT:      -7.5      3.301      4.774
REMARK  Name = 
REMARK  7 active torsions:
REMARK  status: ('A' for Active; 'I' for Inactive)
REMARK    1  A    between atoms: C_1  and  C_2
REMARK    2  A    between atoms: C_5  and  C_6
REMARK    3  A    between atoms: C_8  and  C_9
REMARK    4  A    between atoms: C_9  and  N_10
REMARK    5  A    between atoms: N_10  and  C_11
REMARK    6  A    between atoms: C_14  and  C_15
REMARK    7  A    between atoms: C_18  and  C_19
REMARK                            x       y       z     vdW  Elec       q    Type
REMARK                         _______ _______ _______ _____ _____    ______ ____
ROOT
ATOM      1  N   UNL     1       2.638   5.649  19.012  0.00  0.00    +0.000 N 
ATOM      2  H   UNL     1       1.855   5.031  19.210  0.00  0.00    +0.000 HD
ENDROOT
BRANCH   1   3
ATOM      3  C   UNL     1       2.287   7.003  19.067  0.00  0.00    +0.000 A 
ATOM      4  C   UNL     1       2.288   7.836  17.951  0.00  0.00    +0.000 A 
ATOM      5  C   UNL     1       1.802   9.144  18.026  0.00  0.00    +0.000 A 
ATOM      6  C   UNL     1       1.277   9.671  19.218  0.00  0.00    +0.000 A 
ATOM      7  C   UNL     1       1.247   8.850  20.359  0.00  0.00    +0.000 A 
ATOM      8  C   UNL     1       0.712   9.247  21.706  0.00  0.00    +0.000 C 
ATOM      9  C   UNL     1       1.748   7.526  20.253  0.00  0.00    +0.000 A 
BRANCH   6  10
ATOM     10  C   UNL     1       0.721  11.051  19.083  0.00  0.00    +0.000 C 
ATOM     11  N   UNL     1       1.562  12.124  19.106  0.00  0.00    +0.000 N 
ATOM     12  O   UNL     1      -0.475  11.233  18.891  0.00  0.00    +0.000 OA
ATOM     13  H   UNL     1       2.569  12.040  19.034  0.00  0.00    +0.000 HD
ATOM     14  H   UNL     1       1.138  13.024  18.904  0.00  0.00    +0.000 HD
ENDBRANCH   6  10
ENDBRANCH   1   3
BRANCH   1  15
ATOM     15  C   UNL     1       3.835   5.205  19.731  0.00  0.00    +0.000 C 
BRANCH  15  18
ATOM     16  C   UNL     1       6.235   4.981  17.021  0.00  0.00    +0.000 A 
ATOM     17  N   UNL     1       5.026   4.974  17.548  0.00  0.00    +0.000 NA
ATOM     18  C   UNL     1       5.101   5.201  18.918  0.00  0.00    +0.000 A 
ATOM     19  C   UNL     1       6.381   5.406  19.398  0.00  0.00    +0.000 A 
ATOM     20  S   UNL     1       7.518   5.270  18.124  0.00  0.00    +0.000 S 
BRANCH  16  25
ATOM     21  C   UNL     1       8.270   5.590  12.635  0.00  0.00    +0.000 C 
ATOM     22  C   UNL     1       7.337   4.975  13.598  0.00  0.00    +0.000 A 
ATOM     23  C   UNL     1       6.403   3.969  13.503  0.00  0.00    +0.000 A 
ATOM     24  C   UNL     1       5.850   3.825  14.797  0.00  0.00    +0.000 A 
ATOM     25  C   UNL     1       6.464   4.756  15.621  0.00  0.00    +0.000 A 
ATOM     26  O   UNL     1       7.374   5.462  14.869  0.00  0.00    +0.000 OA
ENDBRANCH  16  25
ENDBRANCH  15  18
ENDBRANCH   1  15
TORSDOF 5
ENDMDL
MODEL 3
REMARK VINA RESULT:      -7.4      3.028      4.387
REMARK  Name = 
REMARK  7 active torsions:
REMARK  status: ('A' for Active; 'I' for Inactive)
REMARK    1  A    between atoms: C_1  and  C_2
REMARK    2  A    between atoms: C_5  and  C_6
REMARK    3  A    between atoms: C_8  and  C_9
REMARK    4  A    between atoms: C_9  and  N_10
REMARK    5  A    between atoms: N_10  and  C_11
REMARK    6  A    between atoms: C_14  and  C_15
REMARK    7  A    between atoms: C_18  and  C_19
REMARK                            x       y       z     vdW  Elec       q    Type
REMARK                         _______ _______ _______ _____ _____    ______ ____
ROOT
ATOM      1  N   UNL     1       3.205   5.485  19.960  0.00  0.00    +0.000 N 
ATOM      2  H   UNL     1       4.037   5.565  20.539  0.00  0.00    +0.000 HD
ENDROOT
BRANCH   1   3
ATOM      3  C   UNL     1       2.669   6.729  19.608  0.00  0.00    +0.000 A 
ATOM      4  C   UNL     1       2.681   7.223  18.306  0.00  0.00    +0.000 A 
ATOM      5  C   UNL     1       2.016   8.407  17.977  0.00  0.00    +0.000 A 
ATOM      6  C   UNL     1       1.293   9.140  18.934  0.00  0.00    +0.000 A 
ATOM      7  C   UNL     1       1.248   8.660  20.254  0.00  0.00    +0.000 A 
ATOM      8  C   UNL     1       0.517   9.309  21.394  0.00  0.00    +0.000 C 
ATOM      9  C   UNL     1       1.935   7.454  20.559  0.00  0.00    +0.000 A 
BRANCH   6  10
ATOM     10  C   UNL     1       0.573  10.326  18.379  0.00  0.00    +0.000 C 
ATOM     11  N   UNL     1       1.250  11.489  18.163  0.00  0.00    +0.000 N 
ATOM     12  O   UNL     1      -0.607  10.253  18.056  0.00  0.00    +0.000 OA
ATOM     13  H   UNL     1       2.261  11.555  18.191  0.00  0.00    +0.000 HD
ATOM     14  H   UNL     1       0.733  12.222  17.687  0.00  0.00    +0.000 HD
ENDBRANCH   6  10
ENDBRANCH   1   3
BRANCH   1  15
ATOM     15  C   UNL     1       3.408   4.485  18.907  0.00  0.00    +0.000 C 
BRANCH  15  18
ATOM     16  C   UNL     1       5.975   4.522  16.345  0.00  0.00    +0.000 A 
ATOM     17  N   UNL     1       4.739   4.424  16.795  0.00  0.00    +0.000 NA
ATOM     18  C   UNL     1       4.719   4.589  18.175  0.00  0.00    +0.000 A 
ATOM     19  C   UNL     1       5.954   4.842  18.743  0.00  0.00    +0.000 A 
ATOM     20  S   UNL     1       7.171   4.829  17.539  0.00  0.00    +0.000 S 
BRANCH  16  25
ATOM     21  C   UNL     1       5.631   2.813  11.795  0.00  0.00    +0.000 C 
ATOM     22  C   UNL     1       6.210   3.647  12.866  0.00  0.00    +0.000 A 
ATOM     23  C   UNL     1       7.220   4.580  12.899  0.00  0.00    +0.000 A 
ATOM     24  C   UNL     1       7.274   5.051  14.232  0.00  0.00    +0.000 A 
ATOM     25  C   UNL     1       6.301   4.376  14.954  0.00  0.00    +0.000 A 
ATOM     26  O   UNL     1       5.657   3.510  14.102  0.00  0.00    +0.000 OA
ENDBRANCH  16  25
ENDBRANCH  15  18
ENDBRANCH   1  15
TORSDOF 5
ENDMDL
MODEL 4
REMARK VINA RESULT:      -7.4      2.841      4.318
REMARK  Name = 
REMARK  7 active torsions:
REMARK  status: ('A' for Active; 'I' for Inactive)
REMARK    1  A    between atoms: C_1  and  C_2
REMARK    2  A    between atoms: C_5  and  C_6
REMARK    3  A    between atoms: C_8  and  C_9
REMARK    4  A    between atoms: C_9  and  N_10
REMARK    5  A    between atoms: N_10  and  C_11
REMARK    6  A    between atoms: C_14  and  C_15
REMARK    7  A    between atoms: C_18  and  C_19
REMARK                            x       y       z     vdW  Elec       q    Type
REMARK                         _______ _______ _______ _____ _____    ______ ____
ROOT
ATOM      1  N   UNL     1       2.748   4.454  19.385  0.00  0.00    +0.000 N 
ATOM      2  H   UNL     1       2.055   3.950  19.934  0.00  0.00    +0.000 HD
ENDROOT
BRANCH   1   3
ATOM      3  C   UNL     1       2.490   5.828  19.316  0.00  0.00    +0.000 A 
ATOM      4  C   UNL     1       2.520   6.549  18.125  0.00  0.00    +0.000 A 
ATOM      5  C   UNL     1       2.125   7.889  18.082  0.00  0.00    +0.000 A 
ATOM      6  C   UNL     1       1.663   8.561  19.227  0.00  0.00    +0.000 A 
ATOM      7  C   UNL     1       1.605   7.856  20.441  0.00  0.00    +0.000 A 
ATOM      8  C   UNL     1       1.129   8.414  21.752  0.00  0.00    +0.000 C 
ATOM      9  C   UNL     1       2.014   6.496  20.455  0.00  0.00    +0.000 A 
BRANCH   6  10
ATOM     10  C   UNL     1       1.198   9.957  18.969  0.00  0.00    +0.000 C 
ATOM     11  N   UNL     1       0.699  10.289  17.745  0.00  0.00    +0.000 N 
ATOM     12  O   UNL     1       1.201  10.797  19.861  0.00  0.00    +0.000 OA
ATOM     13  H   UNL     1       0.458   9.601  17.040  0.00  0.00    +0.000 HD
ATOM     14  H   UNL     1       0.303  11.220  17.664  0.00  0.00    +0.000 HD
ENDBRANCH   6  10
ENDBRANCH   1   3
BRANCH   1  15
ATOM     15  C   UNL     1       4.100   4.011  19.737  0.00  0.00    +0.000 C 
BRANCH  15  18
ATOM     16  C   UNL     1       6.251   4.827  16.933  0.00  0.00    +0.000 A 
ATOM     17  N   UNL     1       5.201   4.276  17.511  0.00  0.00    +0.000 NA
ATOM     18  C   UNL     1       5.197   4.567  18.871  0.00  0.00    +0.000 A 
ATOM     19  C   UNL     1       6.244   5.367  19.291  0.00  0.00    +0.000 A 
ATOM     20  S   UNL     1       7.276   5.728  17.974  0.00  0.00    +0.000 S 
BRANCH  16  25
ATOM     21  C   UNL     1       8.371   5.717  12.637  0.00  0.00    +0.000 C 
ATOM     22  C   UNL     1       7.436   5.026  13.544  0.00  0.00    +0.000 A 
ATOM     23  C   UNL     1       6.539   3.997  13.376  0.00  0.00    +0.000 A 
ATOM     24  C   UNL     1       5.959   3.771  14.646  0.00  0.00    +0.000 A 
ATOM     25  C   UNL     1       6.522   4.679  15.530  0.00  0.00    +0.000 A 
ATOM     26  O   UNL     1       7.426   5.450  14.837  0.00  0.00    +0.000 OA
ENDBRANCH  16  25
ENDBRANCH  15  18
ENDBRANCH   1  15
TORSDOF 5
ENDMDL
MODEL 5
REMARK VINA RESULT:      -7.4      3.783      5.616
REMARK  Name = 
REMARK  7 active torsions:
REMARK  status: ('A' for Active; 'I' for Inactive)
REMARK    1  A    between atoms: C_1  and  C_2
REMARK    2  A    between atoms: C_5  and  C_6
REMARK    3  A    between atoms: C_8  and  C_9
REMARK    4  A    between atoms: C_9  and  N_10
REMARK    5  A    between atoms: N_10  and  C_11
REMARK    6  A    between atoms: C_14  and  C_15
REMARK    7  A    between atoms: C_18  and  C_19
REMARK                            x       y       z     vdW  Elec       q    Type
REMARK                         _______ _______ _______ _____ _____    ______ ____
ROOT
ATOM      1  N   UNL     1       2.312   6.323  20.816  0.00  0.00    +0.000 N 
ATOM      2  H   UNL     1       3.317   6.210  20.711  0.00  0.00    +0.000 HD
ENDROOT
BRANCH   1   3
ATOM      3  C   UNL     1       1.849   7.545  20.314  0.00  0.00    +0.000 A 
ATOM      4  C   UNL     1       1.999   7.929  18.984  0.00  0.00    +0.000 A 
ATOM      5  C   UNL     1       1.404   9.096  18.498  0.00  0.00    +0.000 A 
ATOM      6  C   UNL     1       0.617   9.922  19.318  0.00  0.00    +0.000 A 
ATOM      7  C   UNL     1       0.432   9.554  20.662  0.00  0.00    +0.000 A 
ATOM      8  C   UNL     1      -0.384  10.312  21.670  0.00  0.00    +0.000 C 
ATOM      9  C   UNL     1       1.050   8.363  21.128  0.00  0.00    +0.000 A 
BRANCH   6  10
ATOM     10  C   UNL     1      -0.011  11.073  18.602  0.00  0.00    +0.000 C 
ATOM     11  N   UNL     1       0.655  12.259  18.511  0.00  0.00    +0.000 N 
ATOM     12  O   UNL     1      -1.094  10.952  18.041  0.00  0.00    +0.000 OA
ATOM     13  H   UNL     1       1.635  12.363  18.749  0.00  0.00    +0.000 HD
ATOM     14  H   UNL     1       0.225  12.966  17.924  0.00  0.00    +0.000 HD
ENDBRANCH   6  10
ENDBRANCH   1   3
BRANCH   1  15
ATOM     15  C   UNL     1       1.615   5.094  20.423  0.00  0.00    +0.000 C 
BRANCH  15  18
ATOM     16  C   UNL     1       3.977   3.761  18.015  0.00  0.00    +0.000 A 
ATOM     17  N   UNL     1       3.437   4.707  18.760  0.00  0.00    +0.000 NA
ATOM     18  C   UNL     1       2.396   4.182  19.518  0.00  0.00    +0.000 A 
ATOM     19  C   UNL     1       2.188   2.825  19.348  0.00  0.00    +0.000 A 
ATOM     20  S   UNL     1       3.283   2.201  18.189  0.00  0.00    +0.000 S 
BRANCH  16  25
ATOM     21  C   UNL     1       6.346   4.001  13.763  0.00  0.00    +0.000 C 
ATOM     22  C   UNL     1       6.210   4.155  15.224  0.00  0.00    +0.000 A 
ATOM     23  C   UNL     1       7.048   4.622  16.210  0.00  0.00    +0.000 A 
ATOM     24  C   UNL     1       6.315   4.540  17.417  0.00  0.00    +0.000 A 
ATOM     25  C   UNL     1       5.066   4.020  17.115  0.00  0.00    +0.000 A 
ATOM     26  O   UNL     1       5.016   3.781  15.761  0.00  0.00    +0.000 OA
ENDBRANCH  16  25
ENDBRANCH  15  18
ENDBRANCH   1  15
TORSDOF 5
ENDMDL
MODEL 6
REMARK VINA RESULT:      -7.4      5.654      7.925
REMARK  Name = 
REMARK  7 active torsions:
REMARK  status: ('A' for Active; 'I' for Inactive)
REMARK    1  A    between atoms: C_1  and  C_2
REMARK    2  A    between atoms: C_5  and  C_6
REMARK    3  A    between atoms: C_8  and  C_9
REMARK    4  A    between atoms: C_9  and  N_10
REMARK    5  A    between atoms: N_10  and  C_11
REMARK    6  A    between atoms: C_14  and  C_15
REMARK    7  A    between atoms: C_18  and  C_19
REMARK                            x       y       z     vdW  Elec       q    Type
REMARK                         _______ _______ _______ _____ _____    ______ ____
ROOT
ATOM      1  N   UNL     1       1.709   7.676  20.690  0.00  0.00    +0.000 N 
ATOM      2  H   UNL     1       0.840   7.718  21.217  0.00  0.00    +0.000 HD
ENDROOT
BRANCH   1   3
ATOM      3  C   UNL     1       1.924   6.426  20.097  0.00  0.00    +0.000 A 
ATOM      4  C   UNL     1       2.652   6.255  18.923  0.00  0.00    +0.000 A 
ATOM      5  C   UNL     1       2.955   4.978  18.441  0.00  0.00    +0.000 A 
ATOM      6  C   UNL     1       2.557   3.816  19.124  0.00  0.00    +0.000 A 
ATOM      7  C   UNL     1       1.834   3.955  20.322  0.00  0.00    +0.000 A 
ATOM      8  C   UNL     1       1.343   2.825  21.180  0.00  0.00    +0.000 C 
ATOM      9  C   UNL     1       1.540   5.265  20.786  0.00  0.00    +0.000 A 
BRANCH   6  10
ATOM     10  C   UNL     1       3.050   2.547  18.509  0.00  0.00    +0.000 C 
ATOM     11  N   UNL     1       4.198   1.973  18.969  0.00  0.00    +0.000 N 
ATOM     12  O   UNL     1       2.407   1.978  17.634  0.00  0.00    +0.000 OA
ATOM     13  H   UNL     1       4.654   2.259  19.827  0.00  0.00    +0.000 HD
ATOM     14  H   UNL     1       4.423   1.061  18.584  0.00  0.00    +0.000 HD
ENDBRANCH   6  10
ENDBRANCH   1   3
BRANCH   1  15
ATOM     15  C   UNL     1       1.868   8.879  19.867  0.00  0.00    +0.000 C 
BRANCH  15  18
ATOM     16  C   UNL     1      -1.150  10.595  18.816  0.00  0.00    +0.000 A 
ATOM     17  N   UNL     1      -0.168   9.722  18.692  0.00  0.00    +0.000 NA
ATOM     18  C   UNL     1       0.660   9.773  19.808  0.00  0.00    +0.000 A 
ATOM     19  C   UNL     1       0.264  10.676  20.778  0.00  0.00    +0.000 A 
ATOM     20  S   UNL     1      -1.143  11.508  20.269  0.00  0.00    +0.000 S 
BRANCH  16  25
ATOM     21  C   UNL     1      -3.293  10.106  14.467  0.00  0.00    +0.000 C 
ATOM     22  C   UNL     1      -3.186  10.601  15.853  0.00  0.00    +0.000 A 
ATOM     23  C   UNL     1      -4.006  11.362  16.653  0.00  0.00    +0.000 A 
ATOM     24  C   UNL     1      -3.347  11.468  17.901  0.00  0.00    +0.000 A 
ATOM     25  C   UNL     1      -2.151  10.773  17.802  0.00  0.00    +0.000 A 
ATOM     26  O   UNL     1      -2.061  10.249  16.534  0.00  0.00    +0.000 OA
ENDBRANCH  16  25
ENDBRANCH  15  18
ENDBRANCH   1  15
TORSDOF 5
ENDMDL
MODEL 7
REMARK VINA RESULT:      -7.3      5.563      7.918
REMARK  Name = 
REMARK  7 active torsions:
REMARK  status: ('A' for Active; 'I' for Inactive)
REMARK    1  A    between atoms: C_1  and  C_2
REMARK    2  A    between atoms: C_5  and  C_6
REMARK    3  A    between atoms: C_8  and  C_9
REMARK    4  A    between atoms: C_9  and  N_10
REMARK    5  A    between atoms: N_10  and  C_11
REMARK    6  A    between atoms: C_14  and  C_15
REMARK    7  A    between atoms: C_18  and  C_19
REMARK                            x       y       z     vdW  Elec       q    Type
REMARK                         _______ _______ _______ _____ _____    ______ ____
ROOT
ATOM      1  N   UNL     1       2.132   7.852  20.651  0.00  0.00    +0.000 N 
ATOM      2  H   UNL     1       2.907   8.038  21.281  0.00  0.00    +0.000 HD
ENDROOT
BRANCH   1   3
ATOM      3  C   UNL     1       2.069   6.512  20.251  0.00  0.00    +0.000 A 
ATOM      4  C   UNL     1       1.226   5.577  20.848  0.00  0.00    +0.000 A 
ATOM      5  C   UNL     1       1.099   4.286  20.329  0.00  0.00    +0.000 A 
ATOM      6  C   UNL     1       1.796   3.878  19.179  0.00  0.00    +0.000 A 
ATOM      7  C   UNL     1       2.641   4.803  18.544  0.00  0.00    +0.000 A 
ATOM      8  C   UNL     1       3.449   4.538  17.304  0.00  0.00    +0.000 C 
ATOM      9  C   UNL     1       2.753   6.107  19.094  0.00  0.00    +0.000 A 
BRANCH   6  10
ATOM     10  C   UNL     1       1.462   2.495  18.722  0.00  0.00    +0.000 C 
ATOM     11  N   UNL     1       2.435   1.541  18.685  0.00  0.00    +0.000 N 
ATOM     12  O   UNL     1       0.312   2.186  18.436  0.00  0.00    +0.000 OA
ATOM     13  H   UNL     1       3.345   1.661  19.116  0.00  0.00    +0.000 HD
ATOM     14  H   UNL     1       2.126   0.599  18.467  0.00  0.00    +0.000 HD
ENDBRANCH   6  10
ENDBRANCH   1   3
BRANCH   1  15
ATOM     15  C   UNL     1       0.909   8.496  21.138  0.00  0.00    +0.000 C 
BRANCH  15  18
ATOM     16  C   UNL     1      -0.903  10.704  18.902  0.00  0.00    +0.000 A 
ATOM     17  N   UNL     1      -0.685   9.573  19.544  0.00  0.00    +0.000 NA
ATOM     18  C   UNL     1       0.453   9.685  20.335  0.00  0.00    +0.000 A 
ATOM     19  C   UNL     1       1.062  10.925  20.296  0.00  0.00    +0.000 A 
ATOM     20  S   UNL     1       0.226  11.959  19.217  0.00  0.00    +0.000 S 
BRANCH  16  25
ATOM     21  C   UNL     1      -3.402  10.344  14.734  0.00  0.00    +0.000 C 
ATOM     22  C   UNL     1      -3.202  10.753  16.137  0.00  0.00    +0.000 A 
ATOM     23  C   UNL     1      -3.994  11.395  17.060  0.00  0.00    +0.000 A 
ATOM     24  C   UNL     1      -3.231  11.467  18.249  0.00  0.00    +0.000 A 
ATOM     25  C   UNL     1      -2.004  10.874  17.996  0.00  0.00    +0.000 A 
ATOM     26  O   UNL     1      -1.996  10.443  16.689  0.00  0.00    +0.000 OA
ENDBRANCH  16  25
ENDBRANCH  15  18
ENDBRANCH   1  15
TORSDOF 5
ENDMDL
MODEL 8
REMARK VINA RESULT:      -7.3      5.681      7.920
REMARK  Name = 
REMARK  7 active torsions:
REMARK  status: ('A' for Active; 'I' for Inactive)
REMARK    1  A    between atoms: C_1  and  C_2
REMARK    2  A    between atoms: C_5  and  C_6
REMARK    3  A    between atoms: C_8  and  C_9
REMARK    4  A    between atoms: C_9  and  N_10
REMARK    5  A    between atoms: N_10  and  C_11
REMARK    6  A    between atoms: C_14  and  C_15
REMARK    7  A    between atoms: C_18  and  C_19
REMARK                            x       y       z     vdW  Elec       q    Type
REMARK                         _______ _______ _______ _____ _____    ______ ____
ROOT
ATOM      1  N   UNL     1       2.205   8.168  18.876  0.00  0.00    +0.000 N 
ATOM      2  H   UNL     1       2.972   8.782  18.613  0.00  0.00    +0.000 HD
ENDROOT
BRANCH   1   3
ATOM      3  C   UNL     1       2.574   6.818  18.895  0.00  0.00    +0.000 A 
ATOM      4  C   UNL     1       3.482   6.264  17.995  0.00  0.00    +0.000 A 
ATOM      5  C   UNL     1       3.923   4.945  18.135  0.00  0.00    +0.000 A 
ATOM      6  C   UNL     1       3.488   4.128  19.192  0.00  0.00    +0.000 A 
ATOM      7  C   UNL     1       2.584   4.663  20.127  0.00  0.00    +0.000 A 
ATOM      8  C   UNL     1       2.028   3.935  21.318  0.00  0.00    +0.000 C 
ATOM      9  C   UNL     1       2.153   6.005  19.958  0.00  0.00    +0.000 A 
BRANCH   6  10
ATOM     10  C   UNL     1       4.137   2.783  19.231  0.00  0.00    +0.000 C 
ATOM     11  N   UNL     1       3.950   1.912  18.199  0.00  0.00    +0.000 N 
ATOM     12  O   UNL     1       4.887   2.470  20.148  0.00  0.00    +0.000 OA
ATOM     13  H   UNL     1       3.535   2.181  17.315  0.00  0.00    +0.000 HD
ATOM     14  H   UNL     1       4.499   1.059  18.233  0.00  0.00    +0.000 HD
ENDBRANCH   6  10
ENDBRANCH   1   3
BRANCH   1  15
ATOM     15  C   UNL     1       1.483   8.714  20.029  0.00  0.00    +0.000 C 
BRANCH  15  18
ATOM     16  C   UNL     1      -1.138  10.765  18.587  0.00  0.00    +0.000 A 
ATOM     17  N   UNL     1      -0.434   9.659  18.737  0.00  0.00    +0.000 NA
ATOM     18  C   UNL     1       0.540   9.843  19.713  0.00  0.00    +0.000 A 
ATOM     19  C   UNL     1       0.531  11.091  20.308  0.00  0.00    +0.000 A 
ATOM     20  S   UNL     1      -0.686  12.070  19.606  0.00  0.00    +0.000 S 
BRANCH  16  25
ATOM     21  C   UNL     1      -3.473  10.145  14.355  0.00  0.00    +0.000 C 
ATOM     22  C   UNL     1      -3.330  10.635  15.739  0.00  0.00    +0.000 A 
ATOM     23  C   UNL     1      -4.162  11.321  16.592  0.00  0.00    +0.000 A 
ATOM     24  C   UNL     1      -3.445  11.467  17.804  0.00  0.00    +0.000 A 
ATOM     25  C   UNL     1      -2.205  10.872  17.631  0.00  0.00    +0.000 A 
ATOM     26  O   UNL     1      -2.144  10.368  16.353  0.00  0.00    +0.000 OA
ENDBRANCH  16  25
ENDBRANCH  15  18
ENDBRANCH   1  15
TORSDOF 5
ENDMDL
MODEL 9
REMARK VINA RESULT:      -7.3      5.554      9.040
REMARK  Name = 
REMARK  7 active torsions:
REMARK  status: ('A' for Active; 'I' for Inactive)
REMARK    1  A    between atoms: C_1  and  C_2
REMARK    2  A    between atoms: C_5  and  C_6
REMARK    3  A    between atoms: C_8  and  C_9
REMARK    4  A    between atoms: C_9  and  N_10
REMARK    5  A    between atoms: N_10  and  C_11
REMARK    6  A    between atoms: C_14  and  C_15
REMARK    7  A    between atoms: C_18  and  C_19
REMARK                            x       y       z     vdW  Elec       q    Type
REMARK                         _______ _______ _______ _____ _____    ______ ____
ROOT
ATOM      1  N   UNL     1       2.086   7.482  20.116  0.00  0.00    +0.000 N 
ATOM      2  H   UNL     1       1.300   7.547  20.759  0.00  0.00    +0.000 HD
ENDROOT
BRANCH   1   3
ATOM      3  C   UNL     1       2.518   6.165  19.920  0.00  0.00    +0.000 A 
ATOM      4  C   UNL     1       3.606   5.832  19.118  0.00  0.00    +0.000 A 
ATOM      5  C   UNL     1       4.084   4.520  19.059  0.00  0.00    +0.000 A 
ATOM      6  C   UNL     1       3.505   3.487  19.815  0.00  0.00    +0.000 A 
ATOM      7  C   UNL     1       2.415   3.794  20.648  0.00  0.00    +0.000 A 
ATOM      8  C   UNL     1       1.688   2.818  21.529  0.00  0.00    +0.000 C 
ATOM      9  C   UNL     1       1.950   5.135  20.687  0.00  0.00    +0.000 A 
BRANCH   6  10
ATOM     10  C   UNL     1       4.207   2.174  19.694  0.00  0.00    +0.000 C 
ATOM     11  N   UNL     1       3.969   1.376  18.615  0.00  0.00    +0.000 N 
ATOM     12  O   UNL     1       5.043   1.827  20.520  0.00  0.00    +0.000 OA
ATOM     13  H   UNL     1       3.471   1.693  17.791  0.00  0.00    +0.000 HD
ATOM     14  H   UNL     1       4.553   0.549  18.536  0.00  0.00    +0.000 HD
ENDBRANCH   6  10
ENDBRANCH   1   3
BRANCH   1  15
ATOM     15  C   UNL     1       1.856   8.327  18.940  0.00  0.00    +0.000 C 
BRANCH  15  18
ATOM     16  C   UNL     1      -0.087  11.038  20.365  0.00  0.00    +0.000 A 
ATOM     17  N   UNL     1       0.354   9.797  20.289  0.00  0.00    +0.000 NA
ATOM     18  C   UNL     1       1.249   9.672  19.232  0.00  0.00    +0.000 A 
ATOM     19  C   UNL     1       1.491  10.845  18.541  0.00  0.00    +0.000 A 
ATOM     20  S   UNL     1       0.551  12.119  19.193  0.00  0.00    +0.000 S 
BRANCH  16  25
ATOM     21  C   UNL     1      -4.072  13.199  22.151  0.00  0.00    +0.000 C 
ATOM     22  C   UNL     1      -2.827  12.414  22.243  0.00  0.00    +0.000 A 
ATOM     23  C   UNL     1      -2.174  11.791  23.281  0.00  0.00    +0.000 A 
ATOM     24  C   UNL     1      -1.035  11.174  22.713  0.00  0.00    +0.000 A 
ATOM     25  C   UNL     1      -1.039  11.456  21.356  0.00  0.00    +0.000 A 
ATOM     26  O   UNL     1      -2.146  12.225  21.080  0.00  0.00    +0.000 OA
ENDBRANCH  16  25
ENDBRANCH  15  18
ENDBRANCH   1  15
TORSDOF 5
ENDMDL
