MODEL 1
REMARK VINA RESULT:      -9.0      0.000      0.000
REMARK  Name = 
REMARK  6 active torsions:
REMARK  status: ('A' for Active; 'I' for Inactive)
REMARK    1  A    between atoms: C_1  and  C_2
REMARK    2  A    between atoms: C_2  and  C_3
REMARK    3  A    between atoms: C_6  and  C_7
REMARK    4  A    between atoms: C_10  and  C_11
REMARK    5  A    between atoms: N_19  and  C_20
REMARK    6  A    between atoms: C_25  and  C_26
REMARK                            x       y       z     vdW  Elec       q    Type
REMARK                         _______ _______ _______ _____ _____    ______ ____
ROOT
ATOM      1  C   UNL     1       5.058   5.329  16.435  0.00  0.00    +0.000 A 
ATOM      2  N   UNL     1       5.334   6.523  15.950  0.00  0.00    +0.000 NA
ATOM      3  N   UNL     1       4.456   7.418  16.493  0.00  0.00    +0.000 NA
ATOM      4  C   UNL     1       3.670   6.785  17.347  0.00  0.00    +0.000 A 
ATOM      5  N   UNL     1       3.951   5.416  17.284  0.00  0.00    +0.000 N 
ENDROOT
BRANCH   5   6
ATOM      6  C   UNL     1       3.306   4.336  17.966  0.00  0.00    +0.000 A 
ATOM      7  C   UNL     1       2.019   3.978  17.526  0.00  0.00    +0.000 A 
ATOM      8  C   UNL     1       1.309   2.944  18.135  0.00  0.00    +0.000 A 
ATOM      9  C   UNL     1       1.895   2.213  19.160  0.00  0.00    +0.000 A 
ATOM     10  C   UNL     1       3.182   2.532  19.584  0.00  0.00    +0.000 A 
ATOM     11  C   UNL     1       3.895   3.618  19.035  0.00  0.00    +0.000 A 
ATOM     12  C   UNL     1       5.222   3.922  19.681  0.00  0.00    +0.000 C 
ENDBRANCH   5   6
BRANCH   4  13
ATOM     13  C   UNL     1       2.703   7.462  18.211  0.00  0.00    +0.000 A 
ATOM     14  C   UNL     1       2.493   6.988  19.510  0.00  0.00    +0.000 A 
ATOM     15  C   UNL     1       1.720   7.719  20.423  0.00  0.00    +0.000 A 
ATOM     16  C   UNL     1       1.144   8.954  20.077  0.00  0.00    +0.000 A 
ATOM     17  C   UNL     1       1.297   9.369  18.743  0.00  0.00    +0.000 A 
ATOM     18  C   UNL     1       2.028   8.620  17.814  0.00  0.00    +0.000 A 
BRANCH  16  19
ATOM     19  C   UNL     1       0.408   9.781  21.068  0.00  0.00    +0.000 A 
ATOM     20  C   UNL     1       0.024   9.274  22.325  0.00  0.00    +0.000 A 
ATOM     21  C   UNL     1      -0.702  10.049  23.238  0.00  0.00    +0.000 A 
ATOM     22  C   UNL     1      -1.044  11.360  22.925  0.00  0.00    +0.000 A 
ATOM     23  C   UNL     1      -0.651  11.899  21.706  0.00  0.00    +0.000 A 
ATOM     24  C   UNL     1       0.060  11.116  20.792  0.00  0.00    +0.000 A 
ENDBRANCH  16  19
ENDBRANCH   4  13
BRANCH   1  26
ATOM     25  C   UNL     1       6.109   3.949  14.606  0.00  0.00    +0.000 C 
ATOM     26  C   UNL     1       5.806   4.080  16.090  0.00  0.00    +0.000 C 
ENDBRANCH   1  26
TORSDOF 4
ENDMDL
MODEL 2
REMARK VINA RESULT:      -8.8      1.664      3.413
REMARK  Name = 
REMARK  6 active torsions:
REMARK  status: ('A' for Active; 'I' for Inactive)
REMARK    1  A    between atoms: C_1  and  C_2
REMARK    2  A    between atoms: C_2  and  C_3
REMARK    3  A    between atoms: C_6  and  C_7
REMARK    4  A    between atoms: C_10  and  C_11
REMARK    5  A    between atoms: N_19  and  C_20
REMARK    6  A    between atoms: C_25  and  C_26
REMARK                            x       y       z     vdW  Elec       q    Type
REMARK                         _______ _______ _______ _____ _____    ______ ____
ROOT
ATOM      1  C   UNL     1       4.374   3.754  16.720  0.00  0.00    +0.000 A 
ATOM      2  N   UNL     1       3.148   3.272  16.765  0.00  0.00    +0.000 NA
ATOM      3  N   UNL     1       2.420   4.035  17.633  0.00  0.00    +0.000 NA
ATOM      4  C   UNL     1       3.182   5.015  18.087  0.00  0.00    +0.000 A 
ATOM      5  N   UNL     1       4.482   4.832  17.603  0.00  0.00    +0.000 N 
ENDROOT
BRANCH   5   6
ATOM      6  C   UNL     1       5.660   5.594  17.887  0.00  0.00    +0.000 A 
ATOM      7  C   UNL     1       6.444   5.180  18.979  0.00  0.00    +0.000 A 
ATOM      8  C   UNL     1       7.604   5.865  19.337  0.00  0.00    +0.000 A 
ATOM      9  C   UNL     1       8.032   6.944  18.576  0.00  0.00    +0.000 A 
ATOM     10  C   UNL     1       7.286   7.346  17.470  0.00  0.00    +0.000 A 
ATOM     11  C   UNL     1       6.071   6.716  17.129  0.00  0.00    +0.000 A 
ATOM     12  C   UNL     1       5.311   7.340  15.987  0.00  0.00    +0.000 C 
ENDBRANCH   5   6
BRANCH   4  13
ATOM     13  C   UNL     1       2.686   6.102  18.931  0.00  0.00    +0.000 A 
ATOM     14  C   UNL     1       2.560   7.386  18.394  0.00  0.00    +0.000 A 
ATOM     15  C   UNL     1       1.915   8.404  19.111  0.00  0.00    +0.000 A 
ATOM     16  C   UNL     1       1.359   8.170  20.381  0.00  0.00    +0.000 A 
ATOM     17  C   UNL     1       1.571   6.896  20.937  0.00  0.00    +0.000 A 
ATOM     18  C   UNL     1       2.256   5.892  20.245  0.00  0.00    +0.000 A 
BRANCH  16  19
ATOM     19  C   UNL     1       0.588   9.214  21.104  0.00  0.00    +0.000 A 
ATOM     20  C   UNL     1       0.217   9.067  22.455  0.00  0.00    +0.000 A 
ATOM     21  C   UNL     1      -0.543  10.039  23.117  0.00  0.00    +0.000 A 
ATOM     22  C   UNL     1      -0.932  11.195  22.451  0.00  0.00    +0.000 A 
ATOM     23  C   UNL     1      -0.553  11.385  21.127  0.00  0.00    +0.000 A 
ATOM     24  C   UNL     1       0.192  10.404  20.466  0.00  0.00    +0.000 A 
ENDBRANCH  16  19
ENDBRANCH   4  13
BRANCH   1  26
ATOM     25  C   UNL     1       5.701   3.978  14.589  0.00  0.00    +0.000 C 
ATOM     26  C   UNL     1       5.474   3.197  15.873  0.00  0.00    +0.000 C 
ENDBRANCH   1  26
TORSDOF 4
ENDMDL
MODEL 3
REMARK VINA RESULT:      -8.6      0.441      1.680
REMARK  Name = 
REMARK  6 active torsions:
REMARK  status: ('A' for Active; 'I' for Inactive)
REMARK    1  A    between atoms: C_1  and  C_2
REMARK    2  A    between atoms: C_2  and  C_3
REMARK    3  A    between atoms: C_6  and  C_7
REMARK    4  A    between atoms: C_10  and  C_11
REMARK    5  A    between atoms: N_19  and  C_20
REMARK    6  A    between atoms: C_25  and  C_26
REMARK                            x       y       z     vdW  Elec       q    Type
REMARK                         _______ _______ _______ _____ _____    ______ ____
ROOT
ATOM      1  C   UNL     1       5.255   5.384  16.640  0.00  0.00    +0.000 A 
ATOM      2  N   UNL     1       5.390   6.548  16.036  0.00  0.00    +0.000 NA
ATOM      3  N   UNL     1       4.440   7.397  16.526  0.00  0.00    +0.000 NA
ATOM      4  C   UNL     1       3.748   6.774  17.463  0.00  0.00    +0.000 A 
ATOM      5  N   UNL     1       4.169   5.440  17.518  0.00  0.00    +0.000 N 
ENDROOT
BRANCH   5   6
ATOM      6  C   UNL     1       3.660   4.372  18.322  0.00  0.00    +0.000 A 
ATOM      7  C   UNL     1       4.538   3.800  19.261  0.00  0.00    +0.000 A 
ATOM      8  C   UNL     1       4.134   2.749  20.082  0.00  0.00    +0.000 A 
ATOM      9  C   UNL     1       2.826   2.285  20.018  0.00  0.00    +0.000 A 
ATOM     10  C   UNL     1       1.934   2.863  19.119  0.00  0.00    +0.000 A 
ATOM     11  C   UNL     1       2.336   3.879  18.226  0.00  0.00    +0.000 A 
ATOM     12  C   UNL     1       1.298   4.317  17.226  0.00  0.00    +0.000 C 
ENDBRANCH   5   6
BRANCH   4  13
ATOM     13  C   UNL     1       2.739   7.429  18.297  0.00  0.00    +0.000 A 
ATOM     14  C   UNL     1       2.560   7.006  19.617  0.00  0.00    +0.000 A 
ATOM     15  C   UNL     1       1.742   7.730  20.497  0.00  0.00    +0.000 A 
ATOM     16  C   UNL     1       1.089   8.908  20.093  0.00  0.00    +0.000 A 
ATOM     17  C   UNL     1       1.215   9.267  18.739  0.00  0.00    +0.000 A 
ATOM     18  C   UNL     1       1.992   8.521  17.846  0.00  0.00    +0.000 A 
BRANCH  16  19
ATOM     19  C   UNL     1       0.302   9.734  21.044  0.00  0.00    +0.000 A 
ATOM     20  C   UNL     1      -0.214  10.996  20.688  0.00  0.00    +0.000 A 
ATOM     21  C   UNL     1      -0.922  11.785  21.604  0.00  0.00    +0.000 A 
ATOM     22  C   UNL     1      -1.152  11.320  22.893  0.00  0.00    +0.000 A 
ATOM     23  C   UNL     1      -0.684  10.066  23.265  0.00  0.00    +0.000 A 
ATOM     24  C   UNL     1       0.036   9.289  22.352  0.00  0.00    +0.000 A 
ENDBRANCH  16  19
ENDBRANCH   4  13
BRANCH   1  26
ATOM     25  C   UNL     1       6.080   3.715  14.942  0.00  0.00    +0.000 C 
ATOM     26  C   UNL     1       6.119   4.191  16.385  0.00  0.00    +0.000 C 
ENDBRANCH   1  26
TORSDOF 4
ENDMDL
MODEL 4
REMARK VINA RESULT:      -8.6      1.317      1.985
REMARK  Name = 
REMARK  6 active torsions:
REMARK  status: ('A' for Active; 'I' for Inactive)
REMARK    1  A    between atoms: C_1  and  C_2
REMARK    2  A    between atoms: C_2  and  C_3
REMARK    3  A    between atoms: C_6  and  C_7
REMARK    4  A    between atoms: C_10  and  C_11
REMARK    5  A    between atoms: N_19  and  C_20
REMARK    6  A    between atoms: C_25  and  C_26
REMARK                            x       y       z     vdW  Elec       q    Type
REMARK                         _______ _______ _______ _____ _____    ______ ____
ROOT
ATOM      1  C   UNL     1       4.549   5.567  17.749  0.00  0.00    +0.000 A 
ATOM      2  N   UNL     1       4.892   6.659  17.095  0.00  0.00    +0.000 NA
ATOM      3  N   UNL     1       3.975   7.632  17.376  0.00  0.00    +0.000 NA
ATOM      4  C   UNL     1       3.094   7.155  18.238  0.00  0.00    +0.000 A 
ATOM      5  N   UNL     1       3.360   5.797  18.447  0.00  0.00    +0.000 N 
ENDROOT
BRANCH   5   6
ATOM      6  C   UNL     1       2.631   4.852  19.235  0.00  0.00    +0.000 A 
ATOM      7  C   UNL     1       2.999   4.723  20.586  0.00  0.00    +0.000 A 
ATOM      8  C   UNL     1       2.352   3.821  21.429  0.00  0.00    +0.000 A 
ATOM      9  C   UNL     1       1.286   3.071  20.951  0.00  0.00    +0.000 A 
ATOM     10  C   UNL     1       0.886   3.211  19.625  0.00  0.00    +0.000 A 
ATOM     11  C   UNL     1       1.569   4.062  18.731  0.00  0.00    +0.000 A 
ATOM     12  C   UNL     1       1.103   4.014  17.299  0.00  0.00    +0.000 C 
ENDBRANCH   5   6
BRANCH   4  13
ATOM     13  C   UNL     1       2.050   7.969  18.863  0.00  0.00    +0.000 A 
ATOM     14  C   UNL     1       1.791   7.823  20.229  0.00  0.00    +0.000 A 
ATOM     15  C   UNL     1       0.936   8.712  20.895  0.00  0.00    +0.000 A 
ATOM     16  C   UNL     1       0.324   9.787  20.225  0.00  0.00    +0.000 A 
ATOM     17  C   UNL     1       0.532   9.864  18.837  0.00  0.00    +0.000 A 
ATOM     18  C   UNL     1       1.346   8.950  18.159  0.00  0.00    +0.000 A 
BRANCH  16  19
ATOM     19  C   UNL     1      -0.502  10.791  20.943  0.00  0.00    +0.000 A 
ATOM     20  C   UNL     1      -0.634  10.783  22.346  0.00  0.00    +0.000 A 
ATOM     21  C   UNL     1      -1.445  11.711  23.011  0.00  0.00    +0.000 A 
ATOM     22  C   UNL     1      -2.128  12.685  22.292  0.00  0.00    +0.000 A 
ATOM     23  C   UNL     1      -1.993  12.738  20.910  0.00  0.00    +0.000 A 
ATOM     24  C   UNL     1      -1.194  11.801  20.248  0.00  0.00    +0.000 A 
ENDBRANCH  16  19
ENDBRANCH   4  13
BRANCH   1  26
ATOM     25  C   UNL     1       5.574   3.778  16.300  0.00  0.00    +0.000 C 
ATOM     26  C   UNL     1       5.311   4.281  17.710  0.00  0.00    +0.000 C 
ENDBRANCH   1  26
TORSDOF 4
ENDMDL
MODEL 5
REMARK VINA RESULT:      -8.5      1.413      2.251
REMARK  Name = 
REMARK  6 active torsions:
REMARK  status: ('A' for Active; 'I' for Inactive)
REMARK    1  A    between atoms: C_1  and  C_2
REMARK    2  A    between atoms: C_2  and  C_3
REMARK    3  A    between atoms: C_6  and  C_7
REMARK    4  A    between atoms: C_10  and  C_11
REMARK    5  A    between atoms: N_19  and  C_20
REMARK    6  A    between atoms: C_25  and  C_26
REMARK                            x       y       z     vdW  Elec       q    Type
REMARK                         _______ _______ _______ _____ _____    ______ ____
ROOT
ATOM      1  C   UNL     1       4.595   5.605  17.838  0.00  0.00    +0.000 A 
ATOM      2  N   UNL     1       4.952   6.697  17.191  0.00  0.00    +0.000 NA
ATOM      3  N   UNL     1       4.025   7.667  17.445  0.00  0.00    +0.000 NA
ATOM      4  C   UNL     1       3.122   7.190  18.283  0.00  0.00    +0.000 A 
ATOM      5  N   UNL     1       3.387   5.833  18.502  0.00  0.00    +0.000 N 
ENDROOT
BRANCH   5   6
ATOM      6  C   UNL     1       2.639   4.886  19.271  0.00  0.00    +0.000 A 
ATOM      7  C   UNL     1       2.965   4.767  20.634  0.00  0.00    +0.000 A 
ATOM      8  C   UNL     1       2.297   3.865  21.461  0.00  0.00    +0.000 A 
ATOM      9  C   UNL     1       1.252   3.105  20.954  0.00  0.00    +0.000 A 
ATOM     10  C   UNL     1       0.893   3.236  19.614  0.00  0.00    +0.000 A 
ATOM     11  C   UNL     1       1.599   4.087  18.739  0.00  0.00    +0.000 A 
ATOM     12  C   UNL     1       1.179   4.028  17.292  0.00  0.00    +0.000 C 
ENDBRANCH   5   6
BRANCH   4  13
ATOM     13  C   UNL     1       2.059   8.001  18.877  0.00  0.00    +0.000 A 
ATOM     14  C   UNL     1       1.780   7.875  20.241  0.00  0.00    +0.000 A 
ATOM     15  C   UNL     1       0.904   8.766  20.879  0.00  0.00    +0.000 A 
ATOM     16  C   UNL     1       0.290   9.821  20.180  0.00  0.00    +0.000 A 
ATOM     17  C   UNL     1       0.519   9.877  18.794  0.00  0.00    +0.000 A 
ATOM     18  C   UNL     1       1.354   8.961  18.145  0.00  0.00    +0.000 A 
BRANCH  16  19
ATOM     19  C   UNL     1      -0.560  10.827  20.868  0.00  0.00    +0.000 A 
ATOM     20  C   UNL     1      -1.290  11.799  20.156  0.00  0.00    +0.000 A 
ATOM     21  C   UNL     1      -2.059  12.767  20.815  0.00  0.00    +0.000 A 
ATOM     22  C   UNL     1      -2.133  12.774  22.203  0.00  0.00    +0.000 A 
ATOM     23  C   UNL     1      -1.450  11.808  22.931  0.00  0.00    +0.000 A 
ATOM     24  C   UNL     1      -0.672  10.853  22.271  0.00  0.00    +0.000 A 
ENDBRANCH  16  19
ENDBRANCH   4  13
BRANCH   1  26
ATOM     25  C   UNL     1       6.832   4.500  17.478  0.00  0.00    +0.000 C 
ATOM     26  C   UNL     1       5.362   4.321  17.822  0.00  0.00    +0.000 C 
ENDBRANCH   1  26
TORSDOF 4
ENDMDL
MODEL 6
REMARK VINA RESULT:      -8.4      3.055      8.478
REMARK  Name = 
REMARK  6 active torsions:
REMARK  status: ('A' for Active; 'I' for Inactive)
REMARK    1  A    between atoms: C_1  and  C_2
REMARK    2  A    between atoms: C_2  and  C_3
REMARK    3  A    between atoms: C_6  and  C_7
REMARK    4  A    between atoms: C_10  and  C_11
REMARK    5  A    between atoms: N_19  and  C_20
REMARK    6  A    between atoms: C_25  and  C_26
REMARK                            x       y       z     vdW  Elec       q    Type
REMARK                         _______ _______ _______ _____ _____    ______ ____
ROOT
ATOM      1  C   UNL     1      -0.326  10.929  22.409  0.00  0.00    +0.000 A 
ATOM      2  N   UNL     1       0.248  10.152  23.307  0.00  0.00    +0.000 NA
ATOM      3  N   UNL     1       0.835   9.106  22.654  0.00  0.00    +0.000 NA
ATOM      4  C   UNL     1       0.665   9.261  21.352  0.00  0.00    +0.000 A 
ATOM      5  N   UNL     1      -0.157  10.373  21.138  0.00  0.00    +0.000 N 
ENDROOT
BRANCH   5   6
ATOM      6  C   UNL     1      -0.674  10.881  19.904  0.00  0.00    +0.000 A 
ATOM      7  C   UNL     1      -1.744  10.179  19.320  0.00  0.00    +0.000 A 
ATOM      8  C   UNL     1      -2.307  10.594  18.114  0.00  0.00    +0.000 A 
ATOM      9  C   UNL     1      -1.848  11.750  17.498  0.00  0.00    +0.000 A 
ATOM     10  C   UNL     1      -0.813  12.476  18.081  0.00  0.00    +0.000 A 
ATOM     11  C   UNL     1      -0.177  12.040  19.262  0.00  0.00    +0.000 A 
ATOM     12  C   UNL     1       1.010  12.858  19.704  0.00  0.00    +0.000 C 
ENDBRANCH   5   6
BRANCH   4  13
ATOM     13  C   UNL     1       1.282   8.397  20.346  0.00  0.00    +0.000 A 
ATOM     14  C   UNL     1       1.655   8.938  19.112  0.00  0.00    +0.000 A 
ATOM     15  C   UNL     1       2.415   8.190  18.202  0.00  0.00    +0.000 A 
ATOM     16  C   UNL     1       2.843   6.884  18.498  0.00  0.00    +0.000 A 
ATOM     17  C   UNL     1       2.386   6.330  19.707  0.00  0.00    +0.000 A 
ATOM     18  C   UNL     1       1.587   7.056  20.598  0.00  0.00    +0.000 A 
BRANCH  16  19
ATOM     19  C   UNL     1       3.731   6.122  17.583  0.00  0.00    +0.000 A 
ATOM     20  C   UNL     1       4.671   6.763  16.751  0.00  0.00    +0.000 A 
ATOM     21  C   UNL     1       5.478   6.040  15.864  0.00  0.00    +0.000 A 
ATOM     22  C   UNL     1       5.382   4.655  15.802  0.00  0.00    +0.000 A 
ATOM     23  C   UNL     1       4.487   3.991  16.634  0.00  0.00    +0.000 A 
ATOM     24  C   UNL     1       3.672   4.718  17.507  0.00  0.00    +0.000 A 
ENDBRANCH  16  19
ENDBRANCH   4  13
BRANCH   1  26
ATOM     25  C   UNL     1      -2.503  11.950  23.163  0.00  0.00    +0.000 C 
ATOM     26  C   UNL     1      -1.066  12.188  22.728  0.00  0.00    +0.000 C 
ENDBRANCH   1  26
TORSDOF 4
ENDMDL
MODEL 7
REMARK VINA RESULT:      -8.4      2.290      4.121
REMARK  Name = 
REMARK  6 active torsions:
REMARK  status: ('A' for Active; 'I' for Inactive)
REMARK    1  A    between atoms: C_1  and  C_2
REMARK    2  A    between atoms: C_2  and  C_3
REMARK    3  A    between atoms: C_6  and  C_7
REMARK    4  A    between atoms: C_10  and  C_11
REMARK    5  A    between atoms: N_19  and  C_20
REMARK    6  A    between atoms: C_25  and  C_26
REMARK                            x       y       z     vdW  Elec       q    Type
REMARK                         _______ _______ _______ _____ _____    ______ ____
ROOT
ATOM      1  C   UNL     1       3.525   3.175  19.986  0.00  0.00    +0.000 A 
ATOM      2  N   UNL     1       2.481   3.158  20.790  0.00  0.00    +0.000 NA
ATOM      3  N   UNL     1       1.985   4.427  20.874  0.00  0.00    +0.000 NA
ATOM      4  C   UNL     1       2.693   5.219  20.088  0.00  0.00    +0.000 A 
ATOM      5  N   UNL     1       3.760   4.484  19.557  0.00  0.00    +0.000 N 
ENDROOT
BRANCH   5   6
ATOM      6  C   UNL     1       4.828   4.934  18.719  0.00  0.00    +0.000 A 
ATOM      7  C   UNL     1       5.924   5.551  19.350  0.00  0.00    +0.000 A 
ATOM      8  C   UNL     1       7.007   6.029  18.615  0.00  0.00    +0.000 A 
ATOM      9  C   UNL     1       7.042   5.850  17.239  0.00  0.00    +0.000 A 
ATOM     10  C   UNL     1       5.981   5.210  16.601  0.00  0.00    +0.000 A 
ATOM     11  C   UNL     1       4.841   4.782  17.312  0.00  0.00    +0.000 A 
ATOM     12  C   UNL     1       3.721   4.223  16.472  0.00  0.00    +0.000 C 
ENDBRANCH   5   6
BRANCH   4  13
ATOM     13  C   UNL     1       2.353   6.618  19.829  0.00  0.00    +0.000 A 
ATOM     14  C   UNL     1       2.487   7.129  18.534  0.00  0.00    +0.000 A 
ATOM     15  C   UNL     1       1.995   8.401  18.211  0.00  0.00    +0.000 A 
ATOM     16  C   UNL     1       1.339   9.201  19.165  0.00  0.00    +0.000 A 
ATOM     17  C   UNL     1       1.291   8.703  20.479  0.00  0.00    +0.000 A 
ATOM     18  C   UNL     1       1.823   7.453  20.816  0.00  0.00    +0.000 A 
BRANCH  16  19
ATOM     19  C   UNL     1       0.728  10.506  18.807  0.00  0.00    +0.000 A 
ATOM     20  C   UNL     1       1.470  11.704  18.809  0.00  0.00    +0.000 A 
ATOM     21  C   UNL     1       0.876  12.936  18.506  0.00  0.00    +0.000 A 
ATOM     22  C   UNL     1      -0.472  12.998  18.172  0.00  0.00    +0.000 A 
ATOM     23  C   UNL     1      -1.223  11.829  18.130  0.00  0.00    +0.000 A 
ATOM     24  C   UNL     1      -0.629  10.604  18.448  0.00  0.00    +0.000 A 
ENDBRANCH  16  19
ENDBRANCH   4  13
BRANCH   1  26
ATOM     25  C   UNL     1       3.766   1.180  18.466  0.00  0.00    +0.000 C 
ATOM     26  C   UNL     1       4.340   1.973  19.628  0.00  0.00    +0.000 C 
ENDBRANCH   1  26
TORSDOF 4
ENDMDL
MODEL 8
REMARK VINA RESULT:      -8.2      0.408      1.373
REMARK  Name = 
REMARK  6 active torsions:
REMARK  status: ('A' for Active; 'I' for Inactive)
REMARK    1  A    between atoms: C_1  and  C_2
REMARK    2  A    between atoms: C_2  and  C_3
REMARK    3  A    between atoms: C_6  and  C_7
REMARK    4  A    between atoms: C_10  and  C_11
REMARK    5  A    between atoms: N_19  and  C_20
REMARK    6  A    between atoms: C_25  and  C_26
REMARK                            x       y       z     vdW  Elec       q    Type
REMARK                         _______ _______ _______ _____ _____    ______ ____
ROOT
ATOM      1  C   UNL     1       4.788   5.088  16.192  0.00  0.00    +0.000 A 
ATOM      2  N   UNL     1       5.169   6.234  15.664  0.00  0.00    +0.000 NA
ATOM      3  N   UNL     1       4.527   7.243  16.325  0.00  0.00    +0.000 NA
ATOM      4  C   UNL     1       3.787   6.724  17.289  0.00  0.00    +0.000 A 
ATOM      5  N   UNL     1       3.844   5.329  17.194  0.00  0.00    +0.000 N 
ENDROOT
BRANCH   5   6
ATOM      6  C   UNL     1       3.148   4.349  17.971  0.00  0.00    +0.000 A 
ATOM      7  C   UNL     1       1.793   4.131  17.664  0.00  0.00    +0.000 A 
ATOM      8  C   UNL     1       1.032   3.202  18.372  0.00  0.00    +0.000 A 
ATOM      9  C   UNL     1       1.625   2.435  19.365  0.00  0.00    +0.000 A 
ATOM     10  C   UNL     1       2.975   2.614  19.659  0.00  0.00    +0.000 A 
ATOM     11  C   UNL     1       3.750   3.596  19.008  0.00  0.00    +0.000 A 
ATOM     12  C   UNL     1       5.158   3.761  19.519  0.00  0.00    +0.000 C 
ENDBRANCH   5   6
BRANCH   4  13
ATOM     13  C   UNL     1       3.072   7.526  18.282  0.00  0.00    +0.000 A 
ATOM     14  C   UNL     1       2.583   8.786  17.924  0.00  0.00    +0.000 A 
ATOM     15  C   UNL     1       1.735   9.497  18.785  0.00  0.00    +0.000 A 
ATOM     16  C   UNL     1       1.333   8.968  20.025  0.00  0.00    +0.000 A 
ATOM     17  C   UNL     1       1.904   7.739  20.400  0.00  0.00    +0.000 A 
ATOM     18  C   UNL     1       2.788   7.048  19.564  0.00  0.00    +0.000 A 
BRANCH  16  19
ATOM     19  C   UNL     1       0.357   9.669  20.898  0.00  0.00    +0.000 A 
ATOM     20  C   UNL     1      -0.411  10.756  20.436  0.00  0.00    +0.000 A 
ATOM     21  C   UNL     1      -1.301  11.435  21.277  0.00  0.00    +0.000 A 
ATOM     22  C   UNL     1      -1.463  11.030  22.596  0.00  0.00    +0.000 A 
ATOM     23  C   UNL     1      -0.743   9.940  23.072  0.00  0.00    +0.000 A 
ATOM     24  C   UNL     1       0.156   9.275  22.234  0.00  0.00    +0.000 A 
ENDBRANCH  16  19
ENDBRANCH   4  13
BRANCH   1  26
ATOM     25  C   UNL     1       6.132   3.801  14.494  0.00  0.00    +0.000 C 
ATOM     26  C   UNL     1       5.278   3.746  15.749  0.00  0.00    +0.000 C 
ENDBRANCH   1  26
TORSDOF 4
ENDMDL
MODEL 9
REMARK VINA RESULT:      -8.1      1.729      3.295
REMARK  Name = 
REMARK  6 active torsions:
REMARK  status: ('A' for Active; 'I' for Inactive)
REMARK    1  A    between atoms: C_1  and  C_2
REMARK    2  A    between atoms: C_2  and  C_3
REMARK    3  A    between atoms: C_6  and  C_7
REMARK    4  A    between atoms: C_10  and  C_11
REMARK    5  A    between atoms: N_19  and  C_20
REMARK    6  A    between atoms: C_25  and  C_26
REMARK                            x       y       z     vdW  Elec       q    Type
REMARK                         _______ _______ _______ _____ _____    ______ ____
ROOT
ATOM      1  C   UNL     1       4.651   4.134  16.524  0.00  0.00    +0.000 A 
ATOM      2  N   UNL     1       3.445   3.605  16.567  0.00  0.00    +0.000 NA
ATOM      3  N   UNL     1       2.687   4.337  17.435  0.00  0.00    +0.000 NA
ATOM      4  C   UNL     1       3.410   5.345  17.892  0.00  0.00    +0.000 A 
ATOM      5  N   UNL     1       4.717   5.214  17.409  0.00  0.00    +0.000 N 
ENDROOT
BRANCH   5   6
ATOM      6  C   UNL     1       5.863   6.020  17.695  0.00  0.00    +0.000 A 
ATOM      7  C   UNL     1       6.029   7.192  16.933  0.00  0.00    +0.000 A 
ATOM      8  C   UNL     1       7.120   8.036  17.134  0.00  0.00    +0.000 A 
ATOM      9  C   UNL     1       8.037   7.754  18.138  0.00  0.00    +0.000 A 
ATOM     10  C   UNL     1       7.869   6.616  18.924  0.00  0.00    +0.000 A 
ATOM     11  C   UNL     1       6.815   5.708  18.695  0.00  0.00    +0.000 A 
ATOM     12  C   UNL     1       6.834   4.459  19.539  0.00  0.00    +0.000 C 
ENDBRANCH   5   6
BRANCH   4  13
ATOM     13  C   UNL     1       2.871   6.411  18.738  0.00  0.00    +0.000 A 
ATOM     14  C   UNL     1       2.579   7.655  18.172  0.00  0.00    +0.000 A 
ATOM     15  C   UNL     1       1.890   8.632  18.905  0.00  0.00    +0.000 A 
ATOM     16  C   UNL     1       1.456   8.394  20.222  0.00  0.00    +0.000 A 
ATOM     17  C   UNL     1       1.834   7.169  20.799  0.00  0.00    +0.000 A 
ATOM     18  C   UNL     1       2.563   6.210  20.087  0.00  0.00    +0.000 A 
BRANCH  16  19
ATOM     19  C   UNL     1       0.639   9.385  20.969  0.00  0.00    +0.000 A 
ATOM     20  C   UNL     1       0.160   9.129  22.269  0.00  0.00    +0.000 A 
ATOM     21  C   UNL     1      -0.640  10.053  22.952  0.00  0.00    +0.000 A 
ATOM     22  C   UNL     1      -0.964  11.268  22.359  0.00  0.00    +0.000 A 
ATOM     23  C   UNL     1      -0.480  11.564  21.090  0.00  0.00    +0.000 A 
ATOM     24  C   UNL     1       0.306  10.631  20.407  0.00  0.00    +0.000 A 
ENDBRANCH  16  19
ENDBRANCH   4  13
BRANCH   1  26
ATOM     25  C   UNL     1       5.807   4.237  14.287  0.00  0.00    +0.000 C 
ATOM     26  C   UNL     1       5.772   3.622  15.676  0.00  0.00    +0.000 C 
ENDBRANCH   1  26
TORSDOF 4
ENDMDL
