MODEL 1
REMARK VINA RESULT:      -8.2      0.000      0.000
REMARK  Name = 
REMARK  2 active torsions:
REMARK  status: ('A' for Active; 'I' for Inactive)
REMARK    1  A    between atoms: C_8  and  C_9
REMARK    2  A    between atoms: C_9  and  C_10
REMARK                            x       y       z     vdW  Elec       q    Type
REMARK                         _______ _______ _______ _____ _____    ______ ____
ROOT
ATOM      1 CL   UNL     1       2.033   7.584  20.087  0.00  0.00    +0.000 Cl
ATOM      2  C   UNL     1       2.028   5.882  19.821  0.00  0.00    +0.000 A 
ATOM      3  C   UNL     1       1.349   5.053  20.709  0.00  0.00    +0.000 A 
ATOM      4  C   UNL     1       1.320   3.670  20.512  0.00  0.00    +0.000 A 
ATOM      5  C   UNL     1       2.010   3.159  19.405  0.00  0.00    +0.000 A 
ATOM      6  N   UNL     1       2.149   1.860  18.976  0.00  0.00    +0.000 N 
ATOM      7  C   UNL     1       2.940   1.813  17.862  0.00  0.00    +0.000 A 
ATOM      8  C   UNL     1       3.333   3.099  17.547  0.00  0.00    +0.000 A 
ATOM      9  C   UNL     1       2.720   3.965  18.514  0.00  0.00    +0.000 A 
ATOM     10  C   UNL     1       2.716   5.362  18.720  0.00  0.00    +0.000 A 
ATOM     11  H   UNL     1       1.734   1.057  19.429  0.00  0.00    +0.000 HD
ENDROOT
BRANCH   8  12
ATOM     12  C   UNL     1       4.245   3.496  16.421  0.00  0.00    +0.000 C 
BRANCH  12  13
ATOM     13  C   UNL     1       5.269   4.518  16.805  0.00  0.00    +0.000 A 
ATOM     14  C   UNL     1       5.520   5.770  16.275  0.00  0.00    +0.000 A 
ATOM     15  C   UNL     1       6.521   6.392  17.070  0.00  0.00    +0.000 A 
ATOM     16  C   UNL     1       7.124   7.665  17.070  0.00  0.00    +0.000 A 
ATOM     17  C   UNL     1       8.054   7.982  18.067  0.00  0.00    +0.000 A 
ATOM     18  C   UNL     1       8.402   7.046  19.039  0.00  0.00    +0.000 A 
ATOM     19  C   UNL     1       7.840   5.765  19.040  0.00  0.00    +0.000 A 
ATOM     20  C   UNL     1       6.897   5.471  18.048  0.00  0.00    +0.000 A 
ATOM     21  N   UNL     1       6.169   4.327  17.825  0.00  0.00    +0.000 N 
ATOM     22  H   UNL     1       6.231   3.492  18.393  0.00  0.00    +0.000 HD
ENDBRANCH  12  13
ENDBRANCH   8  12
TORSDOF 2
ENDMDL
MODEL 2
REMARK VINA RESULT:      -7.9      3.068      4.374
REMARK  Name = 
REMARK  2 active torsions:
REMARK  status: ('A' for Active; 'I' for Inactive)
REMARK    1  A    between atoms: C_8  and  C_9
REMARK    2  A    between atoms: C_9  and  C_10
REMARK                            x       y       z     vdW  Elec       q    Type
REMARK                         _______ _______ _______ _____ _____    ______ ____
ROOT
ATOM      1 CL   UNL     1       4.821   1.462  20.740  0.00  0.00    +0.000 Cl
ATOM      2  C   UNL     1       4.035   2.875  20.144  0.00  0.00    +0.000 A 
ATOM      3  C   UNL     1       2.685   3.073  20.418  0.00  0.00    +0.000 A 
ATOM      4  C   UNL     1       2.025   4.214  19.956  0.00  0.00    +0.000 A 
ATOM      5  C   UNL     1       2.767   5.131  19.199  0.00  0.00    +0.000 A 
ATOM      6  N   UNL     1       2.379   6.319  18.626  0.00  0.00    +0.000 N 
ATOM      7  C   UNL     1       3.425   6.877  17.945  0.00  0.00    +0.000 A 
ATOM      8  C   UNL     1       4.522   6.048  18.066  0.00  0.00    +0.000 A 
ATOM      9  C   UNL     1       4.115   4.944  18.889  0.00  0.00    +0.000 A 
ATOM     10  C   UNL     1       4.768   3.795  19.386  0.00  0.00    +0.000 A 
ATOM     11  H   UNL     1       1.451   6.713  18.692  0.00  0.00    +0.000 HD
ENDROOT
BRANCH   8  12
ATOM     12  C   UNL     1       5.868   6.262  17.435  0.00  0.00    +0.000 C 
BRANCH  12  13
ATOM     13  C   UNL     1       6.054   5.524  16.145  0.00  0.00    +0.000 A 
ATOM     14  C   UNL     1       5.254   4.573  15.540  0.00  0.00    +0.000 A 
ATOM     15  C   UNL     1       5.815   4.268  14.270  0.00  0.00    +0.000 A 
ATOM     16  C   UNL     1       5.422   3.449  13.194  0.00  0.00    +0.000 A 
ATOM     17  C   UNL     1       6.195   3.434  12.027  0.00  0.00    +0.000 A 
ATOM     18  C   UNL     1       7.356   4.199  11.933  0.00  0.00    +0.000 A 
ATOM     19  C   UNL     1       7.784   4.994  13.001  0.00  0.00    +0.000 A 
ATOM     20  C   UNL     1       6.988   5.014  14.152  0.00  0.00    +0.000 A 
ATOM     21  N   UNL     1       7.139   5.714  15.325  0.00  0.00    +0.000 N 
ATOM     22  H   UNL     1       7.903   6.350  15.515  0.00  0.00    +0.000 HD
ENDBRANCH  12  13
ENDBRANCH   8  12
TORSDOF 2
ENDMDL
MODEL 3
REMARK VINA RESULT:      -7.8      2.985      5.196
REMARK  Name = 
REMARK  2 active torsions:
REMARK  status: ('A' for Active; 'I' for Inactive)
REMARK    1  A    between atoms: C_8  and  C_9
REMARK    2  A    between atoms: C_9  and  C_10
REMARK                            x       y       z     vdW  Elec       q    Type
REMARK                         _______ _______ _______ _____ _____    ______ ____
ROOT
ATOM      1 CL   UNL     1       0.423   2.297  18.656  0.00  0.00    +0.000 Cl
ATOM      2  C   UNL     1       2.066   2.798  18.789  0.00  0.00    +0.000 A 
ATOM      3  C   UNL     1       2.975   1.991  19.466  0.00  0.00    +0.000 A 
ATOM      4  C   UNL     1       4.315   2.368  19.581  0.00  0.00    +0.000 A 
ATOM      5  C   UNL     1       4.697   3.587  19.007  0.00  0.00    +0.000 A 
ATOM      6  N   UNL     1       5.929   4.197  18.969  0.00  0.00    +0.000 N 
ATOM      7  C   UNL     1       5.840   5.402  18.330  0.00  0.00    +0.000 A 
ATOM      8  C   UNL     1       4.529   5.597  17.938  0.00  0.00    +0.000 A 
ATOM      9  C   UNL     1       3.801   4.428  18.344  0.00  0.00    +0.000 A 
ATOM     10  C   UNL     1       2.456   4.016  18.220  0.00  0.00    +0.000 A 
ATOM     11  H   UNL     1       6.773   3.811  19.368  0.00  0.00    +0.000 HD
ENDROOT
BRANCH   8  12
ATOM     12  C   UNL     1       3.984   6.811  17.242  0.00  0.00    +0.000 C 
BRANCH  12  13
ATOM     13  C   UNL     1       3.024   7.603  18.074  0.00  0.00    +0.000 A 
ATOM     14  C   UNL     1       2.242   8.692  17.739  0.00  0.00    +0.000 A 
ATOM     15  C   UNL     1       1.417   9.004  18.854  0.00  0.00    +0.000 A 
ATOM     16  C   UNL     1       0.390   9.939  19.084  0.00  0.00    +0.000 A 
ATOM     17  C   UNL     1      -0.282   9.930  20.312  0.00  0.00    +0.000 A 
ATOM     18  C   UNL     1       0.072   9.023  21.309  0.00  0.00    +0.000 A 
ATOM     19  C   UNL     1       1.111   8.107  21.116  0.00  0.00    +0.000 A 
ATOM     20  C   UNL     1       1.758   8.116  19.874  0.00  0.00    +0.000 A 
ATOM     21  N   UNL     1       2.774   7.323  19.396  0.00  0.00    +0.000 N 
ATOM     22  H   UNL     1       3.212   6.579  19.923  0.00  0.00    +0.000 HD
ENDBRANCH  12  13
ENDBRANCH   8  12
TORSDOF 2
ENDMDL
MODEL 4
REMARK VINA RESULT:      -7.7      3.394      6.331
REMARK  Name = 
REMARK  2 active torsions:
REMARK  status: ('A' for Active; 'I' for Inactive)
REMARK    1  A    between atoms: C_8  and  C_9
REMARK    2  A    between atoms: C_9  and  C_10
REMARK                            x       y       z     vdW  Elec       q    Type
REMARK                         _______ _______ _______ _____ _____    ______ ____
ROOT
ATOM      1 CL   UNL     1       4.643   2.796  11.204  0.00  0.00    +0.000 Cl
ATOM      2  C   UNL     1       5.556   3.570  12.444  0.00  0.00    +0.000 A 
ATOM      3  C   UNL     1       6.800   4.113  12.139  0.00  0.00    +0.000 A 
ATOM      4  C   UNL     1       7.557   4.756  13.122  0.00  0.00    +0.000 A 
ATOM      5  C   UNL     1       7.024   4.814  14.416  0.00  0.00    +0.000 A 
ATOM      6  N   UNL     1       7.542   5.375  15.559  0.00  0.00    +0.000 N 
ATOM      7  C   UNL     1       6.695   5.170  16.612  0.00  0.00    +0.000 A 
ATOM      8  C   UNL     1       5.597   4.462  16.162  0.00  0.00    +0.000 A 
ATOM      9  C   UNL     1       5.790   4.256  14.754  0.00  0.00    +0.000 A 
ATOM     10  C   UNL     1       5.032   3.632  13.740  0.00  0.00    +0.000 A 
ATOM     11  H   UNL     1       8.429   5.858  15.611  0.00  0.00    +0.000 HD
ENDROOT
BRANCH   8  12
ATOM     12  C   UNL     1       4.444   3.989  17.000  0.00  0.00    +0.000 C 
BRANCH  12  13
ATOM     13  C   UNL     1       3.789   5.076  17.793  0.00  0.00    +0.000 A 
ATOM     14  C   UNL     1       3.554   6.399  17.467  0.00  0.00    +0.000 A 
ATOM     15  C   UNL     1       2.795   6.984  18.517  0.00  0.00    +0.000 A 
ATOM     16  C   UNL     1       2.208   8.249  18.717  0.00  0.00    +0.000 A 
ATOM     17  C   UNL     1       1.446   8.475  19.869  0.00  0.00    +0.000 A 
ATOM     18  C   UNL     1       1.285   7.473  20.824  0.00  0.00    +0.000 A 
ATOM     19  C   UNL     1       1.886   6.220  20.663  0.00  0.00    +0.000 A 
ATOM     20  C   UNL     1       2.627   6.004  19.495  0.00  0.00    +0.000 A 
ATOM     21  N   UNL     1       3.291   4.882  19.059  0.00  0.00    +0.000 N 
ATOM     22  H   UNL     1       3.328   4.009  19.567  0.00  0.00    +0.000 HD
ENDBRANCH  12  13
ENDBRANCH   8  12
TORSDOF 2
ENDMDL
MODEL 5
REMARK VINA RESULT:      -7.7      0.809      1.431
REMARK  Name = 
REMARK  2 active torsions:
REMARK  status: ('A' for Active; 'I' for Inactive)
REMARK    1  A    between atoms: C_8  and  C_9
REMARK    2  A    between atoms: C_9  and  C_10
REMARK                            x       y       z     vdW  Elec       q    Type
REMARK                         _______ _______ _______ _____ _____    ______ ____
ROOT
ATOM      1 CL   UNL     1       1.451   6.791  20.739  0.00  0.00    +0.000 Cl
ATOM      2  C   UNL     1       1.745   5.179  20.206  0.00  0.00    +0.000 A 
ATOM      3  C   UNL     1       1.222   4.113  20.932  0.00  0.00    +0.000 A 
ATOM      4  C   UNL     1       1.435   2.796  20.518  0.00  0.00    +0.000 A 
ATOM      5  C   UNL     1       2.204   2.596  19.364  0.00  0.00    +0.000 A 
ATOM      6  N   UNL     1       2.567   1.427  18.738  0.00  0.00    +0.000 N 
ATOM      7  C   UNL     1       3.354   1.698  17.653  0.00  0.00    +0.000 A 
ATOM      8  C   UNL     1       3.515   3.067  17.556  0.00  0.00    +0.000 A 
ATOM      9  C   UNL     1       2.760   3.646  18.631  0.00  0.00    +0.000 A 
ATOM     10  C   UNL     1       2.512   4.970  19.055  0.00  0.00    +0.000 A 
ATOM     11  H   UNL     1       2.300   0.503  19.046  0.00  0.00    +0.000 HD
ENDROOT
BRANCH   8  12
ATOM     12  C   UNL     1       4.342   3.791  16.533  0.00  0.00    +0.000 C 
BRANCH  12  13
ATOM     13  C   UNL     1       5.282   4.798  17.119  0.00  0.00    +0.000 A 
ATOM     14  C   UNL     1       6.206   4.666  18.139  0.00  0.00    +0.000 A 
ATOM     15  C   UNL     1       6.931   5.884  18.238  0.00  0.00    +0.000 A 
ATOM     16  C   UNL     1       8.019   6.318  19.020  0.00  0.00    +0.000 A 
ATOM     17  C   UNL     1       8.547   7.597  18.808  0.00  0.00    +0.000 A 
ATOM     18  C   UNL     1       7.993   8.446  17.852  0.00  0.00    +0.000 A 
ATOM     19  C   UNL     1       6.892   8.049  17.087  0.00  0.00    +0.000 A 
ATOM     20  C   UNL     1       6.389   6.760  17.297  0.00  0.00    +0.000 A 
ATOM     21  N   UNL     1       5.355   6.097  16.680  0.00  0.00    +0.000 N 
ATOM     22  H   UNL     1       4.785   6.491  15.942  0.00  0.00    +0.000 HD
ENDBRANCH  12  13
ENDBRANCH   8  12
TORSDOF 2
ENDMDL
MODEL 6
REMARK VINA RESULT:      -7.6      3.006      5.537
REMARK  Name = 
REMARK  2 active torsions:
REMARK  status: ('A' for Active; 'I' for Inactive)
REMARK    1  A    between atoms: C_8  and  C_9
REMARK    2  A    between atoms: C_9  and  C_10
REMARK                            x       y       z     vdW  Elec       q    Type
REMARK                         _______ _______ _______ _____ _____    ______ ____
ROOT
ATOM      1 CL   UNL     1       7.820   7.862  17.506  0.00  0.00    +0.000 Cl
ATOM      2  C   UNL     1       6.881   6.431  17.307  0.00  0.00    +0.000 A 
ATOM      3  C   UNL     1       7.153   5.577  16.243  0.00  0.00    +0.000 A 
ATOM      4  C   UNL     1       6.415   4.405  16.063  0.00  0.00    +0.000 A 
ATOM      5  C   UNL     1       5.389   4.138  16.980  0.00  0.00    +0.000 A 
ATOM      6  N   UNL     1       4.517   3.077  17.043  0.00  0.00    +0.000 N 
ATOM      7  C   UNL     1       3.652   3.239  18.089  0.00  0.00    +0.000 A 
ATOM      8  C   UNL     1       3.952   4.426  18.729  0.00  0.00    +0.000 A 
ATOM      9  C   UNL     1       5.079   4.990  18.041  0.00  0.00    +0.000 A 
ATOM     10  C   UNL     1       5.853   6.158  18.216  0.00  0.00    +0.000 A 
ATOM     11  H   UNL     1       4.512   2.297  16.400  0.00  0.00    +0.000 HD
ENDROOT
BRANCH   8  12
ATOM     12  C   UNL     1       3.220   5.009  19.904  0.00  0.00    +0.000 C 
BRANCH  12  13
ATOM     13  C   UNL     1       2.656   6.372  19.646  0.00  0.00    +0.000 A 
ATOM     14  C   UNL     1       2.546   7.082  18.465  0.00  0.00    +0.000 A 
ATOM     15  C   UNL     1       1.831   8.280  18.736  0.00  0.00    +0.000 A 
ATOM     16  C   UNL     1       1.359   9.343  17.941  0.00  0.00    +0.000 A 
ATOM     17  C   UNL     1       0.607  10.362  18.538  0.00  0.00    +0.000 A 
ATOM     18  C   UNL     1       0.346  10.345  19.906  0.00  0.00    +0.000 A 
ATOM     19  C   UNL     1       0.832   9.318  20.721  0.00  0.00    +0.000 A 
ATOM     20  C   UNL     1       1.564   8.296  20.105  0.00  0.00    +0.000 A 
ATOM     21  N   UNL     1       2.128   7.162  20.638  0.00  0.00    +0.000 N 
ATOM     22  H   UNL     1       2.081   6.908  21.616  0.00  0.00    +0.000 HD
ENDBRANCH  12  13
ENDBRANCH   8  12
TORSDOF 2
ENDMDL
MODEL 7
REMARK VINA RESULT:      -7.6      3.357      6.353
REMARK  Name = 
REMARK  2 active torsions:
REMARK  status: ('A' for Active; 'I' for Inactive)
REMARK    1  A    between atoms: C_8  and  C_9
REMARK    2  A    between atoms: C_9  and  C_10
REMARK                            x       y       z     vdW  Elec       q    Type
REMARK                         _______ _______ _______ _____ _____    ______ ____
ROOT
ATOM      1 CL   UNL     1       4.696   2.766  11.421  0.00  0.00    +0.000 Cl
ATOM      2  C   UNL     1       5.602   3.601  12.626  0.00  0.00    +0.000 A 
ATOM      3  C   UNL     1       6.782   4.247  12.270  0.00  0.00    +0.000 A 
ATOM      4  C   UNL     1       7.531   4.939  13.224  0.00  0.00    +0.000 A 
ATOM      5  C   UNL     1       7.059   4.940  14.543  0.00  0.00    +0.000 A 
ATOM      6  N   UNL     1       7.586   5.531  15.667  0.00  0.00    +0.000 N 
ATOM      7  C   UNL     1       6.810   5.246  16.757  0.00  0.00    +0.000 A 
ATOM      8  C   UNL     1       5.753   4.455  16.350  0.00  0.00    +0.000 A 
ATOM      9  C   UNL     1       5.892   4.280  14.932  0.00  0.00    +0.000 A 
ATOM     10  C   UNL     1       5.139   3.606  13.946  0.00  0.00    +0.000 A 
ATOM     11  H   UNL     1       8.431   6.084  15.684  0.00  0.00    +0.000 HD
ENDROOT
BRANCH   8  12
ATOM     12  C   UNL     1       4.685   3.880  17.236  0.00  0.00    +0.000 C 
BRANCH  12  13
ATOM     13  C   UNL     1       3.834   4.915  17.904  0.00  0.00    +0.000 A 
ATOM     14  C   UNL     1       3.286   4.935  19.173  0.00  0.00    +0.000 A 
ATOM     15  C   UNL     1       2.658   6.196  19.363  0.00  0.00    +0.000 A 
ATOM     16  C   UNL     1       2.009   6.815  20.449  0.00  0.00    +0.000 A 
ATOM     17  C   UNL     1       1.554   8.132  20.313  0.00  0.00    +0.000 A 
ATOM     18  C   UNL     1       1.716   8.820  19.112  0.00  0.00    +0.000 A 
ATOM     19  C   UNL     1       2.327   8.214  18.010  0.00  0.00    +0.000 A 
ATOM     20  C   UNL     1       2.796   6.904  18.169  0.00  0.00    +0.000 A 
ATOM     21  N   UNL     1       3.454   6.083  17.287  0.00  0.00    +0.000 N 
ATOM     22  H   UNL     1       3.700   6.343  16.341  0.00  0.00    +0.000 HD
ENDBRANCH  12  13
ENDBRANCH   8  12
TORSDOF 2
ENDMDL
MODEL 8
REMARK VINA RESULT:      -7.6      2.647      3.915
REMARK  Name = 
REMARK  2 active torsions:
REMARK  status: ('A' for Active; 'I' for Inactive)
REMARK    1  A    between atoms: C_8  and  C_9
REMARK    2  A    between atoms: C_9  and  C_10
REMARK                            x       y       z     vdW  Elec       q    Type
REMARK                         _______ _______ _______ _____ _____    ______ ____
ROOT
ATOM      1 CL   UNL     1       1.782   8.928  18.456  0.00  0.00    +0.000 Cl
ATOM      2  C   UNL     1       2.402   7.382  18.895  0.00  0.00    +0.000 A 
ATOM      3  C   UNL     1       1.663   6.564  19.744  0.00  0.00    +0.000 A 
ATOM      4  C   UNL     1       2.137   5.302  20.109  0.00  0.00    +0.000 A 
ATOM      5  C   UNL     1       3.382   4.906  19.602  0.00  0.00    +0.000 A 
ATOM      6  N   UNL     1       4.080   3.737  19.793  0.00  0.00    +0.000 N 
ATOM      7  C   UNL     1       5.276   3.788  19.133  0.00  0.00    +0.000 A 
ATOM      8  C   UNL     1       5.374   5.009  18.494  0.00  0.00    +0.000 A 
ATOM      9  C   UNL     1       4.155   5.716  18.769  0.00  0.00    +0.000 A 
ATOM     10  C   UNL     1       3.645   6.979  18.395  0.00  0.00    +0.000 A 
ATOM     11  H   UNL     1       3.757   2.959  20.352  0.00  0.00    +0.000 HD
ENDROOT
BRANCH   8  12
ATOM     12  C   UNL     1       6.545   5.497  17.690  0.00  0.00    +0.000 C 
BRANCH  12  13
ATOM     13  C   UNL     1       6.559   4.995  16.280  0.00  0.00    +0.000 A 
ATOM     14  C   UNL     1       5.698   4.128  15.634  0.00  0.00    +0.000 A 
ATOM     15  C   UNL     1       6.079   4.065  14.266  0.00  0.00    +0.000 A 
ATOM     16  C   UNL     1       5.551   3.424  13.129  0.00  0.00    +0.000 A 
ATOM     17  C   UNL     1       6.152   3.637  11.882  0.00  0.00    +0.000 A 
ATOM     18  C   UNL     1       7.275   4.453  11.765  0.00  0.00    +0.000 A 
ATOM     19  C   UNL     1       7.837   5.073  12.885  0.00  0.00    +0.000 A 
ATOM     20  C   UNL     1       7.211   4.867  14.120  0.00  0.00    +0.000 A 
ATOM     21  N   UNL     1       7.514   5.365  15.364  0.00  0.00    +0.000 N 
ATOM     22  H   UNL     1       8.287   5.990  15.555  0.00  0.00    +0.000 HD
ENDBRANCH  12  13
ENDBRANCH   8  12
TORSDOF 2
ENDMDL
MODEL 9
REMARK VINA RESULT:      -7.6      3.300      6.017
REMARK  Name = 
REMARK  2 active torsions:
REMARK  status: ('A' for Active; 'I' for Inactive)
REMARK    1  A    between atoms: C_8  and  C_9
REMARK    2  A    between atoms: C_9  and  C_10
REMARK                            x       y       z     vdW  Elec       q    Type
REMARK                         _______ _______ _______ _____ _____    ______ ____
ROOT
ATOM      1 CL   UNL     1       5.353   4.072  13.426  0.00  0.00    +0.000 Cl
ATOM      2  C   UNL     1       5.795   4.344  15.069  0.00  0.00    +0.000 A 
ATOM      3  C   UNL     1       7.136   4.273  15.437  0.00  0.00    +0.000 A 
ATOM      4  C   UNL     1       7.524   4.499  16.759  0.00  0.00    +0.000 A 
ATOM      5  C   UNL     1       6.517   4.781  17.692  0.00  0.00    +0.000 A 
ATOM      6  N   UNL     1       6.611   5.040  19.039  0.00  0.00    +0.000 N 
ATOM      7  C   UNL     1       5.365   5.229  19.570  0.00  0.00    +0.000 A 
ATOM      8  C   UNL     1       4.431   5.093  18.561  0.00  0.00    +0.000 A 
ATOM      9  C   UNL     1       5.164   4.834  17.355  0.00  0.00    +0.000 A 
ATOM     10  C   UNL     1       4.796   4.624  16.008  0.00  0.00    +0.000 A 
ATOM     11  H   UNL     1       7.476   5.073  19.560  0.00  0.00    +0.000 HD
ENDROOT
BRANCH   8  12
ATOM     12  C   UNL     1       2.940   5.181  18.718  0.00  0.00    +0.000 C 
BRANCH  12  13
ATOM     13  C   UNL     1       2.453   6.544  19.102  0.00  0.00    +0.000 A 
ATOM     14  C   UNL     1       2.260   7.672  18.328  0.00  0.00    +0.000 A 
ATOM     15  C   UNL     1       1.673   8.675  19.147  0.00  0.00    +0.000 A 
ATOM     16  C   UNL     1       1.191   9.977  18.912  0.00  0.00    +0.000 A 
ATOM     17  C   UNL     1       0.592  10.685  19.960  0.00  0.00    +0.000 A 
ATOM     18  C   UNL     1       0.491  10.123  21.231  0.00  0.00    +0.000 A 
ATOM     19  C   UNL     1       0.991   8.844  21.496  0.00  0.00    +0.000 A 
ATOM     20  C   UNL     1       1.568   8.142  20.432  0.00  0.00    +0.000 A 
ATOM     21  N   UNL     1       2.105   6.878  20.388  0.00  0.00    +0.000 N 
ATOM     22  H   UNL     1       2.153   6.251  21.181  0.00  0.00    +0.000 HD
ENDBRANCH  12  13
ENDBRANCH   8  12
TORSDOF 2
ENDMDL
