MODEL 1
REMARK VINA RESULT:      -8.5      0.000      0.000
REMARK  Name = 
REMARK  5 active torsions:
REMARK  status: ('A' for Active; 'I' for Inactive)
REMARK    1  A    between atoms: C_2  and  N_3
REMARK    2  A    between atoms: C_2  and  N_18
REMARK    3  A    between atoms: C_4  and  C_12
REMARK    4  A    between atoms: N_5  and  C_6
REMARK    5  A    between atoms: N_18  and  C_19
REMARK                            x       y       z     vdW  Elec       q    Type
REMARK                         _______ _______ _______ _____ _____    ______ ____
ROOT
ATOM      1  N   UNL     1       4.737   4.518  17.659  0.00  0.00    +0.000 N 
ATOM      2  C   UNL     1       3.676   5.273  18.180  0.00  0.00    +0.000 C 
ATOM      3  N   UNL     1       3.639   6.546  17.935  0.00  0.00    +0.000 NA
ATOM      4  H   UNL     1       4.753   3.531  17.881  0.00  0.00    +0.000 HD
ENDROOT
BRANCH   3   5
ATOM      5  C   UNL     1       2.708   7.454  18.465  0.00  0.00    +0.000 A 
ATOM      6  C   UNL     1       2.290   7.449  19.801  0.00  0.00    +0.000 A 
ATOM      7  C   UNL     1       1.362   8.387  20.265  0.00  0.00    +0.000 A 
ATOM      8  C   UNL     1       0.897   9.390  19.418  0.00  0.00    +0.000 A 
ATOM      9  C   UNL     1       1.358   9.452  18.105  0.00  0.00    +0.000 A 
ATOM     10  C   UNL     1       2.254   8.486  17.635  0.00  0.00    +0.000 A 
ENDBRANCH   3   5
BRANCH   2  11
ATOM     11  C   UNL     1       2.709   4.440  18.963  0.00  0.00    +0.000 A 
ATOM     12  C   UNL     1       2.957   4.180  20.319  0.00  0.00    +0.000 A 
ATOM     13  C   UNL     1       2.098   3.352  21.045  0.00  0.00    +0.000 A 
ATOM     14  C   UNL     1       0.972   2.808  20.430  0.00  0.00    +0.000 A 
ATOM     15  C   UNL     1       0.707   3.086  19.089  0.00  0.00    +0.000 A 
ATOM     16  C   UNL     1       1.583   3.884  18.348  0.00  0.00    +0.000 A 
ENDBRANCH   2  11
BRANCH   1  18
ATOM     17  S   UNL     1       7.334   4.721  17.687  0.00  0.00    +0.000 S 
ATOM     18  C   UNL     1       5.853   4.877  16.920  0.00  0.00    +0.000 C 
BRANCH  18  19
ATOM     19  N   UNL     1       5.602   5.253  15.629  0.00  0.00    +0.000 N 
ATOM     20  H   UNL     1       4.878   5.965  15.546  0.00  0.00    +0.000 HD
BRANCH  19  21
ATOM     21  C   UNL     1       6.156   4.795  14.423  0.00  0.00    +0.000 A 
ATOM     22  C   UNL     1       5.442   3.835  13.698  0.00  0.00    +0.000 A 
ATOM     23  C   UNL     1       5.915   3.387  12.462  0.00  0.00    +0.000 A 
ATOM     24  C   UNL     1       7.081   3.928  11.924  0.00  0.00    +0.000 A 
ATOM     25  C   UNL     1       7.782   4.903  12.629  0.00  0.00    +0.000 A 
ATOM     26  C   UNL     1       7.328   5.328  13.880  0.00  0.00    +0.000 A 
ENDBRANCH  19  21
ENDBRANCH  18  19
ENDBRANCH   1  18
TORSDOF 5
ENDMDL
MODEL 2
REMARK VINA RESULT:      -8.4      0.258      1.018
REMARK  Name = 
REMARK  5 active torsions:
REMARK  status: ('A' for Active; 'I' for Inactive)
REMARK    1  A    between atoms: C_2  and  N_3
REMARK    2  A    between atoms: C_2  and  N_18
REMARK    3  A    between atoms: C_4  and  C_12
REMARK    4  A    between atoms: N_5  and  C_6
REMARK    5  A    between atoms: N_18  and  C_19
REMARK                            x       y       z     vdW  Elec       q    Type
REMARK                         _______ _______ _______ _____ _____    ______ ____
ROOT
ATOM      1  N   UNL     1       4.951   4.576  17.623  0.00  0.00    +0.000 N 
ATOM      2  C   UNL     1       3.841   5.285  18.106  0.00  0.00    +0.000 C 
ATOM      3  N   UNL     1       3.805   6.571  17.940  0.00  0.00    +0.000 NA
ATOM      4  H   UNL     1       4.964   3.577  17.783  0.00  0.00    +0.000 HD
ENDROOT
BRANCH   3   5
ATOM      5  C   UNL     1       2.822   7.434  18.452  0.00  0.00    +0.000 A 
ATOM      6  C   UNL     1       2.383   7.413  19.781  0.00  0.00    +0.000 A 
ATOM      7  C   UNL     1       1.403   8.305  20.227  0.00  0.00    +0.000 A 
ATOM      8  C   UNL     1       0.904   9.282  19.369  0.00  0.00    +0.000 A 
ATOM      9  C   UNL     1       1.382   9.362  18.064  0.00  0.00    +0.000 A 
ATOM     10  C   UNL     1       2.331   8.440  17.612  0.00  0.00    +0.000 A 
ENDBRANCH   3   5
BRANCH   2  11
ATOM     11  C   UNL     1       2.829   4.395  18.757  0.00  0.00    +0.000 A 
ATOM     12  C   UNL     1       1.738   3.923  18.013  0.00  0.00    +0.000 A 
ATOM     13  C   UNL     1       0.753   3.145  18.625  0.00  0.00    +0.000 A 
ATOM     14  C   UNL     1       0.871   2.807  19.972  0.00  0.00    +0.000 A 
ATOM     15  C   UNL     1       1.969   3.251  20.709  0.00  0.00    +0.000 A 
ATOM     16  C   UNL     1       2.938   4.061  20.112  0.00  0.00    +0.000 A 
ENDBRANCH   2  11
BRANCH   1  18
ATOM     17  S   UNL     1       7.537   4.777  17.856  0.00  0.00    +0.000 S 
ATOM     18  C   UNL     1       6.115   4.993  16.997  0.00  0.00    +0.000 C 
BRANCH  18  19
ATOM     19  N   UNL     1       5.956   5.470  15.725  0.00  0.00    +0.000 N 
ATOM     20  H   UNL     1       5.440   6.347  15.682  0.00  0.00    +0.000 HD
BRANCH  19  21
ATOM     21  C   UNL     1       6.357   4.929  14.494  0.00  0.00    +0.000 A 
ATOM     22  C   UNL     1       5.553   3.938  13.920  0.00  0.00    +0.000 A 
ATOM     23  C   UNL     1       5.871   3.408  12.668  0.00  0.00    +0.000 A 
ATOM     24  C   UNL     1       6.969   3.895  11.962  0.00  0.00    +0.000 A 
ATOM     25  C   UNL     1       7.759   4.900  12.516  0.00  0.00    +0.000 A 
ATOM     26  C   UNL     1       7.461   5.408  13.783  0.00  0.00    +0.000 A 
ENDBRANCH  19  21
ENDBRANCH  18  19
ENDBRANCH   1  18
TORSDOF 5
ENDMDL
MODEL 3
REMARK VINA RESULT:      -8.3      0.169      1.402
REMARK  Name = 
REMARK  5 active torsions:
REMARK  status: ('A' for Active; 'I' for Inactive)
REMARK    1  A    between atoms: C_2  and  N_3
REMARK    2  A    between atoms: C_2  and  N_18
REMARK    3  A    between atoms: C_4  and  C_12
REMARK    4  A    between atoms: N_5  and  C_6
REMARK    5  A    between atoms: N_18  and  C_19
REMARK                            x       y       z     vdW  Elec       q    Type
REMARK                         _______ _______ _______ _____ _____    ______ ____
ROOT
ATOM      1  N   UNL     1       4.714   4.468  17.638  0.00  0.00    +0.000 N 
ATOM      2  C   UNL     1       3.676   5.225  18.202  0.00  0.00    +0.000 C 
ATOM      3  N   UNL     1       3.600   6.488  17.914  0.00  0.00    +0.000 NA
ATOM      4  H   UNL     1       4.762   3.491  17.894  0.00  0.00    +0.000 HD
ENDROOT
BRANCH   3   5
ATOM      5  C   UNL     1       2.690   7.400  18.473  0.00  0.00    +0.000 A 
ATOM      6  C   UNL     1       2.309   7.394  19.820  0.00  0.00    +0.000 A 
ATOM      7  C   UNL     1       1.400   8.336  20.312  0.00  0.00    +0.000 A 
ATOM      8  C   UNL     1       0.918   9.344  19.482  0.00  0.00    +0.000 A 
ATOM      9  C   UNL     1       1.343   9.407  18.157  0.00  0.00    +0.000 A 
ATOM     10  C   UNL     1       2.219   8.437  17.659  0.00  0.00    +0.000 A 
ENDBRANCH   3   5
BRANCH   2  11
ATOM     11  C   UNL     1       2.778   4.407  19.076  0.00  0.00    +0.000 A 
ATOM     12  C   UNL     1       1.580   3.895  18.557  0.00  0.00    +0.000 A 
ATOM     13  C   UNL     1       0.703   3.185  19.379  0.00  0.00    +0.000 A 
ATOM     14  C   UNL     1       1.034   2.954  20.713  0.00  0.00    +0.000 A 
ATOM     15  C   UNL     1       2.238   3.437  21.227  0.00  0.00    +0.000 A 
ATOM     16  C   UNL     1       3.102   4.181  20.418  0.00  0.00    +0.000 A 
ENDBRANCH   2  11
BRANCH   1  18
ATOM     17  S   UNL     1       7.306   4.666  17.470  0.00  0.00    +0.000 S 
ATOM     18  C   UNL     1       5.772   4.818  16.814  0.00  0.00    +0.000 C 
BRANCH  18  19
ATOM     19  N   UNL     1       5.426   5.183  15.542  0.00  0.00    +0.000 N 
ATOM     20  H   UNL     1       4.657   5.850  15.505  0.00  0.00    +0.000 HD
BRANCH  19  21
ATOM     21  C   UNL     1       5.936   4.761  14.304  0.00  0.00    +0.000 A 
ATOM     22  C   UNL     1       7.171   5.275  13.894  0.00  0.00    +0.000 A 
ATOM     23  C   UNL     1       7.755   4.845  12.701  0.00  0.00    +0.000 A 
ATOM     24  C   UNL     1       7.129   3.866  11.931  0.00  0.00    +0.000 A 
ATOM     25  C   UNL     1       5.912   3.331  12.347  0.00  0.00    +0.000 A 
ATOM     26  C   UNL     1       5.312   3.784  13.524  0.00  0.00    +0.000 A 
ENDBRANCH  19  21
ENDBRANCH  18  19
ENDBRANCH   1  18
TORSDOF 5
ENDMDL
MODEL 4
REMARK VINA RESULT:      -8.2      0.855      3.903
REMARK  Name = 
REMARK  5 active torsions:
REMARK  status: ('A' for Active; 'I' for Inactive)
REMARK    1  A    between atoms: C_2  and  N_3
REMARK    2  A    between atoms: C_2  and  N_18
REMARK    3  A    between atoms: C_4  and  C_12
REMARK    4  A    between atoms: N_5  and  C_6
REMARK    5  A    between atoms: N_18  and  C_19
REMARK                            x       y       z     vdW  Elec       q    Type
REMARK                         _______ _______ _______ _____ _____    ______ ____
ROOT
ATOM      1  N   UNL     1       5.452   6.333  17.370  0.00  0.00    +0.000 N 
ATOM      2  C   UNL     1       4.311   5.806  17.993  0.00  0.00    +0.000 C 
ATOM      3  N   UNL     1       4.244   4.526  18.189  0.00  0.00    +0.000 NA
ATOM      4  H   UNL     1       5.471   7.331  17.211  0.00  0.00    +0.000 HD
ENDROOT
BRANCH   3   5
ATOM      5  C   UNL     1       3.134   3.835  18.702  0.00  0.00    +0.000 A 
ATOM      6  C   UNL     1       2.019   3.475  17.937  0.00  0.00    +0.000 A 
ATOM      7  C   UNL     1       0.949   2.782  18.511  0.00  0.00    +0.000 A 
ATOM      8  C   UNL     1       1.013   2.371  19.840  0.00  0.00    +0.000 A 
ATOM      9  C   UNL     1       2.147   2.658  20.596  0.00  0.00    +0.000 A 
ATOM     10  C   UNL     1       3.196   3.389  20.028  0.00  0.00    +0.000 A 
ENDBRANCH   3   5
BRANCH   2  11
ATOM     11  C   UNL     1       3.315   6.864  18.354  0.00  0.00    +0.000 A 
ATOM     12  C   UNL     1       3.020   7.882  17.436  0.00  0.00    +0.000 A 
ATOM     13  C   UNL     1       2.142   8.911  17.783  0.00  0.00    +0.000 A 
ATOM     14  C   UNL     1       1.530   8.908  19.035  0.00  0.00    +0.000 A 
ATOM     15  C   UNL     1       1.799   7.883  19.942  0.00  0.00    +0.000 A 
ATOM     16  C   UNL     1       2.706   6.872  19.613  0.00  0.00    +0.000 A 
ENDBRANCH   2  11
BRANCH   1  18
ATOM     17  S   UNL     1       7.469   4.772  17.903  0.00  0.00    +0.000 S 
ATOM     18  C   UNL     1       6.584   5.726  16.848  0.00  0.00    +0.000 C 
BRANCH  18  19
ATOM     19  N   UNL     1       6.797   5.937  15.513  0.00  0.00    +0.000 N 
ATOM     20  H   UNL     1       7.090   6.887  15.293  0.00  0.00    +0.000 HD
BRANCH  19  21
ATOM     21  C   UNL     1       6.643   5.070  14.419  0.00  0.00    +0.000 A 
ATOM     22  C   UNL     1       5.490   4.281  14.367  0.00  0.00    +0.000 A 
ATOM     23  C   UNL     1       5.255   3.445  13.272  0.00  0.00    +0.000 A 
ATOM     24  C   UNL     1       6.150   3.427  12.204  0.00  0.00    +0.000 A 
ATOM     25  C   UNL     1       7.286   4.231  12.238  0.00  0.00    +0.000 A 
ATOM     26  C   UNL     1       7.539   5.042  13.347  0.00  0.00    +0.000 A 
ENDBRANCH  19  21
ENDBRANCH  18  19
ENDBRANCH   1  18
TORSDOF 5
ENDMDL
MODEL 5
REMARK VINA RESULT:      -8.2      0.951      3.886
REMARK  Name = 
REMARK  5 active torsions:
REMARK  status: ('A' for Active; 'I' for Inactive)
REMARK    1  A    between atoms: C_2  and  N_3
REMARK    2  A    between atoms: C_2  and  N_18
REMARK    3  A    between atoms: C_4  and  C_12
REMARK    4  A    between atoms: N_5  and  C_6
REMARK    5  A    between atoms: N_18  and  C_19
REMARK                            x       y       z     vdW  Elec       q    Type
REMARK                         _______ _______ _______ _____ _____    ______ ____
ROOT
ATOM      1  N   UNL     1       5.636   6.256  17.419  0.00  0.00    +0.000 N 
ATOM      2  C   UNL     1       4.487   5.718  18.021  0.00  0.00    +0.000 C 
ATOM      3  N   UNL     1       4.439   4.440  18.235  0.00  0.00    +0.000 NA
ATOM      4  H   UNL     1       5.640   7.252  17.245  0.00  0.00    +0.000 HD
ENDROOT
BRANCH   3   5
ATOM      5  C   UNL     1       3.327   3.737  18.729  0.00  0.00    +0.000 A 
ATOM      6  C   UNL     1       3.217   3.281  20.047  0.00  0.00    +0.000 A 
ATOM      7  C   UNL     1       2.078   2.591  20.475  0.00  0.00    +0.000 A 
ATOM      8  C   UNL     1       1.001   2.414  19.610  0.00  0.00    +0.000 A 
ATOM      9  C   UNL     1       1.066   2.925  18.316  0.00  0.00    +0.000 A 
ATOM     10  C   UNL     1       2.225   3.577  17.882  0.00  0.00    +0.000 A 
ENDBRANCH   3   5
BRANCH   2  11
ATOM     11  C   UNL     1       3.463   6.763  18.338  0.00  0.00    +0.000 A 
ATOM     12  C   UNL     1       3.170   7.758  17.393  0.00  0.00    +0.000 A 
ATOM     13  C   UNL     1       2.265   8.775  17.700  0.00  0.00    +0.000 A 
ATOM     14  C   UNL     1       1.624   8.785  18.938  0.00  0.00    +0.000 A 
ATOM     15  C   UNL     1       1.892   7.782  19.871  0.00  0.00    +0.000 A 
ATOM     16  C   UNL     1       2.825   6.783  19.582  0.00  0.00    +0.000 A 
ENDBRANCH   2  11
BRANCH   1  18
ATOM     17  S   UNL     1       7.643   4.709  18.020  0.00  0.00    +0.000 S 
ATOM     18  C   UNL     1       6.792   5.662  16.938  0.00  0.00    +0.000 C 
BRANCH  18  19
ATOM     19  N   UNL     1       7.053   5.883  15.613  0.00  0.00    +0.000 N 
ATOM     20  H   UNL     1       7.550   6.755  15.436  0.00  0.00    +0.000 HD
BRANCH  19  21
ATOM     21  C   UNL     1       6.719   5.123  14.481  0.00  0.00    +0.000 A 
ATOM     22  C   UNL     1       7.605   5.136  13.399  0.00  0.00    +0.000 A 
ATOM     23  C   UNL     1       7.354   4.352  12.271  0.00  0.00    +0.000 A 
ATOM     24  C   UNL     1       6.239   3.517  12.235  0.00  0.00    +0.000 A 
ATOM     25  C   UNL     1       5.367   3.480  13.321  0.00  0.00    +0.000 A 
ATOM     26  C   UNL     1       5.599   4.288  14.436  0.00  0.00    +0.000 A 
ENDBRANCH  19  21
ENDBRANCH  18  19
ENDBRANCH   1  18
TORSDOF 5
ENDMDL
MODEL 6
REMARK VINA RESULT:      -8.1      0.260      1.720
REMARK  Name = 
REMARK  5 active torsions:
REMARK  status: ('A' for Active; 'I' for Inactive)
REMARK    1  A    between atoms: C_2  and  N_3
REMARK    2  A    between atoms: C_2  and  N_18
REMARK    3  A    between atoms: C_4  and  C_12
REMARK    4  A    between atoms: N_5  and  C_6
REMARK    5  A    between atoms: N_18  and  C_19
REMARK                            x       y       z     vdW  Elec       q    Type
REMARK                         _______ _______ _______ _____ _____    ______ ____
ROOT
ATOM      1  N   UNL     1       4.929   4.629  17.607  0.00  0.00    +0.000 N 
ATOM      2  C   UNL     1       3.836   5.366  18.088  0.00  0.00    +0.000 C 
ATOM      3  N   UNL     1       3.820   6.649  17.899  0.00  0.00    +0.000 NA
ATOM      4  H   UNL     1       4.927   3.634  17.785  0.00  0.00    +0.000 HD
ENDROOT
BRANCH   3   5
ATOM      5  C   UNL     1       2.856   7.537  18.406  0.00  0.00    +0.000 A 
ATOM      6  C   UNL     1       2.197   8.497  17.630  0.00  0.00    +0.000 A 
ATOM      7  C   UNL     1       1.243   9.347  18.198  0.00  0.00    +0.000 A 
ATOM      8  C   UNL     1       0.880   9.197  19.534  0.00  0.00    +0.000 A 
ATOM      9  C   UNL     1       1.475   8.199  20.302  0.00  0.00    +0.000 A 
ATOM     10  C   UNL     1       2.459   7.380  19.739  0.00  0.00    +0.000 A 
ENDBRANCH   3   5
BRANCH   2  11
ATOM     11  C   UNL     1       2.817   4.505  18.766  0.00  0.00    +0.000 A 
ATOM     12  C   UNL     1       1.743   3.986  18.027  0.00  0.00    +0.000 A 
ATOM     13  C   UNL     1       0.751   3.235  18.659  0.00  0.00    +0.000 A 
ATOM     14  C   UNL     1       0.843   2.970  20.024  0.00  0.00    +0.000 A 
ATOM     15  C   UNL     1       1.923   3.461  20.759  0.00  0.00    +0.000 A 
ATOM     16  C   UNL     1       2.900   4.245  20.138  0.00  0.00    +0.000 A 
ENDBRANCH   2  11
BRANCH   1  18
ATOM     17  S   UNL     1       7.527   4.720  17.778  0.00  0.00    +0.000 S 
ATOM     18  C   UNL     1       6.094   5.015  16.963  0.00  0.00    +0.000 C 
BRANCH  18  19
ATOM     19  N   UNL     1       5.923   5.532  15.707  0.00  0.00    +0.000 N 
ATOM     20  H   UNL     1       5.494   6.455  15.703  0.00  0.00    +0.000 HD
BRANCH  19  21
ATOM     21  C   UNL     1       6.211   4.980  14.449  0.00  0.00    +0.000 A 
ATOM     22  C   UNL     1       7.393   5.378  13.815  0.00  0.00    +0.000 A 
ATOM     23  C   UNL     1       7.762   4.816  12.591  0.00  0.00    +0.000 A 
ATOM     24  C   UNL     1       6.973   3.822  12.013  0.00  0.00    +0.000 A 
ATOM     25  C   UNL     1       5.810   3.403  12.653  0.00  0.00    +0.000 A 
ATOM     26  C   UNL     1       5.423   3.987  13.862  0.00  0.00    +0.000 A 
ENDBRANCH  19  21
ENDBRANCH  18  19
ENDBRANCH   1  18
TORSDOF 5
ENDMDL
MODEL 7
REMARK VINA RESULT:      -8.1      0.669      3.965
REMARK  Name = 
REMARK  5 active torsions:
REMARK  status: ('A' for Active; 'I' for Inactive)
REMARK    1  A    between atoms: C_2  and  N_3
REMARK    2  A    between atoms: C_2  and  N_18
REMARK    3  A    between atoms: C_4  and  C_12
REMARK    4  A    between atoms: N_5  and  C_6
REMARK    5  A    between atoms: N_18  and  C_19
REMARK                            x       y       z     vdW  Elec       q    Type
REMARK                         _______ _______ _______ _____ _____    ______ ____
ROOT
ATOM      1  N   UNL     1       4.831   6.634  17.341  0.00  0.00    +0.000 N 
ATOM      2  C   UNL     1       3.784   6.164  18.148  0.00  0.00    +0.000 C 
ATOM      3  N   UNL     1       3.779   4.914  18.493  0.00  0.00    +0.000 NA
ATOM      4  H   UNL     1       4.801   7.608  17.070  0.00  0.00    +0.000 HD
ENDROOT
BRANCH   3   5
ATOM      5  C   UNL     1       2.755   4.268  19.207  0.00  0.00    +0.000 A 
ATOM      6  C   UNL     1       1.632   3.690  18.605  0.00  0.00    +0.000 A 
ATOM      7  C   UNL     1       0.652   3.056  19.376  0.00  0.00    +0.000 A 
ATOM      8  C   UNL     1       0.820   2.925  20.752  0.00  0.00    +0.000 A 
ATOM      9  C   UNL     1       1.967   3.432  21.357  0.00  0.00    +0.000 A 
ATOM     10  C   UNL     1       2.923   4.102  20.587  0.00  0.00    +0.000 A 
ENDBRANCH   3   5
BRANCH   2  11
ATOM     11  C   UNL     1       2.804   7.239  18.502  0.00  0.00    +0.000 A 
ATOM     12  C   UNL     1       2.428   8.182  17.533  0.00  0.00    +0.000 A 
ATOM     13  C   UNL     1       1.566   9.228  17.867  0.00  0.00    +0.000 A 
ATOM     14  C   UNL     1       1.049   9.318  19.158  0.00  0.00    +0.000 A 
ATOM     15  C   UNL     1       1.398   8.367  20.117  0.00  0.00    +0.000 A 
ATOM     16  C   UNL     1       2.291   7.340  19.799  0.00  0.00    +0.000 A 
ENDBRANCH   2  11
BRANCH   1  18
ATOM     17  S   UNL     1       7.431   6.527  17.228  0.00  0.00    +0.000 S 
ATOM     18  C   UNL     1       5.913   5.991  16.762  0.00  0.00    +0.000 C 
BRANCH  18  19
ATOM     19  N   UNL     1       5.599   4.953  15.929  0.00  0.00    +0.000 N 
ATOM     20  H   UNL     1       4.985   4.261  16.356  0.00  0.00    +0.000 HD
BRANCH  19  21
ATOM     21  C   UNL     1       6.012   4.684  14.614  0.00  0.00    +0.000 A 
ATOM     22  C   UNL     1       7.209   5.257  14.173  0.00  0.00    +0.000 A 
ATOM     23  C   UNL     1       7.699   4.975  12.896  0.00  0.00    +0.000 A 
ATOM     24  C   UNL     1       7.018   4.085  12.069  0.00  0.00    +0.000 A 
ATOM     25  C   UNL     1       5.840   3.490  12.512  0.00  0.00    +0.000 A 
ATOM     26  C   UNL     1       5.331   3.796  13.777  0.00  0.00    +0.000 A 
ENDBRANCH  19  21
ENDBRANCH  18  19
ENDBRANCH   1  18
TORSDOF 5
ENDMDL
MODEL 8
REMARK VINA RESULT:      -8.1      2.058      3.289
REMARK  Name = 
REMARK  5 active torsions:
REMARK  status: ('A' for Active; 'I' for Inactive)
REMARK    1  A    between atoms: C_2  and  N_3
REMARK    2  A    between atoms: C_2  and  N_18
REMARK    3  A    between atoms: C_4  and  C_12
REMARK    4  A    between atoms: N_5  and  C_6
REMARK    5  A    between atoms: N_18  and  C_19
REMARK                            x       y       z     vdW  Elec       q    Type
REMARK                         _______ _______ _______ _____ _____    ______ ____
ROOT
ATOM      1  N   UNL     1       4.665   3.661  17.102  0.00  0.00    +0.000 N 
ATOM      2  C   UNL     1       3.756   4.508  17.755  0.00  0.00    +0.000 C 
ATOM      3  N   UNL     1       3.805   5.780  17.506  0.00  0.00    +0.000 NA
ATOM      4  H   UNL     1       4.619   2.676  17.328  0.00  0.00    +0.000 HD
ENDROOT
BRANCH   3   5
ATOM      5  C   UNL     1       3.040   6.768  18.150  0.00  0.00    +0.000 A 
ATOM      6  C   UNL     1       2.659   6.704  19.495  0.00  0.00    +0.000 A 
ATOM      7  C   UNL     1       1.901   7.727  20.074  0.00  0.00    +0.000 A 
ATOM      8  C   UNL     1       1.579   8.863  19.337  0.00  0.00    +0.000 A 
ATOM      9  C   UNL     1       2.013   8.974  18.018  0.00  0.00    +0.000 A 
ATOM     10  C   UNL     1       2.734   7.930  17.432  0.00  0.00    +0.000 A 
ENDBRANCH   3   5
BRANCH   2  11
ATOM     11  C   UNL     1       2.832   3.764  18.667  0.00  0.00    +0.000 A 
ATOM     12  C   UNL     1       1.525   3.476  18.247  0.00  0.00    +0.000 A 
ATOM     13  C   UNL     1       0.632   2.840  19.111  0.00  0.00    +0.000 A 
ATOM     14  C   UNL     1       1.049   2.461  20.386  0.00  0.00    +0.000 A 
ATOM     15  C   UNL     1       2.356   2.721  20.799  0.00  0.00    +0.000 A 
ATOM     16  C   UNL     1       3.243   3.390  19.951  0.00  0.00    +0.000 A 
ENDBRANCH   2  11
BRANCH   1  18
ATOM     17  S   UNL     1       5.296   3.951  14.592  0.00  0.00    +0.000 S 
ATOM     18  C   UNL     1       5.700   3.919  16.217  0.00  0.00    +0.000 C 
BRANCH  18  19
ATOM     19  N   UNL     1       6.911   4.180  16.796  0.00  0.00    +0.000 N 
ATOM     20  H   UNL     1       7.543   3.381  16.795  0.00  0.00    +0.000 HD
BRANCH  19  21
ATOM     21  C   UNL     1       7.395   5.348  17.407  0.00  0.00    +0.000 A 
ATOM     22  C   UNL     1       7.258   6.555  16.715  0.00  0.00    +0.000 A 
ATOM     23  C   UNL     1       7.666   7.756  17.300  0.00  0.00    +0.000 A 
ATOM     24  C   UNL     1       8.172   7.762  18.598  0.00  0.00    +0.000 A 
ATOM     25  C   UNL     1       8.286   6.567  19.304  0.00  0.00    +0.000 A 
ATOM     26  C   UNL     1       7.909   5.361  18.707  0.00  0.00    +0.000 A 
ENDBRANCH  19  21
ENDBRANCH  18  19
ENDBRANCH   1  18
TORSDOF 5
ENDMDL
MODEL 9
REMARK VINA RESULT:      -8.1      0.217      1.402
REMARK  Name = 
REMARK  5 active torsions:
REMARK  status: ('A' for Active; 'I' for Inactive)
REMARK    1  A    between atoms: C_2  and  N_3
REMARK    2  A    between atoms: C_2  and  N_18
REMARK    3  A    between atoms: C_4  and  C_12
REMARK    4  A    between atoms: N_5  and  C_6
REMARK    5  A    between atoms: N_18  and  C_19
REMARK                            x       y       z     vdW  Elec       q    Type
REMARK                         _______ _______ _______ _____ _____    ______ ____
ROOT
ATOM      1  N   UNL     1       4.633   4.502  17.646  0.00  0.00    +0.000 N 
ATOM      2  C   UNL     1       3.622   5.305  18.194  0.00  0.00    +0.000 C 
ATOM      3  N   UNL     1       3.591   6.564  17.883  0.00  0.00    +0.000 NA
ATOM      4  H   UNL     1       4.646   3.528  17.919  0.00  0.00    +0.000 HD
ENDROOT
BRANCH   3   5
ATOM      5  C   UNL     1       2.714   7.518  18.424  0.00  0.00    +0.000 A 
ATOM      6  C   UNL     1       2.068   8.502  17.667  0.00  0.00    +0.000 A 
ATOM      7  C   UNL     1       1.201   9.418  18.270  0.00  0.00    +0.000 A 
ATOM      8  C   UNL     1       0.909   9.316  19.628  0.00  0.00    +0.000 A 
ATOM      9  C   UNL     1       1.488   8.298  20.382  0.00  0.00    +0.000 A 
ATOM     10  C   UNL     1       2.386   7.410  19.781  0.00  0.00    +0.000 A 
ENDBRANCH   3   5
BRANCH   2  11
ATOM     11  C   UNL     1       2.696   4.536  19.084  0.00  0.00    +0.000 A 
ATOM     12  C   UNL     1       3.027   4.348  20.434  0.00  0.00    +0.000 A 
ATOM     13  C   UNL     1       2.205   3.578  21.259  0.00  0.00    +0.000 A 
ATOM     14  C   UNL     1       1.034   3.021  20.749  0.00  0.00    +0.000 A 
ATOM     15  C   UNL     1       0.686   3.228  19.414  0.00  0.00    +0.000 A 
ATOM     16  C   UNL     1       1.524   3.967  18.574  0.00  0.00    +0.000 A 
ENDBRANCH   2  11
BRANCH   1  18
ATOM     17  S   UNL     1       7.230   4.598  17.473  0.00  0.00    +0.000 S 
ATOM     18  C   UNL     1       5.702   4.798  16.815  0.00  0.00    +0.000 C 
BRANCH  18  19
ATOM     19  N   UNL     1       5.369   5.155  15.538  0.00  0.00    +0.000 N 
ATOM     20  H   UNL     1       4.579   5.797  15.488  0.00  0.00    +0.000 HD
BRANCH  19  21
ATOM     21  C   UNL     1       5.915   4.754  14.308  0.00  0.00    +0.000 A 
ATOM     22  C   UNL     1       7.153   5.288  13.937  0.00  0.00    +0.000 A 
ATOM     23  C   UNL     1       7.773   4.879  12.754  0.00  0.00    +0.000 A 
ATOM     24  C   UNL     1       7.180   3.902  11.957  0.00  0.00    +0.000 A 
ATOM     25  C   UNL     1       5.960   3.346  12.336  0.00  0.00    +0.000 A 
ATOM     26  C   UNL     1       5.324   3.778  13.502  0.00  0.00    +0.000 A 
ENDBRANCH  19  21
ENDBRANCH  18  19
ENDBRANCH   1  18
TORSDOF 5
ENDMDL
