MODEL 1
REMARK VINA RESULT:      -7.7      0.000      0.000
REMARK  Name = 
REMARK  5 active torsions:
REMARK  status: ('A' for Active; 'I' for Inactive)
REMARK    1  A    between atoms: C_1  and  C_2
REMARK    2  A    between atoms: C_12  and  N_13
REMARK    3  A    between atoms: N_13  and  C_14
REMARK    4  A    between atoms: N_13  and  C_15
REMARK    5  A    between atoms: C_20  and  C_21
REMARK                            x       y       z     vdW  Elec       q    Type
REMARK                         _______ _______ _______ _____ _____    ______ ____
ROOT
ATOM      1  C   UNL     1      -0.286  13.640  19.520  0.00  0.00    +0.000 C 
ATOM      2  C   UNL     1       0.247  12.302  19.876  0.00  0.00    +0.000 A 
ATOM      3  C   UNL     1       0.438  11.742  21.126  0.00  0.00    +0.000 A 
ATOM      4  N   UNL     1       0.920  10.454  21.137  0.00  0.00    +0.000 NA
ATOM      5  C   UNL     1       1.100  10.043  19.907  0.00  0.00    +0.000 A 
ATOM      6  N   UNL     1       1.537   8.828  19.452  0.00  0.00    +0.000 N 
ATOM      7  C   UNL     1       1.626   7.738  20.272  0.00  0.00    +0.000 C 
ATOM      8  O   UNL     1       1.337   7.717  21.465  0.00  0.00    +0.000 OA
ATOM      9  N   UNL     1       2.044   6.573  19.656  0.00  0.00    +0.000 N 
ATOM     10  C   UNL     1       2.464   6.353  18.287  0.00  0.00    +0.000 C 
ATOM     11  C   UNL     1       2.142   4.892  18.046  0.00  0.00    +0.000 C 
ATOM     12  C   UNL     1       2.455   4.218  19.393  0.00  0.00    +0.000 C 
ATOM     13  C   UNL     1       2.012   5.310  20.391  0.00  0.00    +0.000 C 
ATOM     14  S   UNL     1       0.737  11.175  18.675  0.00  0.00    +0.000 S 
ATOM     15  H   UNL     1       1.600   8.733  18.458  0.00  0.00    +0.000 HD
ENDROOT
BRANCH  12  16
ATOM     16  N   UNL     1       3.880   3.784  19.423  0.00  0.00    +0.000 N 
ATOM     17  C   UNL     1       4.272   2.636  20.242  0.00  0.00    +0.000 C 
BRANCH  16  18
ATOM     18  C   UNL     1       4.681   4.110  18.310  0.00  0.00    +0.000 A 
ATOM     19  C   UNL     1       4.576   3.451  17.077  0.00  0.00    +0.000 A 
ATOM     20  C   UNL     1       5.382   3.794  15.980  0.00  0.00    +0.000 A 
ATOM     21  C   UNL     1       6.336   4.803  16.085  0.00  0.00    +0.000 A 
ATOM     22 CL   UNL     1       7.279   5.170  14.689  0.00  0.00    +0.000 Cl
ATOM     23  C   UNL     1       6.497   5.476  17.295  0.00  0.00    +0.000 A 
ATOM     24  C   UNL     1       7.484   6.584  17.526  0.00  0.00    +0.000 C 
ATOM     25  C   UNL     1       5.666   5.115  18.379  0.00  0.00    +0.000 A 
ENDBRANCH  16  18
ENDBRANCH  12  16
TORSDOF 2
ENDMDL
MODEL 2
REMARK VINA RESULT:      -7.5      1.736      2.501
REMARK  Name = 
REMARK  5 active torsions:
REMARK  status: ('A' for Active; 'I' for Inactive)
REMARK    1  A    between atoms: C_1  and  C_2
REMARK    2  A    between atoms: C_12  and  N_13
REMARK    3  A    between atoms: N_13  and  C_14
REMARK    4  A    between atoms: N_13  and  C_15
REMARK    5  A    between atoms: C_20  and  C_21
REMARK                            x       y       z     vdW  Elec       q    Type
REMARK                         _______ _______ _______ _____ _____    ______ ____
ROOT
ATOM      1  C   UNL     1      -1.369  12.281  22.972  0.00  0.00    +0.000 C 
ATOM      2  C   UNL     1      -0.631  11.059  22.571  0.00  0.00    +0.000 A 
ATOM      3  C   UNL     1      -0.529   9.845  23.226  0.00  0.00    +0.000 A 
ATOM      4  N   UNL     1       0.205   8.876  22.580  0.00  0.00    +0.000 NA
ATOM      5  C   UNL     1       0.661   9.353  21.450  0.00  0.00    +0.000 A 
ATOM      6  N   UNL     1       1.410   8.735  20.485  0.00  0.00    +0.000 N 
ATOM      7  C   UNL     1       1.594   7.380  20.470  0.00  0.00    +0.000 C 
ATOM      8  O   UNL     1       1.129   6.588  21.284  0.00  0.00    +0.000 OA
ATOM      9  N   UNL     1       2.340   6.901  19.409  0.00  0.00    +0.000 N 
ATOM     10  C   UNL     1       3.010   7.629  18.350  0.00  0.00    +0.000 C 
ATOM     11  C   UNL     1       3.045   6.638  17.204  0.00  0.00    +0.000 C 
ATOM     12  C   UNL     1       3.273   5.282  17.895  0.00  0.00    +0.000 C 
ATOM     13  C   UNL     1       2.456   5.461  19.194  0.00  0.00    +0.000 C 
ATOM     14  S   UNL     1       0.270  10.985  21.109  0.00  0.00    +0.000 S 
ATOM     15  H   UNL     1       1.650   9.297  19.693  0.00  0.00    +0.000 HD
ENDROOT
BRANCH  12  16
ATOM     16  N   UNL     1       4.733   5.017  18.021  0.00  0.00    +0.000 N 
ATOM     17  C   UNL     1       5.235   4.237  19.152  0.00  0.00    +0.000 C 
BRANCH  16  18
ATOM     18  C   UNL     1       5.501   5.043  16.839  0.00  0.00    +0.000 A 
ATOM     19  C   UNL     1       6.707   5.749  16.730  0.00  0.00    +0.000 A 
ATOM     20  C   UNL     1       7.458   5.761  15.544  0.00  0.00    +0.000 A 
ATOM     21  C   UNL     1       7.017   5.072  14.416  0.00  0.00    +0.000 A 
ATOM     22 CL   UNL     1       8.003   5.127  13.002  0.00  0.00    +0.000 Cl
ATOM     23  C   UNL     1       5.813   4.371  14.463  0.00  0.00    +0.000 A 
ATOM     24  C   UNL     1       5.241   3.587  13.317  0.00  0.00    +0.000 C 
ATOM     25  C   UNL     1       5.084   4.372  15.673  0.00  0.00    +0.000 A 
ENDBRANCH  16  18
ENDBRANCH  12  16
TORSDOF 2
ENDMDL
MODEL 3
REMARK VINA RESULT:      -7.1      2.366      3.463
REMARK  Name = 
REMARK  5 active torsions:
REMARK  status: ('A' for Active; 'I' for Inactive)
REMARK    1  A    between atoms: C_1  and  C_2
REMARK    2  A    between atoms: C_12  and  N_13
REMARK    3  A    between atoms: N_13  and  C_14
REMARK    4  A    between atoms: N_13  and  C_15
REMARK    5  A    between atoms: C_20  and  C_21
REMARK                            x       y       z     vdW  Elec       q    Type
REMARK                         _______ _______ _______ _____ _____    ______ ____
ROOT
ATOM      1  C   UNL     1      -1.094  10.786  22.628  0.00  0.00    +0.000 C 
ATOM      2  C   UNL     1      -0.283  10.163  21.553  0.00  0.00    +0.000 A 
ATOM      3  C   UNL     1      -0.039  10.617  20.270  0.00  0.00    +0.000 A 
ATOM      4  N   UNL     1       0.793   9.831  19.506  0.00  0.00    +0.000 NA
ATOM      5  C   UNL     1       1.171   8.788  20.201  0.00  0.00    +0.000 A 
ATOM      6  N   UNL     1       2.012   7.767  19.849  0.00  0.00    +0.000 N 
ATOM      7  C   UNL     1       2.801   7.832  18.735  0.00  0.00    +0.000 C 
ATOM      8  O   UNL     1       2.849   8.773  17.948  0.00  0.00    +0.000 OA
ATOM      9  N   UNL     1       3.627   6.741  18.536  0.00  0.00    +0.000 N 
ATOM     10  C   UNL     1       3.732   5.513  19.298  0.00  0.00    +0.000 C 
ATOM     11  C   UNL     1       5.158   5.064  19.056  0.00  0.00    +0.000 C 
ATOM     12  C   UNL     1       5.424   5.452  17.591  0.00  0.00    +0.000 C 
ATOM     13  C   UNL     1       4.634   6.775  17.478  0.00  0.00    +0.000 C 
ATOM     14  S   UNL     1       0.533   8.670  21.785  0.00  0.00    +0.000 S 
ATOM     15  H   UNL     1       2.161   7.065  20.547  0.00  0.00    +0.000 HD
ENDROOT
BRANCH  12  16
ATOM     16  N   UNL     1       5.037   4.330  16.691  0.00  0.00    +0.000 N 
ATOM     17  C   UNL     1       3.757   3.649  16.888  0.00  0.00    +0.000 C 
BRANCH  16  18
ATOM     18  C   UNL     1       5.612   4.303  15.405  0.00  0.00    +0.000 A 
ATOM     19  C   UNL     1       6.904   4.779  15.138  0.00  0.00    +0.000 A 
ATOM     20  C   UNL     1       7.459   4.741  13.850  0.00  0.00    +0.000 A 
ATOM     21  C   UNL     1       6.731   4.236  12.775  0.00  0.00    +0.000 A 
ATOM     22 CL   UNL     1       7.489   4.215  11.227  0.00  0.00    +0.000 Cl
ATOM     23  C   UNL     1       5.434   3.769  12.981  0.00  0.00    +0.000 A 
ATOM     24  C   UNL     1       4.556   3.196  11.904  0.00  0.00    +0.000 C 
ATOM     25  C   UNL     1       4.905   3.813  14.289  0.00  0.00    +0.000 A 
ENDBRANCH  16  18
ENDBRANCH  12  16
TORSDOF 2
ENDMDL
MODEL 4
REMARK VINA RESULT:      -7.1      4.762     10.024
REMARK  Name = 
REMARK  5 active torsions:
REMARK  status: ('A' for Active; 'I' for Inactive)
REMARK    1  A    between atoms: C_1  and  C_2
REMARK    2  A    between atoms: C_12  and  N_13
REMARK    3  A    between atoms: N_13  and  C_14
REMARK    4  A    between atoms: N_13  and  C_15
REMARK    5  A    between atoms: C_20  and  C_21
REMARK                            x       y       z     vdW  Elec       q    Type
REMARK                         _______ _______ _______ _____ _____    ______ ____
ROOT
ATOM      1  C   UNL     1       4.389   2.970  18.544  0.00  0.00    +0.000 C 
ATOM      2  C   UNL     1       3.842   4.348  18.606  0.00  0.00    +0.000 A 
ATOM      3  C   UNL     1       3.785   5.309  17.614  0.00  0.00    +0.000 A 
ATOM      4  N   UNL     1       3.179   6.495  17.964  0.00  0.00    +0.000 NA
ATOM      5  C   UNL     1       2.787   6.435  19.211  0.00  0.00    +0.000 A 
ATOM      6  N   UNL     1       2.122   7.368  19.960  0.00  0.00    +0.000 N 
ATOM      7  C   UNL     1       1.539   8.467  19.393  0.00  0.00    +0.000 C 
ATOM      8  O   UNL     1       1.539   8.737  18.195  0.00  0.00    +0.000 OA
ATOM      9  N   UNL     1       0.870   9.296  20.273  0.00  0.00    +0.000 N 
ATOM     10  C   UNL     1       0.751   9.207  21.715  0.00  0.00    +0.000 C 
ATOM     11  C   UNL     1      -0.561   9.905  22.009  0.00  0.00    +0.000 C 
ATOM     12  C   UNL     1      -0.602  11.058  20.991  0.00  0.00    +0.000 C 
ATOM     13  C   UNL     1       0.065  10.403  19.761  0.00  0.00    +0.000 C 
ATOM     14  S   UNL     1       3.146   4.981  20.043  0.00  0.00    +0.000 S 
ATOM     15  H   UNL     1       1.922   7.107  20.905  0.00  0.00    +0.000 HD
ENDROOT
BRANCH  12  16
ATOM     16  N   UNL     1       0.043  12.269  21.571  0.00  0.00    +0.000 N 
ATOM     17  C   UNL     1       1.181  12.884  20.887  0.00  0.00    +0.000 C 
BRANCH  16  18
ATOM     18  C   UNL     1      -0.742  13.080  22.414  0.00  0.00    +0.000 A 
ATOM     19  C   UNL     1      -0.376  14.386  22.771  0.00  0.00    +0.000 A 
ATOM     20  C   UNL     1      -1.173  15.178  23.612  0.00  0.00    +0.000 A 
ATOM     21  C   UNL     1      -2.364  14.683  24.138  0.00  0.00    +0.000 A 
ATOM     22 CL   UNL     1      -3.291  15.724  25.153  0.00  0.00    +0.000 Cl
ATOM     23  C   UNL     1      -2.765  13.384  23.832  0.00  0.00    +0.000 A 
ATOM     24  C   UNL     1      -4.029  12.745  24.332  0.00  0.00    +0.000 C 
ATOM     25  C   UNL     1      -1.946  12.613  22.978  0.00  0.00    +0.000 A 
ENDBRANCH  16  18
ENDBRANCH  12  16
TORSDOF 2
ENDMDL
MODEL 5
REMARK VINA RESULT:      -7.1      4.600      9.618
REMARK  Name = 
REMARK  5 active torsions:
REMARK  status: ('A' for Active; 'I' for Inactive)
REMARK    1  A    between atoms: C_1  and  C_2
REMARK    2  A    between atoms: C_12  and  N_13
REMARK    3  A    between atoms: N_13  and  C_14
REMARK    4  A    between atoms: N_13  and  C_15
REMARK    5  A    between atoms: C_20  and  C_21
REMARK                            x       y       z     vdW  Elec       q    Type
REMARK                         _______ _______ _______ _____ _____    ______ ____
ROOT
ATOM      1  C   UNL     1       6.427   4.099  16.708  0.00  0.00    +0.000 C 
ATOM      2  C   UNL     1       5.537   5.256  16.973  0.00  0.00    +0.000 A 
ATOM      3  C   UNL     1       5.250   6.340  16.163  0.00  0.00    +0.000 A 
ATOM      4  N   UNL     1       4.347   7.244  16.673  0.00  0.00    +0.000 NA
ATOM      5  C   UNL     1       3.958   6.854  17.860  0.00  0.00    +0.000 A 
ATOM      6  N   UNL     1       3.055   7.430  18.713  0.00  0.00    +0.000 N 
ATOM      7  C   UNL     1       2.216   8.431  18.308  0.00  0.00    +0.000 C 
ATOM      8  O   UNL     1       2.172   8.913  17.180  0.00  0.00    +0.000 OA
ATOM      9  N   UNL     1       1.334   8.881  19.272  0.00  0.00    +0.000 N 
ATOM     10  C   UNL     1       1.211   8.496  20.663  0.00  0.00    +0.000 C 
ATOM     11  C   UNL     1      -0.244   8.770  20.983  0.00  0.00    +0.000 C 
ATOM     12  C   UNL     1      -0.564  10.044  20.183  0.00  0.00    +0.000 C 
ATOM     13  C   UNL     1       0.278   9.824  18.907  0.00  0.00    +0.000 C 
ATOM     14  S   UNL     1       4.667   5.410  18.446  0.00  0.00    +0.000 S 
ATOM     15  H   UNL     1       2.909   6.953  19.580  0.00  0.00    +0.000 HD
ENDROOT
BRANCH  12  16
ATOM     16  N   UNL     1      -0.273  11.248  21.011  0.00  0.00    +0.000 N 
ATOM     17  C   UNL     1       0.884  12.086  20.692  0.00  0.00    +0.000 C 
BRANCH  16  18
ATOM     18  C   UNL     1      -1.352  11.839  21.698  0.00  0.00    +0.000 A 
ATOM     19  C   UNL     1      -1.572  11.657  23.071  0.00  0.00    +0.000 A 
ATOM     20  C   UNL     1      -2.653  12.256  23.737  0.00  0.00    +0.000 A 
ATOM     21  C   UNL     1      -3.562  13.052  23.044  0.00  0.00    +0.000 A 
ATOM     22 CL   UNL     1      -4.856  13.761  23.938  0.00  0.00    +0.000 Cl
ATOM     23  C   UNL     1      -3.402  13.250  21.674  0.00  0.00    +0.000 A 
ATOM     24  C   UNL     1      -4.312  14.091  20.825  0.00  0.00    +0.000 C 
ATOM     25  C   UNL     1      -2.302  12.640  21.033  0.00  0.00    +0.000 A 
ENDBRANCH  16  18
ENDBRANCH  12  16
TORSDOF 2
ENDMDL
MODEL 6
REMARK VINA RESULT:      -7.0      3.800      5.458
REMARK  Name = 
REMARK  5 active torsions:
REMARK  status: ('A' for Active; 'I' for Inactive)
REMARK    1  A    between atoms: C_1  and  C_2
REMARK    2  A    between atoms: C_12  and  N_13
REMARK    3  A    between atoms: N_13  and  C_14
REMARK    4  A    between atoms: N_13  and  C_15
REMARK    5  A    between atoms: C_20  and  C_21
REMARK                            x       y       z     vdW  Elec       q    Type
REMARK                         _______ _______ _______ _____ _____    ______ ____
ROOT
ATOM      1  C   UNL     1      -7.424  13.539  18.117  0.00  0.00    +0.000 C 
ATOM      2  C   UNL     1      -6.220  12.677  18.022  0.00  0.00    +0.000 A 
ATOM      3  C   UNL     1      -5.859  11.789  17.025  0.00  0.00    +0.000 A 
ATOM      4  N   UNL     1      -4.651  11.153  17.200  0.00  0.00    +0.000 NA
ATOM      5  C   UNL     1      -4.105  11.550  18.322  0.00  0.00    +0.000 A 
ATOM      6  N   UNL     1      -2.902  11.201  18.875  0.00  0.00    +0.000 N 
ATOM      7  C   UNL     1      -1.950  10.524  18.165  0.00  0.00    +0.000 C 
ATOM      8  O   UNL     1      -2.053  10.163  16.996  0.00  0.00    +0.000 OA
ATOM      9  N   UNL     1      -0.773  10.280  18.847  0.00  0.00    +0.000 N 
ATOM     10  C   UNL     1      -0.425  10.578  20.222  0.00  0.00    +0.000 C 
ATOM     11  C   UNL     1       1.083  10.719  20.186  0.00  0.00    +0.000 C 
ATOM     12  C   UNL     1       1.529   9.659  19.165  0.00  0.00    +0.000 C 
ATOM     13  C   UNL     1       0.376   9.719  18.139  0.00  0.00    +0.000 C 
ATOM     14  S   UNL     1      -5.011  12.674  19.242  0.00  0.00    +0.000 S 
ATOM     15  H   UNL     1      -2.684  11.632  19.751  0.00  0.00    +0.000 HD
ENDROOT
BRANCH  12  16
ATOM     16  N   UNL     1       1.780   8.364  19.856  0.00  0.00    +0.000 N 
ATOM     17  C   UNL     1       0.968   7.989  21.014  0.00  0.00    +0.000 C 
BRANCH  16  18
ATOM     18  C   UNL     1       2.379   7.333  19.104  0.00  0.00    +0.000 A 
ATOM     19  C   UNL     1       3.286   7.579  18.063  0.00  0.00    +0.000 A 
ATOM     20  C   UNL     1       3.873   6.537  17.327  0.00  0.00    +0.000 A 
ATOM     21  C   UNL     1       3.560   5.208  17.602  0.00  0.00    +0.000 A 
ATOM     22 CL   UNL     1       4.333   3.988  16.659  0.00  0.00    +0.000 Cl
ATOM     23  C   UNL     1       2.649   4.908  18.612  0.00  0.00    +0.000 A 
ATOM     24  C   UNL     1       2.240   3.517  19.003  0.00  0.00    +0.000 C 
ATOM     25  C   UNL     1       2.080   5.977  19.340  0.00  0.00    +0.000 A 
ENDBRANCH  16  18
ENDBRANCH  12  16
TORSDOF 2
ENDMDL
MODEL 7
REMARK VINA RESULT:      -7.0      4.373      9.514
REMARK  Name = 
REMARK  5 active torsions:
REMARK  status: ('A' for Active; 'I' for Inactive)
REMARK    1  A    between atoms: C_1  and  C_2
REMARK    2  A    between atoms: C_12  and  N_13
REMARK    3  A    between atoms: N_13  and  C_14
REMARK    4  A    between atoms: N_13  and  C_15
REMARK    5  A    between atoms: C_20  and  C_21
REMARK                            x       y       z     vdW  Elec       q    Type
REMARK                         _______ _______ _______ _____ _____    ______ ____
ROOT
ATOM      1  C   UNL     1       6.367   4.086  15.942  0.00  0.00    +0.000 C 
ATOM      2  C   UNL     1       5.296   4.787  16.693  0.00  0.00    +0.000 A 
ATOM      3  C   UNL     1       4.492   4.313  17.714  0.00  0.00    +0.000 A 
ATOM      4  N   UNL     1       3.604   5.221  18.244  0.00  0.00    +0.000 NA
ATOM      5  C   UNL     1       3.728   6.368  17.627  0.00  0.00    +0.000 A 
ATOM      6  N   UNL     1       3.069   7.548  17.845  0.00  0.00    +0.000 N 
ATOM      7  C   UNL     1       2.310   7.757  18.963  0.00  0.00    +0.000 C 
ATOM      8  O   UNL     1       2.135   6.946  19.869  0.00  0.00    +0.000 OA
ATOM      9  N   UNL     1       1.741   9.013  19.059  0.00  0.00    +0.000 N 
ATOM     10  C   UNL     1       1.776  10.116  18.121  0.00  0.00    +0.000 C 
ATOM     11  C   UNL     1       1.608  11.338  19.001  0.00  0.00    +0.000 C 
ATOM     12  C   UNL     1       0.623  10.877  20.088  0.00  0.00    +0.000 C 
ATOM     13  C   UNL     1       1.054   9.407  20.287  0.00  0.00    +0.000 C 
ATOM     14  S   UNL     1       4.883   6.422  16.365  0.00  0.00    +0.000 S 
ATOM     15  H   UNL     1       3.326   8.308  17.247  0.00  0.00    +0.000 HD
ENDROOT
BRANCH  12  16
ATOM     16  N   UNL     1      -0.776  11.139  19.649  0.00  0.00    +0.000 N 
ATOM     17  C   UNL     1      -1.373  10.316  18.597  0.00  0.00    +0.000 C 
BRANCH  16  18
ATOM     18  C   UNL     1      -1.638  11.767  20.570  0.00  0.00    +0.000 A 
ATOM     19  C   UNL     1      -1.408  11.762  21.954  0.00  0.00    +0.000 A 
ATOM     20  C   UNL     1      -2.279  12.395  22.855  0.00  0.00    +0.000 A 
ATOM     21  C   UNL     1      -3.423  13.046  22.400  0.00  0.00    +0.000 A 
ATOM     22 CL   UNL     1      -4.435  13.808  23.570  0.00  0.00    +0.000 Cl
ATOM     23  C   UNL     1      -3.711  13.064  21.036  0.00  0.00    +0.000 A 
ATOM     24  C   UNL     1      -4.907  13.740  20.429  0.00  0.00    +0.000 C 
ATOM     25  C   UNL     1      -2.813  12.425  20.154  0.00  0.00    +0.000 A 
ENDBRANCH  16  18
ENDBRANCH  12  16
TORSDOF 2
ENDMDL
MODEL 8
REMARK VINA RESULT:      -7.0      1.137      1.621
REMARK  Name = 
REMARK  5 active torsions:
REMARK  status: ('A' for Active; 'I' for Inactive)
REMARK    1  A    between atoms: C_1  and  C_2
REMARK    2  A    between atoms: C_12  and  N_13
REMARK    3  A    between atoms: N_13  and  C_14
REMARK    4  A    between atoms: N_13  and  C_15
REMARK    5  A    between atoms: C_20  and  C_21
REMARK                            x       y       z     vdW  Elec       q    Type
REMARK                         _______ _______ _______ _____ _____    ______ ____
ROOT
ATOM      1  C   UNL     1      -0.078  12.934  19.786  0.00  0.00    +0.000 C 
ATOM      2  C   UNL     1       0.446  11.567  20.022  0.00  0.00    +0.000 A 
ATOM      3  C   UNL     1       0.805  10.963  21.214  0.00  0.00    +0.000 A 
ATOM      4  N   UNL     1       1.227   9.657  21.119  0.00  0.00    +0.000 NA
ATOM      5  C   UNL     1       1.195   9.276  19.867  0.00  0.00    +0.000 A 
ATOM      6  N   UNL     1       1.502   8.058  19.320  0.00  0.00    +0.000 N 
ATOM      7  C   UNL     1       1.671   6.942  20.091  0.00  0.00    +0.000 C 
ATOM      8  O   UNL     1       1.571   6.897  21.314  0.00  0.00    +0.000 OA
ATOM      9  N   UNL     1       1.936   5.781  19.391  0.00  0.00    +0.000 N 
ATOM     10  C   UNL     1       2.127   5.584  17.968  0.00  0.00    +0.000 C 
ATOM     11  C   UNL     1       1.708   4.145  17.747  0.00  0.00    +0.000 C 
ATOM     12  C   UNL     1       2.198   3.420  19.012  0.00  0.00    +0.000 C 
ATOM     13  C   UNL     1       1.964   4.499  20.092  0.00  0.00    +0.000 C 
ATOM     14  S   UNL     1       0.693  10.457  18.734  0.00  0.00    +0.000 S 
ATOM     15  H   UNL     1       1.405   7.990  18.327  0.00  0.00    +0.000 HD
ENDROOT
BRANCH  12  16
ATOM     16  N   UNL     1       3.590   2.929  18.807  0.00  0.00    +0.000 N 
ATOM     17  C   UNL     1       3.821   1.531  18.443  0.00  0.00    +0.000 C 
BRANCH  16  18
ATOM     18  C   UNL     1       4.566   3.879  18.445  0.00  0.00    +0.000 A 
ATOM     19  C   UNL     1       5.277   4.637  19.387  0.00  0.00    +0.000 A 
ATOM     20  C   UNL     1       6.246   5.578  19.005  0.00  0.00    +0.000 A 
ATOM     21  C   UNL     1       6.529   5.803  17.660  0.00  0.00    +0.000 A 
ATOM     22 CL   UNL     1       7.741   6.967  17.275  0.00  0.00    +0.000 Cl
ATOM     23  C   UNL     1       5.836   5.092  16.682  0.00  0.00    +0.000 A 
ATOM     24  C   UNL     1       6.059   5.243  15.204  0.00  0.00    +0.000 C 
ATOM     25  C   UNL     1       4.872   4.147  17.096  0.00  0.00    +0.000 A 
ENDBRANCH  16  18
ENDBRANCH  12  16
TORSDOF 2
ENDMDL
MODEL 9
REMARK VINA RESULT:      -6.9      4.511      9.772
REMARK  Name = 
REMARK  5 active torsions:
REMARK  status: ('A' for Active; 'I' for Inactive)
REMARK    1  A    between atoms: C_1  and  C_2
REMARK    2  A    between atoms: C_12  and  N_13
REMARK    3  A    between atoms: N_13  and  C_14
REMARK    4  A    between atoms: N_13  and  C_15
REMARK    5  A    between atoms: C_20  and  C_21
REMARK                            x       y       z     vdW  Elec       q    Type
REMARK                         _______ _______ _______ _____ _____    ______ ____
ROOT
ATOM      1  C   UNL     1       4.236   3.536  17.481  0.00  0.00    +0.000 C 
ATOM      2  C   UNL     1       3.863   4.961  17.661  0.00  0.00    +0.000 A 
ATOM      3  C   UNL     1       4.508   6.097  17.207  0.00  0.00    +0.000 A 
ATOM      4  N   UNL     1       3.894   7.292  17.503  0.00  0.00    +0.000 NA
ATOM      5  C   UNL     1       2.798   7.065  18.182  0.00  0.00    +0.000 A 
ATOM      6  N   UNL     1       1.870   7.953  18.657  0.00  0.00    +0.000 N 
ATOM      7  C   UNL     1       1.849   9.260  18.257  0.00  0.00    +0.000 C 
ATOM      8  O   UNL     1       2.625   9.774  17.456  0.00  0.00    +0.000 OA
ATOM      9  N   UNL     1       0.827  10.021  18.793  0.00  0.00    +0.000 N 
ATOM     10  C   UNL     1      -0.183   9.655  19.766  0.00  0.00    +0.000 C 
ATOM     11  C   UNL     1      -1.337  10.584  19.449  0.00  0.00    +0.000 C 
ATOM     12  C   UNL     1      -0.651  11.901  19.048  0.00  0.00    +0.000 C 
ATOM     13  C   UNL     1       0.601  11.381  18.308  0.00  0.00    +0.000 C 
ATOM     14  S   UNL     1       2.455   5.424  18.531  0.00  0.00    +0.000 S 
ATOM     15  H   UNL     1       1.100   7.553  19.156  0.00  0.00    +0.000 HD
ENDROOT
BRANCH  12  16
ATOM     16  N   UNL     1      -0.444  12.752  20.253  0.00  0.00    +0.000 N 
ATOM     17  C   UNL     1       0.331  13.989  20.145  0.00  0.00    +0.000 C 
BRANCH  16  18
ATOM     18  C   UNL     1      -1.396  12.653  21.287  0.00  0.00    +0.000 A 
ATOM     19  C   UNL     1      -1.085  12.162  22.563  0.00  0.00    +0.000 A 
ATOM     20  C   UNL     1      -2.048  12.073  23.581  0.00  0.00    +0.000 A 
ATOM     21  C   UNL     1      -3.366  12.463  23.350  0.00  0.00    +0.000 A 
ATOM     22 CL   UNL     1      -4.485  12.332  24.655  0.00  0.00    +0.000 Cl
ATOM     23  C   UNL     1      -3.733  12.939  22.093  0.00  0.00    +0.000 A 
ATOM     24  C   UNL     1      -5.117  13.395  21.728  0.00  0.00    +0.000 C 
ATOM     25  C   UNL     1      -2.741  13.023  21.091  0.00  0.00    +0.000 A 
ENDBRANCH  16  18
ENDBRANCH  12  16
TORSDOF 2
ENDMDL
