MODEL 1
REMARK VINA RESULT:      -8.2      0.000      0.000
REMARK  Name = 
REMARK  6 active torsions:
REMARK  status: ('A' for Active; 'I' for Inactive)
REMARK    1  A    between atoms: C_1  and  C_2
REMARK    2  A    between atoms: N_4  and  C_5
REMARK    3  A    between atoms: C_8  and  N_9
REMARK    4  A    between atoms: C_10  and  C_12
REMARK    5  A    between atoms: C_14  and  N_15
REMARK    6  A    between atoms: C_19  and  N_20
REMARK                            x       y       z     vdW  Elec       q    Type
REMARK                         _______ _______ _______ _____ _____    ______ ____
ROOT
ATOM      1  N   UNL     1       2.279   7.500  19.584  0.00  0.00    +0.000 N 
ATOM      2  C   UNL     1       2.724   7.550  18.269  0.00  0.00    +0.000 C 
ATOM      3  O   UNL     1       2.591   8.492  17.495  0.00  0.00    +0.000 OA
ATOM      4  H   UNL     1       2.577   6.748  20.188  0.00  0.00    +0.000 HD
ENDROOT
BRANCH   1   8
ATOM      5  C   UNL     1      -0.179  10.419  21.433  0.00  0.00    +0.000 A 
ATOM      6  C   UNL     1       0.073  10.471  20.065  0.00  0.00    +0.000 A 
ATOM      7  C   UNL     1       0.877   9.513  19.447  0.00  0.00    +0.000 A 
ATOM      8  C   UNL     1       1.449   8.476  20.180  0.00  0.00    +0.000 A 
ATOM      9  C   UNL     1       1.171   8.392  21.547  0.00  0.00    +0.000 A 
ATOM     10  C   UNL     1       0.385   9.373  22.176  0.00  0.00    +0.000 A 
BRANCH   5  14
ATOM     11  C   UNL     1      -1.566  13.436  23.215  0.00  0.00    +0.000 C 
ATOM     12  C   UNL     1      -0.572  12.696  22.360  0.00  0.00    +0.000 C 
ATOM     13  O   UNL     1       0.448  13.256  21.974  0.00  0.00    +0.000 OA
ATOM     14  N   UNL     1      -0.957  11.389  22.097  0.00  0.00    +0.000 N 
ATOM     15  H   UNL     1      -1.900  11.123  22.348  0.00  0.00    +0.000 HD
ENDBRANCH   5  14
ENDBRANCH   1   8
BRANCH   2  16
ATOM     16  C   UNL     1       3.427   6.356  17.732  0.00  0.00    +0.000 A 
ATOM     17  C   UNL     1       2.815   5.108  17.948  0.00  0.00    +0.000 A 
ATOM     18  C   UNL     1       3.413   3.936  17.478  0.00  0.00    +0.000 A 
ATOM     19  C   UNL     1       4.622   3.989  16.775  0.00  0.00    +0.000 A 
ATOM     20  C   UNL     1       5.218   5.239  16.549  0.00  0.00    +0.000 A 
ATOM     21  C   UNL     1       4.626   6.426  17.017  0.00  0.00    +0.000 A 
BRANCH  18  22
ATOM     22  N   UNL     1       2.770   2.640  17.739  0.00  0.00    +0.000 N 
ATOM     23  O   UNL     1       1.536   2.612  17.814  0.00  0.00    +0.000 OA
ATOM     24  O   UNL     1       3.510   1.657  17.879  0.00  0.00    +0.000 OA
ENDBRANCH  18  22
BRANCH  20  25
ATOM     25  N   UNL     1       6.490   5.313  15.817  0.00  0.00    +0.000 N 
ATOM     26  O   UNL     1       6.476   5.814  14.687  0.00  0.00    +0.000 OA
ATOM     27  O   UNL     1       7.496   4.855  16.377  0.00  0.00    +0.000 OA
ENDBRANCH  20  25
ENDBRANCH   2  16
TORSDOF 5
ENDMDL
MODEL 2
REMARK VINA RESULT:      -8.1      0.579      2.969
REMARK  Name = 
REMARK  6 active torsions:
REMARK  status: ('A' for Active; 'I' for Inactive)
REMARK    1  A    between atoms: C_1  and  C_2
REMARK    2  A    between atoms: N_4  and  C_5
REMARK    3  A    between atoms: C_8  and  N_9
REMARK    4  A    between atoms: C_10  and  C_12
REMARK    5  A    between atoms: C_14  and  N_15
REMARK    6  A    between atoms: C_19  and  N_20
REMARK                            x       y       z     vdW  Elec       q    Type
REMARK                         _______ _______ _______ _____ _____    ______ ____
ROOT
ATOM      1  N   UNL     1       2.226   7.380  19.924  0.00  0.00    +0.000 N 
ATOM      2  C   UNL     1       2.748   7.378  18.638  0.00  0.00    +0.000 C 
ATOM      3  O   UNL     1       2.677   8.294  17.826  0.00  0.00    +0.000 OA
ATOM      4  H   UNL     1       2.476   6.644  20.570  0.00  0.00    +0.000 HD
ENDROOT
BRANCH   1   8
ATOM      5  C   UNL     1      -0.282  10.402  21.522  0.00  0.00    +0.000 A 
ATOM      6  C   UNL     1      -0.102  10.287  20.147  0.00  0.00    +0.000 A 
ATOM      7  C   UNL     1       0.717   9.293  19.612  0.00  0.00    +0.000 A 
ATOM      8  C   UNL     1       1.378   8.387  20.437  0.00  0.00    +0.000 A 
ATOM      9  C   UNL     1       1.174   8.470  21.818  0.00  0.00    +0.000 A 
ATOM     10  C   UNL     1       0.372   9.488  22.359  0.00  0.00    +0.000 A 
BRANCH   5  14
ATOM     11  C   UNL     1      -1.695  13.510  23.118  0.00  0.00    +0.000 C 
ATOM     12  C   UNL     1      -0.665  12.715  22.361  0.00  0.00    +0.000 C 
ATOM     13  O   UNL     1       0.401  13.230  22.044  0.00  0.00    +0.000 OA
ATOM     14  N   UNL     1      -1.074  11.416  22.100  0.00  0.00    +0.000 N 
ATOM     15  H   UNL     1      -2.043  11.188  22.282  0.00  0.00    +0.000 HD
ENDBRANCH   5  14
ENDBRANCH   1   8
BRANCH   2  16
ATOM     16  C   UNL     1       3.462   6.156  18.183  0.00  0.00    +0.000 A 
ATOM     17  C   UNL     1       4.772   6.329  17.701  0.00  0.00    +0.000 A 
ATOM     18  C   UNL     1       5.510   5.231  17.251  0.00  0.00    +0.000 A 
ATOM     19  C   UNL     1       4.961   3.944  17.286  0.00  0.00    +0.000 A 
ATOM     20  C   UNL     1       3.660   3.778  17.785  0.00  0.00    +0.000 A 
ATOM     21  C   UNL     1       2.907   4.874  18.240  0.00  0.00    +0.000 A 
BRANCH  18  22
ATOM     22  N   UNL     1       6.867   5.438  16.725  0.00  0.00    +0.000 N 
ATOM     23  O   UNL     1       7.113   6.513  16.166  0.00  0.00    +0.000 OA
ATOM     24  O   UNL     1       7.678   4.513  16.868  0.00  0.00    +0.000 OA
ENDBRANCH  18  22
BRANCH  20  25
ATOM     25  N   UNL     1       3.066   2.434  17.824  0.00  0.00    +0.000 N 
ATOM     26  O   UNL     1       1.953   2.282  17.307  0.00  0.00    +0.000 OA
ATOM     27  O   UNL     1       3.715   1.541  18.387  0.00  0.00    +0.000 OA
ENDBRANCH  20  25
ENDBRANCH   2  16
TORSDOF 5
ENDMDL
MODEL 3
REMARK VINA RESULT:      -8.0      0.331      3.118
REMARK  Name = 
REMARK  6 active torsions:
REMARK  status: ('A' for Active; 'I' for Inactive)
REMARK    1  A    between atoms: C_1  and  C_2
REMARK    2  A    between atoms: N_4  and  C_5
REMARK    3  A    between atoms: C_8  and  N_9
REMARK    4  A    between atoms: C_10  and  C_12
REMARK    5  A    between atoms: C_14  and  N_15
REMARK    6  A    between atoms: C_19  and  N_20
REMARK                            x       y       z     vdW  Elec       q    Type
REMARK                         _______ _______ _______ _____ _____    ______ ____
ROOT
ATOM      1  N   UNL     1       2.154   7.459  19.882  0.00  0.00    +0.000 N 
ATOM      2  C   UNL     1       2.627   7.525  18.578  0.00  0.00    +0.000 C 
ATOM      3  O   UNL     1       2.573   8.500  17.837  0.00  0.00    +0.000 OA
ATOM      4  H   UNL     1       2.390   6.668  20.464  0.00  0.00    +0.000 HD
ENDROOT
BRANCH   1   8
ATOM      5  C   UNL     1      -0.219  10.481  21.675  0.00  0.00    +0.000 A 
ATOM      6  C   UNL     1       0.505   9.591  22.463  0.00  0.00    +0.000 A 
ATOM      7  C   UNL     1       1.292   8.596  21.882  0.00  0.00    +0.000 A 
ATOM      8  C   UNL     1       1.377   8.466  20.498  0.00  0.00    +0.000 A 
ATOM      9  C   UNL     1       0.685   9.379  19.697  0.00  0.00    +0.000 A 
ATOM     10  C   UNL     1      -0.131  10.363  20.282  0.00  0.00    +0.000 A 
BRANCH   5  14
ATOM     11  C   UNL     1      -1.761  13.572  23.181  0.00  0.00    +0.000 C 
ATOM     12  C   UNL     1      -0.702  12.801  22.441  0.00  0.00    +0.000 C 
ATOM     13  O   UNL     1       0.337  13.353  22.095  0.00  0.00    +0.000 OA
ATOM     14  N   UNL     1      -1.052  11.476  22.227  0.00  0.00    +0.000 N 
ATOM     15  H   UNL     1      -2.008  11.211  22.426  0.00  0.00    +0.000 HD
ENDBRANCH   5  14
ENDBRANCH   1   8
BRANCH   2  16
ATOM     16  C   UNL     1       3.261   6.307  18.011  0.00  0.00    +0.000 A 
ATOM     17  C   UNL     1       4.466   6.486  17.308  0.00  0.00    +0.000 A 
ATOM     18  C   UNL     1       5.123   5.391  16.740  0.00  0.00    +0.000 A 
ATOM     19  C   UNL     1       4.598   4.101  16.874  0.00  0.00    +0.000 A 
ATOM     20  C   UNL     1       3.404   3.928  17.591  0.00  0.00    +0.000 A 
ATOM     21  C   UNL     1       2.733   5.021  18.166  0.00  0.00    +0.000 A 
BRANCH  18  22
ATOM     22  N   UNL     1       6.367   5.605  15.987  0.00  0.00    +0.000 N 
ATOM     23  O   UNL     1       6.303   5.603  14.753  0.00  0.00    +0.000 OA
ATOM     24  O   UNL     1       7.407   5.765  16.642  0.00  0.00    +0.000 OA
ENDBRANCH  18  22
BRANCH  20  25
ATOM     25  N   UNL     1       2.836   2.581  17.736  0.00  0.00    +0.000 N 
ATOM     26  O   UNL     1       1.605   2.472  17.730  0.00  0.00    +0.000 OA
ATOM     27  O   UNL     1       3.630   1.639  17.870  0.00  0.00    +0.000 OA
ENDBRANCH  20  25
ENDBRANCH   2  16
TORSDOF 5
ENDMDL
MODEL 4
REMARK VINA RESULT:      -8.0      0.679      1.337
REMARK  Name = 
REMARK  6 active torsions:
REMARK  status: ('A' for Active; 'I' for Inactive)
REMARK    1  A    between atoms: C_1  and  C_2
REMARK    2  A    between atoms: N_4  and  C_5
REMARK    3  A    between atoms: C_8  and  N_9
REMARK    4  A    between atoms: C_10  and  C_12
REMARK    5  A    between atoms: C_14  and  N_15
REMARK    6  A    between atoms: C_19  and  N_20
REMARK                            x       y       z     vdW  Elec       q    Type
REMARK                         _______ _______ _______ _____ _____    ______ ____
ROOT
ATOM      1  N   UNL     1       2.093   7.685  20.023  0.00  0.00    +0.000 N 
ATOM      2  C   UNL     1       2.343   7.664  18.658  0.00  0.00    +0.000 C 
ATOM      3  O   UNL     1       2.017   8.526  17.849  0.00  0.00    +0.000 OA
ATOM      4  H   UNL     1       2.542   7.011  20.627  0.00  0.00    +0.000 HD
ENDROOT
BRANCH   1   8
ATOM      5  C   UNL     1      -0.429  10.534  21.893  0.00  0.00    +0.000 A 
ATOM      6  C   UNL     1       0.254   9.589  22.653  0.00  0.00    +0.000 A 
ATOM      7  C   UNL     1       1.090   8.651  22.047  0.00  0.00    +0.000 A 
ATOM      8  C   UNL     1       1.266   8.633  20.666  0.00  0.00    +0.000 A 
ATOM      9  C   UNL     1       0.614   9.602  19.897  0.00  0.00    +0.000 A 
ATOM     10  C   UNL     1      -0.250  10.529  20.504  0.00  0.00    +0.000 A 
BRANCH   5  14
ATOM     11  C   UNL     1      -2.105  13.486  23.531  0.00  0.00    +0.000 C 
ATOM     12  C   UNL     1      -0.993  12.784  22.798  0.00  0.00    +0.000 C 
ATOM     13  O   UNL     1       0.054  13.374  22.555  0.00  0.00    +0.000 OA
ATOM     14  N   UNL     1      -1.309  11.475  22.468  0.00  0.00    +0.000 N 
ATOM     15  H   UNL     1      -2.270  11.184  22.591  0.00  0.00    +0.000 HD
ENDBRANCH   5  14
ENDBRANCH   1   8
BRANCH   2  16
ATOM     16  C   UNL     1       3.074   6.493  18.106  0.00  0.00    +0.000 A 
ATOM     17  C   UNL     1       2.436   5.243  18.206  0.00  0.00    +0.000 A 
ATOM     18  C   UNL     1       3.058   4.092  17.715  0.00  0.00    +0.000 A 
ATOM     19  C   UNL     1       4.316   4.169  17.107  0.00  0.00    +0.000 A 
ATOM     20  C   UNL     1       4.937   5.422  16.996  0.00  0.00    +0.000 A 
ATOM     21  C   UNL     1       4.323   6.588  17.486  0.00  0.00    +0.000 A 
BRANCH  18  22
ATOM     22  N   UNL     1       2.386   2.792  17.854  0.00  0.00    +0.000 N 
ATOM     23  O   UNL     1       3.086   1.773  17.827  0.00  0.00    +0.000 OA
ATOM     24  O   UNL     1       1.154   2.801  17.980  0.00  0.00    +0.000 OA
ENDBRANCH  18  22
BRANCH  20  25
ATOM     25  N   UNL     1       6.261   5.520  16.365  0.00  0.00    +0.000 N 
ATOM     26  O   UNL     1       6.887   6.578  16.503  0.00  0.00    +0.000 OA
ATOM     27  O   UNL     1       6.660   4.539  15.723  0.00  0.00    +0.000 OA
ENDBRANCH  20  25
ENDBRANCH   2  16
TORSDOF 5
ENDMDL
MODEL 5
REMARK VINA RESULT:      -8.0      0.914      1.023
REMARK  Name = 
REMARK  6 active torsions:
REMARK  status: ('A' for Active; 'I' for Inactive)
REMARK    1  A    between atoms: C_1  and  C_2
REMARK    2  A    between atoms: N_4  and  C_5
REMARK    3  A    between atoms: C_8  and  N_9
REMARK    4  A    between atoms: C_10  and  C_12
REMARK    5  A    between atoms: C_14  and  N_15
REMARK    6  A    between atoms: C_19  and  N_20
REMARK                            x       y       z     vdW  Elec       q    Type
REMARK                         _______ _______ _______ _____ _____    ______ ____
ROOT
ATOM      1  N   UNL     1       2.298   7.809  19.389  0.00  0.00    +0.000 N 
ATOM      2  C   UNL     1       2.795   7.684  18.099  0.00  0.00    +0.000 C 
ATOM      3  O   UNL     1       2.593   8.457  17.168  0.00  0.00    +0.000 OA
ATOM      4  H   UNL     1       2.650   7.212  20.124  0.00  0.00    +0.000 HD
ENDROOT
BRANCH   1   8
ATOM      5  C   UNL     1      -0.575  10.668  20.636  0.00  0.00    +0.000 A 
ATOM      6  C   UNL     1       0.085  10.814  19.419  0.00  0.00    +0.000 A 
ATOM      7  C   UNL     1       1.029   9.876  18.999  0.00  0.00    +0.000 A 
ATOM      8  C   UNL     1       1.336   8.767  19.782  0.00  0.00    +0.000 A 
ATOM      9  C   UNL     1       0.651   8.590  20.988  0.00  0.00    +0.000 A 
ATOM     10  C   UNL     1      -0.279   9.549  21.425  0.00  0.00    +0.000 A 
BRANCH   5  14
ATOM     11  C   UNL     1      -2.648  13.133  22.591  0.00  0.00    +0.000 C 
ATOM     12  C   UNL     1      -1.422  12.309  22.306  0.00  0.00    +0.000 C 
ATOM     13  O   UNL     1      -0.484  12.303  23.096  0.00  0.00    +0.000 OA
ATOM     14  N   UNL     1      -1.508  11.613  21.109  0.00  0.00    +0.000 N 
ATOM     15  H   UNL     1      -2.274  11.847  20.490  0.00  0.00    +0.000 HD
ENDBRANCH   5  14
ENDBRANCH   1   8
BRANCH   2  16
ATOM     16  C   UNL     1       3.652   6.508  17.799  0.00  0.00    +0.000 A 
ATOM     17  C   UNL     1       3.061   5.240  17.940  0.00  0.00    +0.000 A 
ATOM     18  C   UNL     1       3.800   4.082  17.680  0.00  0.00    +0.000 A 
ATOM     19  C   UNL     1       5.134   4.170  17.265  0.00  0.00    +0.000 A 
ATOM     20  C   UNL     1       5.711   5.440  17.111  0.00  0.00    +0.000 A 
ATOM     21  C   UNL     1       4.978   6.612  17.369  0.00  0.00    +0.000 A 
BRANCH  18  22
ATOM     22  N   UNL     1       3.171   2.766  17.860  0.00  0.00    +0.000 N 
ATOM     23  O   UNL     1       2.195   2.490  17.152  0.00  0.00    +0.000 OA
ATOM     24  O   UNL     1       3.654   2.019  18.721  0.00  0.00    +0.000 OA
ENDBRANCH  18  22
BRANCH  20  25
ATOM     25  N   UNL     1       7.112   5.551  16.681  0.00  0.00    +0.000 N 
ATOM     26  O   UNL     1       7.772   4.509  16.597  0.00  0.00    +0.000 OA
ATOM     27  O   UNL     1       7.546   6.687  16.444  0.00  0.00    +0.000 OA
ENDBRANCH  20  25
ENDBRANCH   2  16
TORSDOF 5
ENDMDL
MODEL 6
REMARK VINA RESULT:      -7.9      1.850      2.147
REMARK  Name = 
REMARK  6 active torsions:
REMARK  status: ('A' for Active; 'I' for Inactive)
REMARK    1  A    between atoms: C_1  and  C_2
REMARK    2  A    between atoms: N_4  and  C_5
REMARK    3  A    between atoms: C_8  and  N_9
REMARK    4  A    between atoms: C_10  and  C_12
REMARK    5  A    between atoms: C_14  and  N_15
REMARK    6  A    between atoms: C_19  and  N_20
REMARK                            x       y       z     vdW  Elec       q    Type
REMARK                         _______ _______ _______ _____ _____    ______ ____
ROOT
ATOM      1  N   UNL     1       2.048   8.636  17.612  0.00  0.00    +0.000 N 
ATOM      2  C   UNL     1       2.486   7.632  18.465  0.00  0.00    +0.000 C 
ATOM      3  O   UNL     1       2.295   7.576  19.675  0.00  0.00    +0.000 OA
ATOM      4  H   UNL     1       2.114   8.511  16.612  0.00  0.00    +0.000 HD
ENDROOT
BRANCH   1   8
ATOM      5  C   UNL     1       0.317  12.296  18.873  0.00  0.00    +0.000 A 
ATOM      6  C   UNL     1      -0.467  11.153  18.739  0.00  0.00    +0.000 A 
ATOM      7  C   UNL     1       0.095   9.944  18.329  0.00  0.00    +0.000 A 
ATOM      8  C   UNL     1       1.454   9.844  18.044  0.00  0.00    +0.000 A 
ATOM      9  C   UNL     1       2.257  10.976  18.213  0.00  0.00    +0.000 A 
ATOM     10  C   UNL     1       1.687  12.201  18.598  0.00  0.00    +0.000 A 
BRANCH   5  14
ATOM     11  C   UNL     1      -1.076  15.323  20.632  0.00  0.00    +0.000 C 
ATOM     12  C   UNL     1      -0.318  14.025  20.548  0.00  0.00    +0.000 C 
ATOM     13  O   UNL     1       0.136  13.509  21.562  0.00  0.00    +0.000 OA
ATOM     14  N   UNL     1      -0.222  13.543  19.251  0.00  0.00    +0.000 N 
ATOM     15  H   UNL     1      -0.505  14.162  18.503  0.00  0.00    +0.000 HD
ENDBRANCH   5  14
ENDBRANCH   1   8
BRANCH   2  16
ATOM     16  C   UNL     1       3.263   6.513  17.873  0.00  0.00    +0.000 A 
ATOM     17  C   UNL     1       2.740   5.218  18.039  0.00  0.00    +0.000 A 
ATOM     18  C   UNL     1       3.412   4.110  17.515  0.00  0.00    +0.000 A 
ATOM     19  C   UNL     1       4.608   4.276  16.807  0.00  0.00    +0.000 A 
ATOM     20  C   UNL     1       5.115   5.572  16.631  0.00  0.00    +0.000 A 
ATOM     21  C   UNL     1       4.448   6.694  17.153  0.00  0.00    +0.000 A 
BRANCH  18  22
ATOM     22  N   UNL     1       2.861   2.764  17.725  0.00  0.00    +0.000 N 
ATOM     23  O   UNL     1       3.657   1.823  17.825  0.00  0.00    +0.000 OA
ATOM     24  O   UNL     1       1.628   2.657  17.777  0.00  0.00    +0.000 OA
ENDBRANCH  18  22
BRANCH  20  25
ATOM     25  N   UNL     1       6.373   5.764  15.895  0.00  0.00    +0.000 N 
ATOM     26  O   UNL     1       6.375   5.513  14.685  0.00  0.00    +0.000 OA
ATOM     27  O   UNL     1       7.356   6.154  16.540  0.00  0.00    +0.000 OA
ENDBRANCH  20  25
ENDBRANCH   2  16
TORSDOF 5
ENDMDL
MODEL 7
REMARK VINA RESULT:      -7.9      1.380      3.106
REMARK  Name = 
REMARK  6 active torsions:
REMARK  status: ('A' for Active; 'I' for Inactive)
REMARK    1  A    between atoms: C_1  and  C_2
REMARK    2  A    between atoms: N_4  and  C_5
REMARK    3  A    between atoms: C_8  and  N_9
REMARK    4  A    between atoms: C_10  and  C_12
REMARK    5  A    between atoms: C_14  and  N_15
REMARK    6  A    between atoms: C_19  and  N_20
REMARK                            x       y       z     vdW  Elec       q    Type
REMARK                         _______ _______ _______ _____ _____    ______ ____
ROOT
ATOM      1  N   UNL     1       1.872   7.808  20.519  0.00  0.00    +0.000 N 
ATOM      2  C   UNL     1       2.277   7.696  19.196  0.00  0.00    +0.000 C 
ATOM      3  O   UNL     1       2.042   8.496  18.297  0.00  0.00    +0.000 OA
ATOM      4  H   UNL     1       2.250   7.183  21.217  0.00  0.00    +0.000 HD
ENDROOT
BRANCH   1   8
ATOM      5  C   UNL     1      -0.787  10.758  22.007  0.00  0.00    +0.000 A 
ATOM      6  C   UNL     1      -0.592  10.609  20.637  0.00  0.00    +0.000 A 
ATOM      7  C   UNL     1       0.277   9.639  20.138  0.00  0.00    +0.000 A 
ATOM      8  C   UNL     1       0.973   8.790  20.995  0.00  0.00    +0.000 A 
ATOM      9  C   UNL     1       0.756   8.906  22.372  0.00  0.00    +0.000 A 
ATOM     10  C   UNL     1      -0.097   9.902  22.876  0.00  0.00    +0.000 A 
BRANCH   5  14
ATOM     11  C   UNL     1      -2.342  13.749  23.692  0.00  0.00    +0.000 C 
ATOM     12  C   UNL     1      -1.220  12.977  23.051  0.00  0.00    +0.000 C 
ATOM     13  O   UNL     1      -0.088  13.447  23.015  0.00  0.00    +0.000 OA
ATOM     14  N   UNL     1      -1.630  11.750  22.549  0.00  0.00    +0.000 N 
ATOM     15  H   UNL     1      -2.625  11.574  22.509  0.00  0.00    +0.000 HD
ENDBRANCH   5  14
ENDBRANCH   1   8
BRANCH   2  16
ATOM     16  C   UNL     1       3.068   6.497  18.816  0.00  0.00    +0.000 A 
ATOM     17  C   UNL     1       3.846   6.595  17.648  0.00  0.00    +0.000 A 
ATOM     18  C   UNL     1       4.617   5.510  17.219  0.00  0.00    +0.000 A 
ATOM     19  C   UNL     1       4.635   4.318  17.952  0.00  0.00    +0.000 A 
ATOM     20  C   UNL     1       3.870   4.236  19.126  0.00  0.00    +0.000 A 
ATOM     21  C   UNL     1       3.090   5.318  19.567  0.00  0.00    +0.000 A 
BRANCH  18  22
ATOM     22  N   UNL     1       5.401   5.625  15.981  0.00  0.00    +0.000 N 
ATOM     23  O   UNL     1       6.182   4.708  15.704  0.00  0.00    +0.000 OA
ATOM     24  O   UNL     1       5.234   6.644  15.296  0.00  0.00    +0.000 OA
ENDBRANCH  18  22
BRANCH  20  25
ATOM     25  N   UNL     1       3.873   2.989  19.905  0.00  0.00    +0.000 N 
ATOM     26  O   UNL     1       4.953   2.406  20.053  0.00  0.00    +0.000 OA
ATOM     27  O   UNL     1       2.787   2.596  20.354  0.00  0.00    +0.000 OA
ENDBRANCH  20  25
ENDBRANCH   2  16
TORSDOF 5
ENDMDL
MODEL 8
REMARK VINA RESULT:      -7.9      1.514      1.889
REMARK  Name = 
REMARK  6 active torsions:
REMARK  status: ('A' for Active; 'I' for Inactive)
REMARK    1  A    between atoms: C_1  and  C_2
REMARK    2  A    between atoms: N_4  and  C_5
REMARK    3  A    between atoms: C_8  and  N_9
REMARK    4  A    between atoms: C_10  and  C_12
REMARK    5  A    between atoms: C_14  and  N_15
REMARK    6  A    between atoms: C_19  and  N_20
REMARK                            x       y       z     vdW  Elec       q    Type
REMARK                         _______ _______ _______ _____ _____    ______ ____
ROOT
ATOM      1  N   UNL     1       1.912   7.981  19.562  0.00  0.00    +0.000 N 
ATOM      2  C   UNL     1       2.079   6.650  19.918  0.00  0.00    +0.000 C 
ATOM      3  O   UNL     1       1.489   6.062  20.817  0.00  0.00    +0.000 OA
ATOM      4  H   UNL     1       2.322   8.329  18.707  0.00  0.00    +0.000 HD
ENDROOT
BRANCH   1   8
ATOM      5  C   UNL     1      -0.419  10.782  21.730  0.00  0.00    +0.000 A 
ATOM      6  C   UNL     1       0.347   9.832  22.400  0.00  0.00    +0.000 A 
ATOM      7  C   UNL     1       1.120   8.909  21.695  0.00  0.00    +0.000 A 
ATOM      8  C   UNL     1       1.150   8.913  20.303  0.00  0.00    +0.000 A 
ATOM      9  C   UNL     1       0.415   9.888  19.621  0.00  0.00    +0.000 A 
ATOM     10  C   UNL     1      -0.387  10.799  20.330  0.00  0.00    +0.000 A 
BRANCH   5  14
ATOM     11  C   UNL     1      -1.922  13.672  23.626  0.00  0.00    +0.000 C 
ATOM     12  C   UNL     1      -0.874  12.990  22.788  0.00  0.00    +0.000 C 
ATOM     13  O   UNL     1       0.170  13.571  22.512  0.00  0.00    +0.000 OA
ATOM     14  N   UNL     1      -1.239  11.707  22.409  0.00  0.00    +0.000 N 
ATOM     15  H   UNL     1      -2.198  11.429  22.576  0.00  0.00    +0.000 HD
ENDBRANCH   5  14
ENDBRANCH   1   8
BRANCH   2  16
ATOM     16  C   UNL     1       3.064   5.847  19.148  0.00  0.00    +0.000 A 
ATOM     17  C   UNL     1       3.214   4.499  19.520  0.00  0.00    +0.000 A 
ATOM     18  C   UNL     1       4.123   3.677  18.848  0.00  0.00    +0.000 A 
ATOM     19  C   UNL     1       4.886   4.180  17.788  0.00  0.00    +0.000 A 
ATOM     20  C   UNL     1       4.717   5.522  17.412  0.00  0.00    +0.000 A 
ATOM     21  C   UNL     1       3.807   6.359  18.080  0.00  0.00    +0.000 A 
BRANCH  18  22
ATOM     22  N   UNL     1       4.284   2.279  19.271  0.00  0.00    +0.000 N 
ATOM     23  O   UNL     1       3.715   1.405  18.608  0.00  0.00    +0.000 OA
ATOM     24  O   UNL     1       4.974   2.066  20.278  0.00  0.00    +0.000 OA
ENDBRANCH  18  22
BRANCH  20  25
ATOM     25  N   UNL     1       5.514   6.068  16.304  0.00  0.00    +0.000 N 
ATOM     26  O   UNL     1       5.350   5.579  15.181  0.00  0.00    +0.000 OA
ATOM     27  O   UNL     1       6.311   6.978  16.571  0.00  0.00    +0.000 OA
ENDBRANCH  20  25
ENDBRANCH   2  16
TORSDOF 5
ENDMDL
MODEL 9
REMARK VINA RESULT:      -7.9      1.728      2.006
REMARK  Name = 
REMARK  6 active torsions:
REMARK  status: ('A' for Active; 'I' for Inactive)
REMARK    1  A    between atoms: C_1  and  C_2
REMARK    2  A    between atoms: N_4  and  C_5
REMARK    3  A    between atoms: C_8  and  N_9
REMARK    4  A    between atoms: C_10  and  C_12
REMARK    5  A    between atoms: C_14  and  N_15
REMARK    6  A    between atoms: C_19  and  N_20
REMARK                            x       y       z     vdW  Elec       q    Type
REMARK                         _______ _______ _______ _____ _____    ______ ____
ROOT
ATOM      1  N   UNL     1       2.121   8.604  17.686  0.00  0.00    +0.000 N 
ATOM      2  C   UNL     1       2.505   7.576  18.537  0.00  0.00    +0.000 C 
ATOM      3  O   UNL     1       2.308   7.526  19.746  0.00  0.00    +0.000 OA
ATOM      4  H   UNL     1       2.185   8.480  16.686  0.00  0.00    +0.000 HD
ENDROOT
BRANCH   1   8
ATOM      5  C   UNL     1       0.479  12.274  19.031  0.00  0.00    +0.000 A 
ATOM      6  C   UNL     1       1.798  12.210  18.592  0.00  0.00    +0.000 A 
ATOM      7  C   UNL     1       2.346  11.008  18.143  0.00  0.00    +0.000 A 
ATOM      8  C   UNL     1       1.589   9.839  18.121  0.00  0.00    +0.000 A 
ATOM      9  C   UNL     1       0.252   9.901  18.524  0.00  0.00    +0.000 A 
ATOM     10  C   UNL     1      -0.292  11.105  19.003  0.00  0.00    +0.000 A 
BRANCH   5  14
ATOM     11  C   UNL     1      -0.917  15.118  21.073  0.00  0.00    +0.000 C 
ATOM     12  C   UNL     1      -0.090  13.880  20.847  0.00  0.00    +0.000 C 
ATOM     13  O   UNL     1       0.498  13.351  21.783  0.00  0.00    +0.000 OA
ATOM     14  N   UNL     1      -0.097  13.464  19.524  0.00  0.00    +0.000 N 
ATOM     15  H   UNL     1      -0.495  14.095  18.841  0.00  0.00    +0.000 HD
ENDBRANCH   5  14
ENDBRANCH   1   8
BRANCH   2  16
ATOM     16  C   UNL     1       3.227   6.421  17.943  0.00  0.00    +0.000 A 
ATOM     17  C   UNL     1       2.634   5.155  18.099  0.00  0.00    +0.000 A 
ATOM     18  C   UNL     1       3.251   4.016  17.573  0.00  0.00    +0.000 A 
ATOM     19  C   UNL     1       4.459   4.122  16.874  0.00  0.00    +0.000 A 
ATOM     20  C   UNL     1       5.035   5.391  16.708  0.00  0.00    +0.000 A 
ATOM     21  C   UNL     1       4.425   6.544  17.233  0.00  0.00    +0.000 A 
BRANCH  18  22
ATOM     22  N   UNL     1       2.628   2.699  17.771  0.00  0.00    +0.000 N 
ATOM     23  O   UNL     1       1.397   2.651  17.867  0.00  0.00    +0.000 OA
ATOM     24  O   UNL     1       3.383   1.719  17.839  0.00  0.00    +0.000 OA
ENDBRANCH  18  22
BRANCH  20  25
ATOM     25  N   UNL     1       6.306   5.520  15.982  0.00  0.00    +0.000 N 
ATOM     26  O   UNL     1       7.352   5.375  16.623  0.00  0.00    +0.000 OA
ATOM     27  O   UNL     1       6.246   5.780  14.772  0.00  0.00    +0.000 OA
ENDBRANCH  20  25
ENDBRANCH   2  16
TORSDOF 5
ENDMDL
