MODEL 1
REMARK VINA RESULT:      -8.0      0.000      0.000
REMARK  Name = 
REMARK  4 active torsions:
REMARK  status: ('A' for Active; 'I' for Inactive)
REMARK    1  A    between atoms: C_1  and  C_2
REMARK    2  A    between atoms: C_4  and  C_5
REMARK    3  A    between atoms: N_8  and  C_9
REMARK    4  A    between atoms: C_13  and  N_14
REMARK                            x       y       z     vdW  Elec       q    Type
REMARK                         _______ _______ _______ _____ _____    ______ ____
ROOT
ATOM      1  C   UNL     1       1.924   3.075  21.199  0.00  0.00    +0.000 C 
ATOM      2  C   UNL     1       2.365   4.320  20.494  0.00  0.00    +0.000 A 
ATOM      3  N   UNL     1       1.617   5.424  20.684  0.00  0.00    +0.000 NA
ATOM      4  C   UNL     1       2.016   6.547  20.058  0.00  0.00    +0.000 A 
ATOM      5  C   UNL     1       3.145   6.567  19.268  0.00  0.00    +0.000 A 
ATOM      6  C   UNL     1       3.865   5.390  19.132  0.00  0.00    +0.000 A 
ATOM      7  N   UNL     1       3.474   4.255  19.733  0.00  0.00    +0.000 NA
ENDROOT
BRANCH   6   8
ATOM      8  N   UNL     1       4.995   5.427  18.304  0.00  0.00    +0.000 N 
ATOM      9  C   UNL     1       6.245   5.778  18.992  0.00  0.00    +0.000 C 
ATOM     10  C   UNL     1       7.440   5.209  18.213  0.00  0.00    +0.000 C 
ATOM     11  O   UNL     1       7.666   5.906  16.974  0.00  0.00    +0.000 OA
ATOM     12  C   UNL     1       6.918   5.360  15.962  0.00  0.00    +0.000 A 
ATOM     13  C   UNL     1       7.610   4.717  14.934  0.00  0.00    +0.000 A 
ATOM     14  C   UNL     1       6.904   4.144  13.877  0.00  0.00    +0.000 A 
ATOM     15  C   UNL     1       5.515   4.244  13.841  0.00  0.00    +0.000 A 
ATOM     16 CL   UNL     1       4.643   3.542  12.533  0.00  0.00    +0.000 Cl
ATOM     17  C   UNL     1       4.824   4.909  14.855  0.00  0.00    +0.000 A 
ATOM     18  C   UNL     1       5.520   5.473  15.936  0.00  0.00    +0.000 A 
ATOM     19  C   UNL     1       4.772   6.164  17.051  0.00  0.00    +0.000 C 
ENDBRANCH   6   8
BRANCH   4  20
ATOM     20  C   UNL     1       1.199   7.795  20.301  0.00  0.00    +0.000 C 
ATOM     21  C   UNL     1       1.443   8.891  19.255  0.00  0.00    +0.000 C 
ATOM     22  C   UNL     1       0.652  10.154  19.597  0.00  0.00    +0.000 C 
ATOM     23  N   UNL     1       0.972  10.628  20.952  0.00  0.00    +0.000 NA
ATOM     24  C   UNL     1       0.249  11.867  21.246  0.00  0.00    +0.000 C 
ATOM     25  C   UNL     1       0.656   9.612  21.963  0.00  0.00    +0.000 C 
ATOM     26  C   UNL     1       1.451   8.335  21.715  0.00  0.00    +0.000 C 
ENDBRANCH   4  20
TORSDOF 2
ENDMDL
MODEL 2
REMARK VINA RESULT:      -7.9      0.664      1.121
REMARK  Name = 
REMARK  4 active torsions:
REMARK  status: ('A' for Active; 'I' for Inactive)
REMARK    1  A    between atoms: C_1  and  C_2
REMARK    2  A    between atoms: C_4  and  C_5
REMARK    3  A    between atoms: N_8  and  C_9
REMARK    4  A    between atoms: C_13  and  N_14
REMARK                            x       y       z     vdW  Elec       q    Type
REMARK                         _______ _______ _______ _____ _____    ______ ____
ROOT
ATOM      1  C   UNL     1       1.310   3.070  20.305  0.00  0.00    +0.000 C 
ATOM      2  C   UNL     1       2.032   4.316  19.897  0.00  0.00    +0.000 A 
ATOM      3  N   UNL     1       1.529   5.484  20.343  0.00  0.00    +0.000 NA
ATOM      4  C   UNL     1       2.181   6.606  19.984  0.00  0.00    +0.000 A 
ATOM      5  C   UNL     1       3.317   6.559  19.205  0.00  0.00    +0.000 A 
ATOM      6  C   UNL     1       3.775   5.317  18.796  0.00  0.00    +0.000 A 
ATOM      7  N   UNL     1       3.129   4.187  19.128  0.00  0.00    +0.000 NA
ENDROOT
BRANCH   6   8
ATOM      8  N   UNL     1       4.917   5.295  17.984  0.00  0.00    +0.000 N 
ATOM      9  C   UNL     1       6.176   5.558  18.695  0.00  0.00    +0.000 C 
ATOM     10  C   UNL     1       7.344   4.926  17.923  0.00  0.00    +0.000 C 
ATOM     11  O   UNL     1       7.631   5.624  16.698  0.00  0.00    +0.000 OA
ATOM     12  C   UNL     1       6.866   5.140  15.669  0.00  0.00    +0.000 A 
ATOM     13  C   UNL     1       7.531   4.469  14.640  0.00  0.00    +0.000 A 
ATOM     14  C   UNL     1       6.807   3.955  13.566  0.00  0.00    +0.000 A 
ATOM     15  C   UNL     1       5.428   4.142  13.512  0.00  0.00    +0.000 A 
ATOM     16 CL   UNL     1       4.533   3.513  12.183  0.00  0.00    +0.000 Cl
ATOM     17  C   UNL     1       4.765   4.835  14.526  0.00  0.00    +0.000 A 
ATOM     18  C   UNL     1       5.479   5.339  15.625  0.00  0.00    +0.000 A 
ATOM     19  C   UNL     1       4.759   6.061  16.739  0.00  0.00    +0.000 C 
ENDBRANCH   6   8
BRANCH   4  20
ATOM     20  C   UNL     1       1.640   7.914  20.516  0.00  0.00    +0.000 C 
ATOM     21  C   UNL     1       0.363   7.745  21.350  0.00  0.00    +0.000 C 
ATOM     22  C   UNL     1      -0.180   9.105  21.792  0.00  0.00    +0.000 C 
ATOM     23  N   UNL     1      -0.408   9.985  20.636  0.00  0.00    +0.000 NA
ATOM     24  C   UNL     1      -0.979  11.262  21.068  0.00  0.00    +0.000 C 
ATOM     25  C   UNL     1       0.832  10.218  19.887  0.00  0.00    +0.000 C 
ATOM     26  C   UNL     1       1.407   8.905  19.368  0.00  0.00    +0.000 C 
ENDBRANCH   4  20
TORSDOF 2
ENDMDL
MODEL 3
REMARK VINA RESULT:      -7.7      1.238      1.731
REMARK  Name = 
REMARK  4 active torsions:
REMARK  status: ('A' for Active; 'I' for Inactive)
REMARK    1  A    between atoms: C_1  and  C_2
REMARK    2  A    between atoms: C_4  and  C_5
REMARK    3  A    between atoms: N_8  and  C_9
REMARK    4  A    between atoms: C_13  and  N_14
REMARK                            x       y       z     vdW  Elec       q    Type
REMARK                         _______ _______ _______ _____ _____    ______ ____
ROOT
ATOM      1  C   UNL     1       1.581   2.874  19.370  0.00  0.00    +0.000 C 
ATOM      2  C   UNL     1       2.341   4.095  18.953  0.00  0.00    +0.000 A 
ATOM      3  N   UNL     1       1.945   5.268  19.484  0.00  0.00    +0.000 NA
ATOM      4  C   UNL     1       2.633   6.366  19.116  0.00  0.00    +0.000 A 
ATOM      5  C   UNL     1       3.697   6.290  18.245  0.00  0.00    +0.000 A 
ATOM      6  C   UNL     1       4.046   5.043  17.751  0.00  0.00    +0.000 A 
ATOM      7  N   UNL     1       3.363   3.937  18.091  0.00  0.00    +0.000 NA
ENDROOT
BRANCH   6   8
ATOM      8  N   UNL     1       5.116   4.992  16.848  0.00  0.00    +0.000 N 
ATOM      9  C   UNL     1       6.427   5.301  17.436  0.00  0.00    +0.000 C 
ATOM     10  C   UNL     1       7.534   4.643  16.599  0.00  0.00    +0.000 C 
ATOM     11  O   UNL     1       7.708   5.283  15.322  0.00  0.00    +0.000 OA
ATOM     12  C   UNL     1       6.865   4.743  14.386  0.00  0.00    +0.000 A 
ATOM     13  C   UNL     1       7.450   4.029  13.338  0.00  0.00    +0.000 A 
ATOM     14  C   UNL     1       6.645   3.457  12.354  0.00  0.00    +0.000 A 
ATOM     15  C   UNL     1       5.264   3.629  12.408  0.00  0.00    +0.000 A 
ATOM     16 CL   UNL     1       4.269   2.928  11.191  0.00  0.00    +0.000 Cl
ATOM     17  C   UNL     1       4.679   4.364  13.441  0.00  0.00    +0.000 A 
ATOM     18  C   UNL     1       5.476   4.928  14.450  0.00  0.00    +0.000 A 
ATOM     19  C   UNL     1       4.843   5.696  15.586  0.00  0.00    +0.000 C 
ENDBRANCH   6   8
BRANCH   4  20
ATOM     20  C   UNL     1       2.215   7.678  19.742  0.00  0.00    +0.000 C 
ATOM     21  C   UNL     1       1.280   7.503  20.946  0.00  0.00    +0.000 C 
ATOM     22  C   UNL     1       0.829   8.861  21.485  0.00  0.00    +0.000 C 
ATOM     23  N   UNL     1       0.196   9.666  20.429  0.00  0.00    +0.000 NA
ATOM     24  C   UNL     1      -0.279  10.940  20.971  0.00  0.00    +0.000 C 
ATOM     25  C   UNL     1       1.120   9.908  19.315  0.00  0.00    +0.000 C 
ATOM     26  C   UNL     1       1.574   8.594  18.691  0.00  0.00    +0.000 C 
ENDBRANCH   4  20
TORSDOF 2
ENDMDL
MODEL 4
REMARK VINA RESULT:      -7.7      3.382      7.783
REMARK  Name = 
REMARK  4 active torsions:
REMARK  status: ('A' for Active; 'I' for Inactive)
REMARK    1  A    between atoms: C_1  and  C_2
REMARK    2  A    between atoms: C_4  and  C_5
REMARK    3  A    between atoms: N_8  and  C_9
REMARK    4  A    between atoms: C_13  and  N_14
REMARK                            x       y       z     vdW  Elec       q    Type
REMARK                         _______ _______ _______ _____ _____    ______ ____
ROOT
ATOM      1  C   UNL     1       1.806   3.905  21.358  0.00  0.00    +0.000 C 
ATOM      2  C   UNL     1       2.047   5.133  20.537  0.00  0.00    +0.000 A 
ATOM      3  N   UNL     1       2.829   4.992  19.449  0.00  0.00    +0.000 NA
ATOM      4  C   UNL     1       3.041   6.094  18.704  0.00  0.00    +0.000 A 
ATOM      5  C   UNL     1       2.476   7.306  19.035  0.00  0.00    +0.000 A 
ATOM      6  C   UNL     1       1.676   7.363  20.165  0.00  0.00    +0.000 A 
ATOM      7  N   UNL     1       1.466   6.281  20.932  0.00  0.00    +0.000 NA
ENDROOT
BRANCH   6   8
ATOM      8  N   UNL     1       1.131   8.612  20.498  0.00  0.00    +0.000 N 
ATOM      9  C   UNL     1       0.144   8.576  21.585  0.00  0.00    +0.000 C 
ATOM     10  C   UNL     1       0.083   9.950  22.269  0.00  0.00    +0.000 C 
ATOM     11  O   UNL     1      -0.538  10.947  21.438  0.00  0.00    +0.000 OA
ATOM     12  C   UNL     1       0.386  11.546  20.620  0.00  0.00    +0.000 A 
ATOM     13  C   UNL     1       0.662  12.895  20.850  0.00  0.00    +0.000 A 
ATOM     14  C   UNL     1       1.590  13.559  20.050  0.00  0.00    +0.000 A 
ATOM     15  C   UNL     1       2.213  12.877  19.007  0.00  0.00    +0.000 A 
ATOM     16 CL   UNL     1       3.356  13.697  18.014  0.00  0.00    +0.000 Cl
ATOM     17  C   UNL     1       1.919  11.535  18.759  0.00  0.00    +0.000 A 
ATOM     18  C   UNL     1       1.001  10.849  19.570  0.00  0.00    +0.000 A 
ATOM     19  C   UNL     1       0.705   9.388  19.324  0.00  0.00    +0.000 C 
ENDBRANCH   6   8
BRANCH   4  20
ATOM     20  C   UNL     1       3.887   5.929  17.461  0.00  0.00    +0.000 C 
ATOM     21  C   UNL     1       4.054   4.465  17.034  0.00  0.00    +0.000 C 
ATOM     22  C   UNL     1       4.980   4.355  15.822  0.00  0.00    +0.000 C 
ATOM     23  N   UNL     1       6.282   4.985  16.093  0.00  0.00    +0.000 NA
ATOM     24  C   UNL     1       7.177   4.825  14.945  0.00  0.00    +0.000 C 
ATOM     25  C   UNL     1       6.130   6.408  16.416  0.00  0.00    +0.000 C 
ATOM     26  C   UNL     1       5.256   6.594  17.651  0.00  0.00    +0.000 C 
ENDBRANCH   4  20
TORSDOF 2
ENDMDL
MODEL 5
REMARK VINA RESULT:      -7.6      1.060      1.217
REMARK  Name = 
REMARK  4 active torsions:
REMARK  status: ('A' for Active; 'I' for Inactive)
REMARK    1  A    between atoms: C_1  and  C_2
REMARK    2  A    between atoms: C_4  and  C_5
REMARK    3  A    between atoms: N_8  and  C_9
REMARK    4  A    between atoms: C_13  and  N_14
REMARK                            x       y       z     vdW  Elec       q    Type
REMARK                         _______ _______ _______ _____ _____    ______ ____
ROOT
ATOM      1  C   UNL     1       2.804   2.846  20.697  0.00  0.00    +0.000 C 
ATOM      2  C   UNL     1       3.056   4.015  19.796  0.00  0.00    +0.000 A 
ATOM      3  N   UNL     1       2.247   5.083  19.945  0.00  0.00    +0.000 NA
ATOM      4  C   UNL     1       2.478   6.138  19.141  0.00  0.00    +0.000 A 
ATOM      5  C   UNL     1       3.499   6.130  18.216  0.00  0.00    +0.000 A 
ATOM      6  C   UNL     1       4.291   4.995  18.133  0.00  0.00    +0.000 A 
ATOM      7  N   UNL     1       4.068   3.925  18.913  0.00  0.00    +0.000 NA
ENDROOT
BRANCH   6   8
ATOM      8  N   UNL     1       5.308   4.998  17.169  0.00  0.00    +0.000 N 
ATOM      9  C   UNL     1       6.644   5.316  17.692  0.00  0.00    +0.000 C 
ATOM     10  C   UNL     1       7.715   4.712  16.772  0.00  0.00    +0.000 C 
ATOM     11  O   UNL     1       7.802   5.398  15.510  0.00  0.00    +0.000 OA
ATOM     12  C   UNL     1       6.917   4.870  14.605  0.00  0.00    +0.000 A 
ATOM     13  C   UNL     1       7.456   4.205  13.501  0.00  0.00    +0.000 A 
ATOM     14  C   UNL     1       6.608   3.648  12.545  0.00  0.00    +0.000 A 
ATOM     15  C   UNL     1       5.229   3.787  12.684  0.00  0.00    +0.000 A 
ATOM     16 CL   UNL     1       4.180   3.105  11.502  0.00  0.00    +0.000 Cl
ATOM     17  C   UNL     1       4.689   4.474  13.773  0.00  0.00    +0.000 A 
ATOM     18  C   UNL     1       5.532   5.022  14.754  0.00  0.00    +0.000 A 
ATOM     19  C   UNL     1       4.949   5.737  15.950  0.00  0.00    +0.000 C 
ENDBRANCH   6   8
BRANCH   4  20
ATOM     20  C   UNL     1       1.596   7.352  19.334  0.00  0.00    +0.000 C 
ATOM     21  C   UNL     1       2.017   8.549  18.470  0.00  0.00    +0.000 C 
ATOM     22  C   UNL     1       1.141   9.767  18.767  0.00  0.00    +0.000 C 
ATOM     23  N   UNL     1       1.170  10.104  20.198  0.00  0.00    +0.000 NA
ATOM     24  C   UNL     1       0.371  11.303  20.458  0.00  0.00    +0.000 C 
ATOM     25  C   UNL     1       0.683   8.989  21.019  0.00  0.00    +0.000 C 
ATOM     26  C   UNL     1       1.544   7.748  20.815  0.00  0.00    +0.000 C 
ENDBRANCH   4  20
TORSDOF 2
ENDMDL
MODEL 6
REMARK VINA RESULT:      -7.2      5.029     10.274
REMARK  Name = 
REMARK  4 active torsions:
REMARK  status: ('A' for Active; 'I' for Inactive)
REMARK    1  A    between atoms: C_1  and  C_2
REMARK    2  A    between atoms: C_4  and  C_5
REMARK    3  A    between atoms: N_8  and  C_9
REMARK    4  A    between atoms: C_13  and  N_14
REMARK                            x       y       z     vdW  Elec       q    Type
REMARK                         _______ _______ _______ _____ _____    ______ ____
ROOT
ATOM      1  C   UNL     1      -1.954  10.051  16.932  0.00  0.00    +0.000 C 
ATOM      2  C   UNL     1      -0.955  10.163  18.042  0.00  0.00    +0.000 A 
ATOM      3  N   UNL     1       0.073   9.293  18.025  0.00  0.00    +0.000 NA
ATOM      4  C   UNL     1       0.977   9.397  19.018  0.00  0.00    +0.000 A 
ATOM      5  C   UNL     1       0.860  10.357  19.999  0.00  0.00    +0.000 A 
ATOM      6  C   UNL     1      -0.223  11.220  19.938  0.00  0.00    +0.000 A 
ATOM      7  N   UNL     1      -1.145  11.123  18.967  0.00  0.00    +0.000 NA
ENDROOT
BRANCH   6   8
ATOM      8  N   UNL     1      -0.336  12.173  20.961  0.00  0.00    +0.000 N 
ATOM      9  C   UNL     1       0.707  13.208  20.948  0.00  0.00    +0.000 C 
ATOM     10  C   UNL     1       0.184  14.474  21.643  0.00  0.00    +0.000 C 
ATOM     11  O   UNL     1       0.057  14.304  23.066  0.00  0.00    +0.000 OA
ATOM     12  C   UNL     1      -1.169  13.782  23.389  0.00  0.00    +0.000 A 
ATOM     13  C   UNL     1      -2.045  14.606  24.100  0.00  0.00    +0.000 A 
ATOM     14  C   UNL     1      -3.306  14.132  24.458  0.00  0.00    +0.000 A 
ATOM     15  C   UNL     1      -3.670  12.828  24.129  0.00  0.00    +0.000 A 
ATOM     16 CL   UNL     1      -5.224  12.238  24.576  0.00  0.00    +0.000 Cl
ATOM     17  C   UNL     1      -2.786  11.995  23.442  0.00  0.00    +0.000 A 
ATOM     18  C   UNL     1      -1.521  12.467  23.056  0.00  0.00    +0.000 A 
ATOM     19  C   UNL     1      -0.576  11.578  22.283  0.00  0.00    +0.000 C 
ENDBRANCH   6   8
BRANCH   4  20
ATOM     20  C   UNL     1       2.151   8.446  18.978  0.00  0.00    +0.000 C 
ATOM     21  C   UNL     1       2.595   8.092  17.552  0.00  0.00    +0.000 C 
ATOM     22  C   UNL     1       3.731   7.068  17.575  0.00  0.00    +0.000 C 
ATOM     23  N   UNL     1       3.345   5.866  18.330  0.00  0.00    +0.000 NA
ATOM     24  C   UNL     1       4.421   4.873  18.298  0.00  0.00    +0.000 C 
ATOM     25  C   UNL     1       3.005   6.193  19.719  0.00  0.00    +0.000 C 
ATOM     26  C   UNL     1       1.840   7.174  19.777  0.00  0.00    +0.000 C 
ENDBRANCH   4  20
TORSDOF 2
ENDMDL
MODEL 7
REMARK VINA RESULT:      -7.1      5.196      9.485
REMARK  Name = 
REMARK  4 active torsions:
REMARK  status: ('A' for Active; 'I' for Inactive)
REMARK    1  A    between atoms: C_1  and  C_2
REMARK    2  A    between atoms: C_4  and  C_5
REMARK    3  A    between atoms: N_8  and  C_9
REMARK    4  A    between atoms: C_13  and  N_14
REMARK                            x       y       z     vdW  Elec       q    Type
REMARK                         _______ _______ _______ _____ _____    ______ ____
ROOT
ATOM      1  C   UNL     1       0.203   9.616  23.226  0.00  0.00    +0.000 C 
ATOM      2  C   UNL     1       0.286   9.420  21.744  0.00  0.00    +0.000 A 
ATOM      3  N   UNL     1       1.334   8.710  21.282  0.00  0.00    +0.000 NA
ATOM      4  C   UNL     1       1.406   8.526  19.950  0.00  0.00    +0.000 A 
ATOM      5  C   UNL     1       0.445   9.031  19.101  0.00  0.00    +0.000 A 
ATOM      6  C   UNL     1      -0.606   9.742  19.658  0.00  0.00    +0.000 A 
ATOM      7  N   UNL     1      -0.688   9.953  20.982  0.00  0.00    +0.000 NA
ENDROOT
BRANCH   6   8
ATOM      8  N   UNL     1      -1.558  10.268  18.774  0.00  0.00    +0.000 N 
ATOM      9  C   UNL     1      -1.320   9.948  17.360  0.00  0.00    +0.000 C 
ATOM     10  C   UNL     1      -2.648  10.004  16.589  0.00  0.00    +0.000 C 
ATOM     11  O   UNL     1      -3.132  11.350  16.434  0.00  0.00    +0.000 OA
ATOM     12  C   UNL     1      -3.896  11.722  17.510  0.00  0.00    +0.000 A 
ATOM     13  C   UNL     1      -5.258  11.936  17.282  0.00  0.00    +0.000 A 
ATOM     14  C   UNL     1      -6.086  12.317  18.336  0.00  0.00    +0.000 A 
ATOM     15  C   UNL     1      -5.542  12.511  19.604  0.00  0.00    +0.000 A 
ATOM     16 CL   UNL     1      -6.561  12.987  20.906  0.00  0.00    +0.000 Cl
ATOM     17  C   UNL     1      -4.177  12.323  19.828  0.00  0.00    +0.000 A 
ATOM     18  C   UNL     1      -3.334  11.919  18.779  0.00  0.00    +0.000 A 
ATOM     19  C   UNL     1      -1.864  11.684  19.027  0.00  0.00    +0.000 C 
ENDBRANCH   6   8
BRANCH   4  20
ATOM     20  C   UNL     1       2.560   7.697  19.434  0.00  0.00    +0.000 C 
ATOM     21  C   UNL     1       2.809   7.877  17.931  0.00  0.00    +0.000 C 
ATOM     22  C   UNL     1       3.934   6.957  17.453  0.00  0.00    +0.000 C 
ATOM     23  N   UNL     1       3.645   5.553  17.783  0.00  0.00    +0.000 NA
ATOM     24  C   UNL     1       4.702   4.678  17.272  0.00  0.00    +0.000 C 
ATOM     25  C   UNL     1       3.494   5.364  19.230  0.00  0.00    +0.000 C 
ATOM     26  C   UNL     1       2.351   6.215  19.772  0.00  0.00    +0.000 C 
ENDBRANCH   4  20
TORSDOF 2
ENDMDL
MODEL 8
REMARK VINA RESULT:      -7.0      5.437     10.512
REMARK  Name = 
REMARK  4 active torsions:
REMARK  status: ('A' for Active; 'I' for Inactive)
REMARK    1  A    between atoms: C_1  and  C_2
REMARK    2  A    between atoms: C_4  and  C_5
REMARK    3  A    between atoms: N_8  and  C_9
REMARK    4  A    between atoms: C_13  and  N_14
REMARK                            x       y       z     vdW  Elec       q    Type
REMARK                         _______ _______ _______ _____ _____    ______ ____
ROOT
ATOM      1  C   UNL     1       2.776  13.023  18.244  0.00  0.00    +0.000 C 
ATOM      2  C   UNL     1       1.722  11.976  18.436  0.00  0.00    +0.000 A 
ATOM      3  N   UNL     1       2.129  10.692  18.407  0.00  0.00    +0.000 NA
ATOM      4  C   UNL     1       1.185   9.749  18.587  0.00  0.00    +0.000 A 
ATOM      5  C   UNL     1      -0.135  10.084  18.800  0.00  0.00    +0.000 A 
ATOM      6  C   UNL     1      -0.468  11.429  18.824  0.00  0.00    +0.000 A 
ATOM      7  N   UNL     1       0.454  12.385  18.630  0.00  0.00    +0.000 NA
ENDROOT
BRANCH   6   8
ATOM      8  N   UNL     1      -1.820  11.746  19.018  0.00  0.00    +0.000 N 
ATOM      9  C   UNL     1      -2.660  11.595  17.822  0.00  0.00    +0.000 C 
ATOM     10  C   UNL     1      -4.117  11.355  18.243  0.00  0.00    +0.000 C 
ATOM     11  O   UNL     1      -4.728  12.535  18.796  0.00  0.00    +0.000 OA
ATOM     12  C   UNL     1      -4.494  12.621  20.144  0.00  0.00    +0.000 A 
ATOM     13  C   UNL     1      -5.595  12.487  20.992  0.00  0.00    +0.000 A 
ATOM     14  C   UNL     1      -5.420  12.567  22.373  0.00  0.00    +0.000 A 
ATOM     15  C   UNL     1      -4.151  12.811  22.894  0.00  0.00    +0.000 A 
ATOM     16 CL   UNL     1      -3.935  12.916  24.598  0.00  0.00    +0.000 Cl
ATOM     17  C   UNL     1      -3.054  12.971  22.046  0.00  0.00    +0.000 A 
ATOM     18  C   UNL     1      -3.212  12.872  20.654  0.00  0.00    +0.000 A 
ATOM     19  C   UNL     1      -2.020  13.013  19.737  0.00  0.00    +0.000 C 
ENDBRANCH   6   8
BRANCH   4  20
ATOM     20  C   UNL     1       1.646   8.309  18.594  0.00  0.00    +0.000 C 
ATOM     21  C   UNL     1       1.812   7.735  20.008  0.00  0.00    +0.000 C 
ATOM     22  C   UNL     1       2.356   6.306  19.952  0.00  0.00    +0.000 C 
ATOM     23  N   UNL     1       3.618   6.249  19.200  0.00  0.00    +0.000 NA
ATOM     24  C   UNL     1       4.154   4.886  19.201  0.00  0.00    +0.000 C 
ATOM     25  C   UNL     1       3.440   6.716  17.820  0.00  0.00    +0.000 C 
ATOM     26  C   UNL     1       2.947   8.158  17.795  0.00  0.00    +0.000 C 
ENDBRANCH   4  20
TORSDOF 2
ENDMDL
MODEL 9
REMARK VINA RESULT:      -6.8      3.240      5.186
REMARK  Name = 
REMARK  4 active torsions:
REMARK  status: ('A' for Active; 'I' for Inactive)
REMARK    1  A    between atoms: C_1  and  C_2
REMARK    2  A    between atoms: C_4  and  C_5
REMARK    3  A    between atoms: N_8  and  C_9
REMARK    4  A    between atoms: C_13  and  N_14
REMARK                            x       y       z     vdW  Elec       q    Type
REMARK                         _______ _______ _______ _____ _____    ______ ____
ROOT
ATOM      1  C   UNL     1      -0.297   9.391  22.415  0.00  0.00    +0.000 C 
ATOM      2  C   UNL     1       0.437   9.547  21.120  0.00  0.00    +0.000 A 
ATOM      3  N   UNL     1       0.397  10.763  20.540  0.00  0.00    +0.000 NA
ATOM      4  C   UNL     1       1.063  10.908  19.380  0.00  0.00    +0.000 A 
ATOM      5  C   UNL     1       1.763   9.863  18.817  0.00  0.00    +0.000 A 
ATOM      6  C   UNL     1       1.763   8.648  19.482  0.00  0.00    +0.000 A 
ATOM      7  N   UNL     1       1.090   8.476  20.631  0.00  0.00    +0.000 NA
ENDROOT
BRANCH   6   8
ATOM      8  N   UNL     1       2.460   7.592  18.878  0.00  0.00    +0.000 N 
ATOM      9  C   UNL     1       3.199   7.963  17.664  0.00  0.00    +0.000 C 
ATOM     10  C   UNL     1       4.363   6.984  17.449  0.00  0.00    +0.000 C 
ATOM     11  O   UNL     1       3.911   5.679  17.044  0.00  0.00    +0.000 OA
ATOM     12  C   UNL     1       3.632   4.898  18.136  0.00  0.00    +0.000 A 
ATOM     13  C   UNL     1       4.455   3.791  18.355  0.00  0.00    +0.000 A 
ATOM     14  C   UNL     1       4.220   2.958  19.448  0.00  0.00    +0.000 A 
ATOM     15  C   UNL     1       3.146   3.220  20.295  0.00  0.00    +0.000 A 
ATOM     16 CL   UNL     1       2.850   2.189  21.642  0.00  0.00    +0.000 Cl
ATOM     17  C   UNL     1       2.306   4.310  20.062  0.00  0.00    +0.000 A 
ATOM     18  C   UNL     1       2.544   5.170  18.977  0.00  0.00    +0.000 A 
ATOM     19  C   UNL     1       1.656   6.369  18.742  0.00  0.00    +0.000 C 
ENDBRANCH   6   8
BRANCH   4  20
ATOM     20  C   UNL     1       1.050  12.282  18.749  0.00  0.00    +0.000 C 
ATOM     21  C   UNL     1       2.417  12.979  18.788  0.00  0.00    +0.000 C 
ATOM     22  C   UNL     1       2.323  14.391  18.209  0.00  0.00    +0.000 C 
ATOM     23  N   UNL     1       1.299  15.183  18.908  0.00  0.00    +0.000 NA
ATOM     24  C   UNL     1       1.258  16.548  18.381  0.00  0.00    +0.000 C 
ATOM     25  C   UNL     1      -0.026  14.562  18.796  0.00  0.00    +0.000 C 
ATOM     26  C   UNL     1      -0.023  13.163  19.402  0.00  0.00    +0.000 C 
ENDBRANCH   4  20
TORSDOF 2
ENDMDL
