MODEL 1
REMARK VINA RESULT:      -8.9      0.000      0.000
REMARK  Name = 
REMARK  6 active torsions:
REMARK  status: ('A' for Active; 'I' for Inactive)
REMARK    1  A    between atoms: C_1  and  N_2
REMARK    2  A    between atoms: C_5  and  C_6
REMARK    3  A    between atoms: C_6  and  O_7
REMARK    4  A    between atoms: O_7  and  C_8
REMARK    5  A    between atoms: C_13  and  C_14
REMARK    6  A    between atoms: N_16  and  C_17
REMARK                            x       y       z     vdW  Elec       q    Type
REMARK                         _______ _______ _______ _____ _____    ______ ____
ROOT
ATOM      1  C   UNL     1       2.263   4.694  19.639  0.00  0.00    +0.000 A 
ATOM      2  C   UNL     1       1.149   4.350  20.422  0.00  0.00    +0.000 A 
ATOM      3  C   UNL     1       1.183   3.260  21.291  0.00  0.00    +0.000 A 
ATOM      4  C   UNL     1       2.333   2.487  21.384  0.00  0.00    +0.000 A 
ATOM      5  C   UNL     1       3.432   2.780  20.575  0.00  0.00    +0.000 A 
ATOM      6  C   UNL     1       3.404   3.875  19.688  0.00  0.00    +0.000 A 
ENDROOT
BRANCH   6   7
ATOM      7  C   UNL     1       4.544   4.038  18.743  0.00  0.00    +0.000 C 
ATOM      8  O   UNL     1       5.684   3.853  19.157  0.00  0.00    +0.000 OA
ATOM      9  N   UNL     1       4.214   4.421  17.451  0.00  0.00    +0.000 N 
ATOM     10  H   UNL     1       3.273   4.740  17.269  0.00  0.00    +0.000 HD
BRANCH   9  11
ATOM     11  C   UNL     1       5.146   4.586  16.406  0.00  0.00    +0.000 A 
ATOM     12  C   UNL     1       5.302   3.648  15.381  0.00  0.00    +0.000 A 
ATOM     13  C   UNL     1       6.273   3.834  14.395  0.00  0.00    +0.000 A 
ATOM     14  C   UNL     1       7.103   4.951  14.439  0.00  0.00    +0.000 A 
ATOM     15  C   UNL     1       6.934   5.904  15.441  0.00  0.00    +0.000 A 
ATOM     16  C   UNL     1       5.938   5.737  16.408  0.00  0.00    +0.000 A 
ENDBRANCH   9  11
ENDBRANCH   6   7
BRANCH   1  17
ATOM     17  O   UNL     1       2.046   5.822  18.893  0.00  0.00    +0.000 OA
BRANCH  17  18
ATOM     18  C   UNL     1       2.817   6.983  19.178  0.00  0.00    +0.000 C 
BRANCH  18  23
ATOM     19  C   UNL     1       0.182  11.140  18.253  0.00  0.00    +0.000 C 
ATOM     20  N   UNL     1       0.624  10.103  19.166  0.00  0.00    +0.000 N 
ATOM     21  C   UNL     1       1.480   9.114  18.692  0.00  0.00    +0.000 A 
ATOM     22  O   UNL     1       1.882   9.028  17.541  0.00  0.00    +0.000 OA
ATOM     23  C   UNL     1       1.909   8.064  19.704  0.00  0.00    +0.000 A 
ATOM     24  N   UNL     1       1.529   8.059  20.946  0.00  0.00    +0.000 NA
ATOM     25  C   UNL     1       0.674   9.079  21.376  0.00  0.00    +0.000 A 
ATOM     26  C   UNL     1       0.287   9.061  22.721  0.00  0.00    +0.000 A 
ATOM     27  C   UNL     1      -0.562  10.039  23.233  0.00  0.00    +0.000 A 
ATOM     28  C   UNL     1      -1.038  11.040  22.391  0.00  0.00    +0.000 A 
ATOM     29  C   UNL     1      -0.664  11.069  21.045  0.00  0.00    +0.000 A 
ATOM     30  C   UNL     1       0.202  10.096  20.526  0.00  0.00    +0.000 A 
ENDBRANCH  18  23
ENDBRANCH  17  18
ENDBRANCH   1  17
TORSDOF 5
ENDMDL
MODEL 2
REMARK VINA RESULT:      -8.8      0.626      1.077
REMARK  Name = 
REMARK  6 active torsions:
REMARK  status: ('A' for Active; 'I' for Inactive)
REMARK    1  A    between atoms: C_1  and  N_2
REMARK    2  A    between atoms: C_5  and  C_6
REMARK    3  A    between atoms: C_6  and  O_7
REMARK    4  A    between atoms: O_7  and  C_8
REMARK    5  A    between atoms: C_13  and  C_14
REMARK    6  A    between atoms: N_16  and  C_17
REMARK                            x       y       z     vdW  Elec       q    Type
REMARK                         _______ _______ _______ _____ _____    ______ ____
ROOT
ATOM      1  C   UNL     1       2.616   4.852  19.850  0.00  0.00    +0.000 A 
ATOM      2  C   UNL     1       1.370   4.595  20.445  0.00  0.00    +0.000 A 
ATOM      3  C   UNL     1       0.852   3.302  20.514  0.00  0.00    +0.000 A 
ATOM      4  C   UNL     1       1.571   2.241  19.978  0.00  0.00    +0.000 A 
ATOM      5  C   UNL     1       2.787   2.483  19.336  0.00  0.00    +0.000 A 
ATOM      6  C   UNL     1       3.314   3.787  19.254  0.00  0.00    +0.000 A 
ENDROOT
BRANCH   6   7
ATOM      7  C   UNL     1       4.531   3.998  18.421  0.00  0.00    +0.000 C 
ATOM      8  O   UNL     1       5.633   3.896  18.951  0.00  0.00    +0.000 OA
ATOM      9  N   UNL     1       4.310   4.327  17.092  0.00  0.00    +0.000 N 
ATOM     10  H   UNL     1       3.374   4.581  16.807  0.00  0.00    +0.000 HD
BRANCH   9  11
ATOM     11  C   UNL     1       5.329   4.524  16.138  0.00  0.00    +0.000 A 
ATOM     12  C   UNL     1       6.374   5.432  16.329  0.00  0.00    +0.000 A 
ATOM     13  C   UNL     1       7.333   5.626  15.334  0.00  0.00    +0.000 A 
ATOM     14  C   UNL     1       7.242   4.923  14.135  0.00  0.00    +0.000 A 
ATOM     15  C   UNL     1       6.219   3.995  13.949  0.00  0.00    +0.000 A 
ATOM     16  C   UNL     1       5.280   3.774  14.960  0.00  0.00    +0.000 A 
ENDBRANCH   9  11
ENDBRANCH   6   7
BRANCH   1  17
ATOM     17  O   UNL     1       2.967   6.173  19.928  0.00  0.00    +0.000 OA
BRANCH  17  18
ATOM     18  C   UNL     1       2.508   7.058  18.913  0.00  0.00    +0.000 C 
BRANCH  18  23
ATOM     19  C   UNL     1       0.662  11.695  18.486  0.00  0.00    +0.000 C 
ATOM     20  N   UNL     1       0.872  10.487  19.261  0.00  0.00    +0.000 N 
ATOM     21  C   UNL     1       1.576   9.434  18.683  0.00  0.00    +0.000 A 
ATOM     22  O   UNL     1       2.020   9.431  17.545  0.00  0.00    +0.000 OA
ATOM     23  C   UNL     1       1.766   8.203  19.554  0.00  0.00    +0.000 A 
ATOM     24  N   UNL     1       1.322   8.103  20.770  0.00  0.00    +0.000 NA
ATOM     25  C   UNL     1       0.627   9.190  21.309  0.00  0.00    +0.000 A 
ATOM     26  C   UNL     1       0.169   9.065  22.625  0.00  0.00    +0.000 A 
ATOM     27  C   UNL     1      -0.531  10.101  23.239  0.00  0.00    +0.000 A 
ATOM     28  C   UNL     1      -0.786  11.270  22.529  0.00  0.00    +0.000 A 
ATOM     29  C   UNL     1      -0.337  11.408  21.212  0.00  0.00    +0.000 A 
ATOM     30  C   UNL     1       0.381  10.376  20.592  0.00  0.00    +0.000 A 
ENDBRANCH  18  23
ENDBRANCH  17  18
ENDBRANCH   1  17
TORSDOF 5
ENDMDL
MODEL 3
REMARK VINA RESULT:      -8.3      2.408      8.133
REMARK  Name = 
REMARK  6 active torsions:
REMARK  status: ('A' for Active; 'I' for Inactive)
REMARK    1  A    between atoms: C_1  and  N_2
REMARK    2  A    between atoms: C_5  and  C_6
REMARK    3  A    between atoms: C_6  and  O_7
REMARK    4  A    between atoms: O_7  and  C_8
REMARK    5  A    between atoms: C_13  and  C_14
REMARK    6  A    between atoms: N_16  and  C_17
REMARK                            x       y       z     vdW  Elec       q    Type
REMARK                         _______ _______ _______ _____ _____    ______ ____
ROOT
ATOM      1  C   UNL     1       0.583   9.048  20.974  0.00  0.00    +0.000 A 
ATOM      2  C   UNL     1       1.014   8.940  22.307  0.00  0.00    +0.000 A 
ATOM      3  C   UNL     1       0.413   9.681  23.325  0.00  0.00    +0.000 A 
ATOM      4  C   UNL     1      -0.624  10.554  23.023  0.00  0.00    +0.000 A 
ATOM      5  C   UNL     1      -1.031  10.715  21.697  0.00  0.00    +0.000 A 
ATOM      6  C   UNL     1      -0.425   9.976  20.661  0.00  0.00    +0.000 A 
ENDROOT
BRANCH   6   7
ATOM      7  C   UNL     1      -0.794  10.309  19.257  0.00  0.00    +0.000 C 
ATOM      8  O   UNL     1       0.047  10.833  18.534  0.00  0.00    +0.000 OA
ATOM      9  N   UNL     1      -2.098  10.017  18.885  0.00  0.00    +0.000 N 
ATOM     10  H   UNL     1      -2.763   9.775  19.607  0.00  0.00    +0.000 HD
BRANCH   9  11
ATOM     11  C   UNL     1      -2.623  10.219  17.592  0.00  0.00    +0.000 A 
ATOM     12  C   UNL     1      -2.106   9.583  16.460  0.00  0.00    +0.000 A 
ATOM     13  C   UNL     1      -2.629   9.854  15.196  0.00  0.00    +0.000 A 
ATOM     14  C   UNL     1      -3.663  10.776  15.054  0.00  0.00    +0.000 A 
ATOM     15  C   UNL     1      -4.203  11.393  16.181  0.00  0.00    +0.000 A 
ATOM     16  C   UNL     1      -3.703  11.094  17.452  0.00  0.00    +0.000 A 
ENDBRANCH   9  11
ENDBRANCH   6   7
BRANCH   1  17
ATOM     17  O   UNL     1       1.264   8.203  20.138  0.00  0.00    +0.000 OA
BRANCH  17  18
ATOM     18  C   UNL     1       1.585   6.899  20.607  0.00  0.00    +0.000 C 
BRANCH  18  23
ATOM     19  C   UNL     1       2.451   2.569  18.243  0.00  0.00    +0.000 C 
ATOM     20  N   UNL     1       2.698   3.989  18.407  0.00  0.00    +0.000 N 
ATOM     21  C   UNL     1       2.024   4.675  19.412  0.00  0.00    +0.000 A 
ATOM     22  O   UNL     1       1.205   4.178  20.171  0.00  0.00    +0.000 OA
ATOM     23  C   UNL     1       2.336   6.158  19.532  0.00  0.00    +0.000 A 
ATOM     24  N   UNL     1       3.181   6.782  18.768  0.00  0.00    +0.000 NA
ATOM     25  C   UNL     1       3.839   6.048  17.776  0.00  0.00    +0.000 A 
ATOM     26  C   UNL     1       4.753   6.738  16.973  0.00  0.00    +0.000 A 
ATOM     27  C   UNL     1       5.453   6.083  15.963  0.00  0.00    +0.000 A 
ATOM     28  C   UNL     1       5.230   4.726  15.745  0.00  0.00    +0.000 A 
ATOM     29  C   UNL     1       4.317   4.025  16.537  0.00  0.00    +0.000 A 
ATOM     30  C   UNL     1       3.620   4.674  17.566  0.00  0.00    +0.000 A 
ENDBRANCH  18  23
ENDBRANCH  17  18
ENDBRANCH   1  17
TORSDOF 5
ENDMDL
MODEL 4
REMARK VINA RESULT:      -7.9      1.776      2.123
REMARK  Name = 
REMARK  6 active torsions:
REMARK  status: ('A' for Active; 'I' for Inactive)
REMARK    1  A    between atoms: C_1  and  N_2
REMARK    2  A    between atoms: C_5  and  C_6
REMARK    3  A    between atoms: C_6  and  O_7
REMARK    4  A    between atoms: O_7  and  C_8
REMARK    5  A    between atoms: C_13  and  C_14
REMARK    6  A    between atoms: N_16  and  C_17
REMARK                            x       y       z     vdW  Elec       q    Type
REMARK                         _______ _______ _______ _____ _____    ______ ____
ROOT
ATOM      1  C   UNL     1       1.907   4.493  19.697  0.00  0.00    +0.000 A 
ATOM      2  C   UNL     1       0.740   3.801  20.062  0.00  0.00    +0.000 A 
ATOM      3  C   UNL     1       0.478   2.518  19.581  0.00  0.00    +0.000 A 
ATOM      4  C   UNL     1       1.378   1.908  18.715  0.00  0.00    +0.000 A 
ATOM      5  C   UNL     1       2.517   2.601  18.299  0.00  0.00    +0.000 A 
ATOM      6  C   UNL     1       2.786   3.900  18.774  0.00  0.00    +0.000 A 
ENDROOT
BRANCH   6   7
ATOM      7  C   UNL     1       3.929   4.641  18.172  0.00  0.00    +0.000 C 
ATOM      8  O   UNL     1       3.968   4.777  16.954  0.00  0.00    +0.000 OA
ATOM      9  N   UNL     1       4.891   5.102  19.059  0.00  0.00    +0.000 N 
ATOM     10  H   UNL     1       4.868   4.766  20.012  0.00  0.00    +0.000 HD
BRANCH   9  11
ATOM     11  C   UNL     1       6.021   5.857  18.688  0.00  0.00    +0.000 A 
ATOM     12  C   UNL     1       7.260   5.722  19.322  0.00  0.00    +0.000 A 
ATOM     13  C   UNL     1       8.337   6.528  18.950  0.00  0.00    +0.000 A 
ATOM     14  C   UNL     1       8.175   7.487  17.953  0.00  0.00    +0.000 A 
ATOM     15  C   UNL     1       6.951   7.608  17.297  0.00  0.00    +0.000 A 
ATOM     16  C   UNL     1       5.884   6.776  17.644  0.00  0.00    +0.000 A 
ENDBRANCH   9  11
ENDBRANCH   6   7
BRANCH   1  17
ATOM     17  O   UNL     1       2.002   5.712  20.315  0.00  0.00    +0.000 OA
BRANCH  17  18
ATOM     18  C   UNL     1       2.397   6.836  19.538  0.00  0.00    +0.000 C 
BRANCH  18  23
ATOM     19  C   UNL     1       0.708  11.441  18.526  0.00  0.00    +0.000 C 
ATOM     20  N   UNL     1       0.829  10.311  19.428  0.00  0.00    +0.000 N 
ATOM     21  C   UNL     1       1.546   9.195  19.010  0.00  0.00    +0.000 A 
ATOM     22  O   UNL     1       2.075   9.071  17.914  0.00  0.00    +0.000 OA
ATOM     23  C   UNL     1       1.640   8.051  20.007  0.00  0.00    +0.000 A 
ATOM     24  N   UNL     1       1.104   8.079  21.190  0.00  0.00    +0.000 NA
ATOM     25  C   UNL     1       0.399   9.226  21.567  0.00  0.00    +0.000 A 
ATOM     26  C   UNL     1      -0.160   9.240  22.849  0.00  0.00    +0.000 A 
ATOM     27  C   UNL     1      -0.876  10.343  23.305  0.00  0.00    +0.000 A 
ATOM     28  C   UNL     1      -1.047  11.441  22.468  0.00  0.00    +0.000 A 
ATOM     29  C   UNL     1      -0.498  11.441  21.183  0.00  0.00    +0.000 A 
ATOM     30  C   UNL     1       0.237  10.341  20.722  0.00  0.00    +0.000 A 
ENDBRANCH  18  23
ENDBRANCH  17  18
ENDBRANCH   1  17
TORSDOF 5
ENDMDL
MODEL 5
REMARK VINA RESULT:      -7.8      2.580      8.038
REMARK  Name = 
REMARK  6 active torsions:
REMARK  status: ('A' for Active; 'I' for Inactive)
REMARK    1  A    between atoms: C_1  and  N_2
REMARK    2  A    between atoms: C_5  and  C_6
REMARK    3  A    between atoms: C_6  and  O_7
REMARK    4  A    between atoms: O_7  and  C_8
REMARK    5  A    between atoms: C_13  and  C_14
REMARK    6  A    between atoms: N_16  and  C_17
REMARK                            x       y       z     vdW  Elec       q    Type
REMARK                         _______ _______ _______ _____ _____    ______ ____
ROOT
ATOM      1  C   UNL     1       0.807   8.991  20.106  0.00  0.00    +0.000 A 
ATOM      2  C   UNL     1       1.578   8.577  21.205  0.00  0.00    +0.000 A 
ATOM      3  C   UNL     1       1.336   9.071  22.487  0.00  0.00    +0.000 A 
ATOM      4  C   UNL     1       0.322   9.999  22.689  0.00  0.00    +0.000 A 
ATOM      5  C   UNL     1      -0.420  10.463  21.601  0.00  0.00    +0.000 A 
ATOM      6  C   UNL     1      -0.177   9.975  20.301  0.00  0.00    +0.000 A 
ENDROOT
BRANCH   6   7
ATOM      7  C   UNL     1      -0.892  10.623  19.167  0.00  0.00    +0.000 C 
ATOM      8  O   UNL     1      -0.620  11.786  18.885  0.00  0.00    +0.000 OA
ATOM      9  N   UNL     1      -1.849   9.848  18.527  0.00  0.00    +0.000 N 
ATOM     10  H   UNL     1      -2.136   8.982  18.960  0.00  0.00    +0.000 HD
BRANCH   9  11
ATOM     11  C   UNL     1      -2.599  10.269  17.410  0.00  0.00    +0.000 A 
ATOM     12  C   UNL     1      -3.728  11.084  17.523  0.00  0.00    +0.000 A 
ATOM     13  C   UNL     1      -4.465  11.433  16.391  0.00  0.00    +0.000 A 
ATOM     14  C   UNL     1      -4.086  10.954  15.139  0.00  0.00    +0.000 A 
ATOM     15  C   UNL     1      -2.945  10.164  15.015  0.00  0.00    +0.000 A 
ATOM     16  C   UNL     1      -2.185   9.845  16.144  0.00  0.00    +0.000 A 
ENDBRANCH   9  11
ENDBRANCH   6   7
BRANCH   1  17
ATOM     17  O   UNL     1       1.169   8.353  18.949  0.00  0.00    +0.000 OA
BRANCH  17  18
ATOM     18  C   UNL     1       2.552   8.143  18.694  0.00  0.00    +0.000 C 
BRANCH  18  23
ATOM     19  C   UNL     1       5.370   4.600  16.549  0.00  0.00    +0.000 C 
ATOM     20  N   UNL     1       4.238   4.988  17.369  0.00  0.00    +0.000 N 
ATOM     21  C   UNL     1       3.998   6.341  17.584  0.00  0.00    +0.000 A 
ATOM     22  O   UNL     1       4.689   7.252  17.151  0.00  0.00    +0.000 OA
ATOM     23  C   UNL     1       2.792   6.676  18.446  0.00  0.00    +0.000 A 
ATOM     24  N   UNL     1       2.003   5.782  18.962  0.00  0.00    +0.000 NA
ATOM     25  C   UNL     1       2.281   4.435  18.712  0.00  0.00    +0.000 A 
ATOM     26  C   UNL     1       1.411   3.490  19.268  0.00  0.00    +0.000 A 
ATOM     27  C   UNL     1       1.614   2.127  19.067  0.00  0.00    +0.000 A 
ATOM     28  C   UNL     1       2.704   1.702  18.312  0.00  0.00    +0.000 A 
ATOM     29  C   UNL     1       3.583   2.633  17.754  0.00  0.00    +0.000 A 
ATOM     30  C   UNL     1       3.377   4.008  17.939  0.00  0.00    +0.000 A 
ENDBRANCH  18  23
ENDBRANCH  17  18
ENDBRANCH   1  17
TORSDOF 5
ENDMDL
MODEL 6
REMARK VINA RESULT:      -7.7      0.966      2.129
REMARK  Name = 
REMARK  6 active torsions:
REMARK  status: ('A' for Active; 'I' for Inactive)
REMARK    1  A    between atoms: C_1  and  N_2
REMARK    2  A    between atoms: C_5  and  C_6
REMARK    3  A    between atoms: C_6  and  O_7
REMARK    4  A    between atoms: O_7  and  C_8
REMARK    5  A    between atoms: C_13  and  C_14
REMARK    6  A    between atoms: N_16  and  C_17
REMARK                            x       y       z     vdW  Elec       q    Type
REMARK                         _______ _______ _______ _____ _____    ______ ____
ROOT
ATOM      1  C   UNL     1       2.253   4.794  19.569  0.00  0.00    +0.000 A 
ATOM      2  C   UNL     1       1.134   4.460  20.349  0.00  0.00    +0.000 A 
ATOM      3  C   UNL     1       1.160   3.376  21.227  0.00  0.00    +0.000 A 
ATOM      4  C   UNL     1       2.306   2.599  21.331  0.00  0.00    +0.000 A 
ATOM      5  C   UNL     1       3.411   2.883  20.525  0.00  0.00    +0.000 A 
ATOM      6  C   UNL     1       3.391   3.971  19.630  0.00  0.00    +0.000 A 
ENDROOT
BRANCH   6   7
ATOM      7  C   UNL     1       4.536   4.123  18.690  0.00  0.00    +0.000 C 
ATOM      8  O   UNL     1       5.675   3.962  19.117  0.00  0.00    +0.000 OA
ATOM      9  N   UNL     1       4.212   4.469  17.386  0.00  0.00    +0.000 N 
ATOM     10  H   UNL     1       3.269   4.772  17.189  0.00  0.00    +0.000 HD
BRANCH   9  11
ATOM     11  C   UNL     1       5.149   4.618  16.344  0.00  0.00    +0.000 A 
ATOM     12  C   UNL     1       5.260   3.702  15.293  0.00  0.00    +0.000 A 
ATOM     13  C   UNL     1       6.237   3.868  14.311  0.00  0.00    +0.000 A 
ATOM     14  C   UNL     1       7.121   4.942  14.384  0.00  0.00    +0.000 A 
ATOM     15  C   UNL     1       6.998   5.874  15.412  0.00  0.00    +0.000 A 
ATOM     16  C   UNL     1       5.996   5.729  16.376  0.00  0.00    +0.000 A 
ENDBRANCH   9  11
ENDBRANCH   6   7
BRANCH   1  17
ATOM     17  O   UNL     1       2.043   5.917  18.814  0.00  0.00    +0.000 OA
BRANCH  17  18
ATOM     18  C   UNL     1       2.718   7.115  19.178  0.00  0.00    +0.000 C 
BRANCH  18  23
ATOM     19  C   UNL     1       0.001   9.425  22.694  0.00  0.00    +0.000 C 
ATOM     20  N   UNL     1       0.405   9.272  21.310  0.00  0.00    +0.000 N 
ATOM     21  C   UNL     1       1.328   8.283  20.986  0.00  0.00    +0.000 A 
ATOM     22  O   UNL     1       1.859   7.530  21.791  0.00  0.00    +0.000 OA
ATOM     23  C   UNL     1       1.700   8.173  19.517  0.00  0.00    +0.000 A 
ATOM     24  N   UNL     1       1.203   8.931  18.587  0.00  0.00    +0.000 NA
ATOM     25  C   UNL     1       0.273   9.907  18.961  0.00  0.00    +0.000 A 
ATOM     26  C   UNL     1      -0.259  10.705  17.942  0.00  0.00    +0.000 A 
ATOM     27  C   UNL     1      -1.191  11.699  18.226  0.00  0.00    +0.000 A 
ATOM     28  C   UNL     1      -1.590  11.907  19.543  0.00  0.00    +0.000 A 
ATOM     29  C   UNL     1      -1.065  11.120  20.572  0.00  0.00    +0.000 A 
ATOM     30  C   UNL     1      -0.137  10.107  20.292  0.00  0.00    +0.000 A 
ENDBRANCH  18  23
ENDBRANCH  17  18
ENDBRANCH   1  17
TORSDOF 5
ENDMDL
MODEL 7
REMARK VINA RESULT:      -7.7      2.700      8.192
REMARK  Name = 
REMARK  6 active torsions:
REMARK  status: ('A' for Active; 'I' for Inactive)
REMARK    1  A    between atoms: C_1  and  N_2
REMARK    2  A    between atoms: C_5  and  C_6
REMARK    3  A    between atoms: C_6  and  O_7
REMARK    4  A    between atoms: O_7  and  C_8
REMARK    5  A    between atoms: C_13  and  C_14
REMARK    6  A    between atoms: N_16  and  C_17
REMARK                            x       y       z     vdW  Elec       q    Type
REMARK                         _______ _______ _______ _____ _____    ______ ____
ROOT
ATOM      1  C   UNL     1       0.616   9.778  21.031  0.00  0.00    +0.000 A 
ATOM      2  C   UNL     1       0.053   9.192  22.177  0.00  0.00    +0.000 A 
ATOM      3  C   UNL     1      -0.746   9.931  23.050  0.00  0.00    +0.000 A 
ATOM      4  C   UNL     1      -0.986  11.275  22.796  0.00  0.00    +0.000 A 
ATOM      5  C   UNL     1      -0.392  11.888  21.691  0.00  0.00    +0.000 A 
ATOM      6  C   UNL     1       0.422  11.152  20.807  0.00  0.00    +0.000 A 
ENDROOT
BRANCH   6   7
ATOM      7  C   UNL     1       1.150  11.897  19.743  0.00  0.00    +0.000 C 
ATOM      8  O   UNL     1       1.325  11.354  18.657  0.00  0.00    +0.000 OA
ATOM      9  N   UNL     1       1.603  13.163  20.087  0.00  0.00    +0.000 N 
ATOM     10  H   UNL     1       1.583  13.434  21.060  0.00  0.00    +0.000 HD
BRANCH   9  11
ATOM     11  C   UNL     1       2.273  14.036  19.207  0.00  0.00    +0.000 A 
ATOM     12  C   UNL     1       3.565  13.785  18.734  0.00  0.00    +0.000 A 
ATOM     13  C   UNL     1       4.204  14.706  17.902  0.00  0.00    +0.000 A 
ATOM     14  C   UNL     1       3.562  15.891  17.552  0.00  0.00    +0.000 A 
ATOM     15  C   UNL     1       2.263  16.134  17.997  0.00  0.00    +0.000 A 
ATOM     16  C   UNL     1       1.609  15.196  18.799  0.00  0.00    +0.000 A 
ENDBRANCH   9  11
ENDBRANCH   6   7
BRANCH   1  17
ATOM     17  O   UNL     1       1.321   8.876  20.280  0.00  0.00    +0.000 OA
BRANCH  17  18
ATOM     18  C   UNL     1       1.563   7.583  20.822  0.00  0.00    +0.000 C 
BRANCH  18  23
ATOM     19  C   UNL     1       2.371   3.029  18.900  0.00  0.00    +0.000 C 
ATOM     20  N   UNL     1       2.600   4.461  18.892  0.00  0.00    +0.000 N 
ATOM     21  C   UNL     1       1.973   5.246  19.854  0.00  0.00    +0.000 A 
ATOM     22  O   UNL     1       1.209   4.826  20.711  0.00  0.00    +0.000 OA
ATOM     23  C   UNL     1       2.263   6.737  19.792  0.00  0.00    +0.000 A 
ATOM     24  N   UNL     1       3.049   7.283  18.914  0.00  0.00    +0.000 NA
ATOM     25  C   UNL     1       3.662   6.452  17.971  0.00  0.00    +0.000 A 
ATOM     26  C   UNL     1       4.514   7.060  17.042  0.00  0.00    +0.000 A 
ATOM     27  C   UNL     1       5.166   6.306  16.070  0.00  0.00    +0.000 A 
ATOM     28  C   UNL     1       4.956   4.931  16.016  0.00  0.00    +0.000 A 
ATOM     29  C   UNL     1       4.105   4.310  16.934  0.00  0.00    +0.000 A 
ATOM     30  C   UNL     1       3.457   5.060  17.926  0.00  0.00    +0.000 A 
ENDBRANCH  18  23
ENDBRANCH  17  18
ENDBRANCH   1  17
TORSDOF 5
ENDMDL
MODEL 8
REMARK VINA RESULT:      -7.7      2.477      5.335
REMARK  Name = 
REMARK  6 active torsions:
REMARK  status: ('A' for Active; 'I' for Inactive)
REMARK    1  A    between atoms: C_1  and  N_2
REMARK    2  A    between atoms: C_5  and  C_6
REMARK    3  A    between atoms: C_6  and  O_7
REMARK    4  A    between atoms: O_7  and  C_8
REMARK    5  A    between atoms: C_13  and  C_14
REMARK    6  A    between atoms: N_16  and  C_17
REMARK                            x       y       z     vdW  Elec       q    Type
REMARK                         _______ _______ _______ _____ _____    ______ ____
ROOT
ATOM      1  C   UNL     1       7.087   5.489  18.109  0.00  0.00    +0.000 A 
ATOM      2  C   UNL     1       7.828   5.890  19.233  0.00  0.00    +0.000 A 
ATOM      3  C   UNL     1       8.418   7.152  19.300  0.00  0.00    +0.000 A 
ATOM      4  C   UNL     1       8.284   8.033  18.235  0.00  0.00    +0.000 A 
ATOM      5  C   UNL     1       7.597   7.634  17.087  0.00  0.00    +0.000 A 
ATOM      6  C   UNL     1       7.004   6.358  17.007  0.00  0.00    +0.000 A 
ENDROOT
BRANCH   6   7
ATOM      7  C   UNL     1       6.424   5.937  15.702  0.00  0.00    +0.000 C 
ATOM      8  O   UNL     1       5.453   6.545  15.265  0.00  0.00    +0.000 OA
ATOM      9  N   UNL     1       7.029   4.849  15.089  0.00  0.00    +0.000 N 
ATOM     10  H   UNL     1       7.687   4.300  15.623  0.00  0.00    +0.000 HD
BRANCH   9  11
ATOM     11  C   UNL     1       6.652   4.330  13.834  0.00  0.00    +0.000 A 
ATOM     12  C   UNL     1       7.480   4.399  12.710  0.00  0.00    +0.000 A 
ATOM     13  C   UNL     1       7.041   3.913  11.478  0.00  0.00    +0.000 A 
ATOM     14  C   UNL     1       5.764   3.370  11.359  0.00  0.00    +0.000 A 
ATOM     15  C   UNL     1       4.944   3.272  12.482  0.00  0.00    +0.000 A 
ATOM     16  C   UNL     1       5.397   3.725  13.724  0.00  0.00    +0.000 A 
ENDBRANCH   9  11
ENDBRANCH   6   7
BRANCH   1  17
ATOM     17  O   UNL     1       6.549   4.238  18.261  0.00  0.00    +0.000 OA
BRANCH  17  18
ATOM     18  C   UNL     1       5.262   3.982  17.712  0.00  0.00    +0.000 C 
BRANCH  18  23
ATOM     19  C   UNL     1       2.147   3.636  21.618  0.00  0.00    +0.000 C 
ATOM     20  N   UNL     1       2.717   4.396  20.522  0.00  0.00    +0.000 N 
ATOM     21  C   UNL     1       3.667   3.788  19.708  0.00  0.00    +0.000 A 
ATOM     22  O   UNL     1       4.090   2.651  19.854  0.00  0.00    +0.000 OA
ATOM     23  C   UNL     1       4.217   4.639  18.575  0.00  0.00    +0.000 A 
ATOM     24  N   UNL     1       3.842   5.861  18.342  0.00  0.00    +0.000 NA
ATOM     25  C   UNL     1       2.879   6.426  19.184  0.00  0.00    +0.000 A 
ATOM     26  C   UNL     1       2.481   7.739  18.908  0.00  0.00    +0.000 A 
ATOM     27  C   UNL     1       1.527   8.377  19.696  0.00  0.00    +0.000 A 
ATOM     28  C   UNL     1       0.970   7.701  20.778  0.00  0.00    +0.000 A 
ATOM     29  C   UNL     1       1.360   6.391  21.069  0.00  0.00    +0.000 A 
ATOM     30  C   UNL     1       2.310   5.737  20.271  0.00  0.00    +0.000 A 
ENDBRANCH  18  23
ENDBRANCH  17  18
ENDBRANCH   1  17
TORSDOF 5
ENDMDL
MODEL 9
REMARK VINA RESULT:      -7.7      0.931      1.351
REMARK  Name = 
REMARK  6 active torsions:
REMARK  status: ('A' for Active; 'I' for Inactive)
REMARK    1  A    between atoms: C_1  and  N_2
REMARK    2  A    between atoms: C_5  and  C_6
REMARK    3  A    between atoms: C_6  and  O_7
REMARK    4  A    between atoms: O_7  and  C_8
REMARK    5  A    between atoms: C_13  and  C_14
REMARK    6  A    between atoms: N_16  and  C_17
REMARK                            x       y       z     vdW  Elec       q    Type
REMARK                         _______ _______ _______ _____ _____    ______ ____
ROOT
ATOM      1  C   UNL     1       2.637   4.825  19.493  0.00  0.00    +0.000 A 
ATOM      2  C   UNL     1       2.031   4.210  20.601  0.00  0.00    +0.000 A 
ATOM      3  C   UNL     1       2.518   3.011  21.120  0.00  0.00    +0.000 A 
ATOM      4  C   UNL     1       3.617   2.399  20.530  0.00  0.00    +0.000 A 
ATOM      5  C   UNL     1       4.200   2.967  19.396  0.00  0.00    +0.000 A 
ATOM      6  C   UNL     1       3.710   4.175  18.860  0.00  0.00    +0.000 A 
ENDROOT
BRANCH   6   7
ATOM      7  C   UNL     1       4.273   4.643  17.563  0.00  0.00    +0.000 C 
ATOM      8  O   UNL     1       3.881   5.709  17.100  0.00  0.00    +0.000 OA
ATOM      9  N   UNL     1       5.196   3.800  16.960  0.00  0.00    +0.000 N 
ATOM     10  H   UNL     1       5.298   2.862  17.320  0.00  0.00    +0.000 HD
BRANCH   9  11
ATOM     11  C   UNL     1       5.869   4.086  15.755  0.00  0.00    +0.000 A 
ATOM     12  C   UNL     1       6.974   4.939  15.693  0.00  0.00    +0.000 A 
ATOM     13  C   UNL     1       7.576   5.229  14.467  0.00  0.00    +0.000 A 
ATOM     14  C   UNL     1       7.064   4.679  13.294  0.00  0.00    +0.000 A 
ATOM     15  C   UNL     1       5.980   3.805  13.352  0.00  0.00    +0.000 A 
ATOM     16  C   UNL     1       5.400   3.486  14.583  0.00  0.00    +0.000 A 
ENDBRANCH   9  11
ENDBRANCH   6   7
BRANCH   1  17
ATOM     17  O   UNL     1       2.043   6.017  19.172  0.00  0.00    +0.000 OA
BRANCH  17  18
ATOM     18  C   UNL     1       2.761   7.220  19.417  0.00  0.00    +0.000 C 
BRANCH  18  23
ATOM     19  C   UNL     1      -0.025  11.239  18.332  0.00  0.00    +0.000 C 
ATOM     20  N   UNL     1       0.445  10.248  19.281  0.00  0.00    +0.000 N 
ATOM     21  C   UNL     1       1.347   9.281  18.849  0.00  0.00    +0.000 A 
ATOM     22  O   UNL     1       1.769   9.177  17.706  0.00  0.00    +0.000 OA
ATOM     23  C   UNL     1       1.803   8.279  19.897  0.00  0.00    +0.000 A 
ATOM     24  N   UNL     1       1.405   8.296  21.134  0.00  0.00    +0.000 NA
ATOM     25  C   UNL     1       0.503   9.292  21.522  0.00  0.00    +0.000 A 
ATOM     26  C   UNL     1       0.098   9.299  22.861  0.00  0.00    +0.000 A 
ATOM     27  C   UNL     1      -0.797  10.257  23.331  0.00  0.00    +0.000 A 
ATOM     28  C   UNL     1      -1.301  11.212  22.454  0.00  0.00    +0.000 A 
ATOM     29  C   UNL     1      -0.907  11.216  21.112  0.00  0.00    +0.000 A 
ATOM     30  C   UNL     1       0.004  10.264  20.635  0.00  0.00    +0.000 A 
ENDBRANCH  18  23
ENDBRANCH  17  18
ENDBRANCH   1  17
TORSDOF 5
ENDMDL
