MODEL 1
REMARK VINA RESULT:      -7.1      0.000      0.000
REMARK  Name = 
REMARK  5 active torsions:
REMARK  status: ('A' for Active; 'I' for Inactive)
REMARK    1  A    between atoms: C_1  and  O_2
REMARK    2  A    between atoms: O_2  and  C_3
REMARK    3  A    between atoms: N_23  and  C_24
REMARK    4  A    between atoms: C_29  and  O_30
REMARK    5  A    between atoms: O_30  and  C_31
REMARK                            x       y       z     vdW  Elec       q    Type
REMARK                         _______ _______ _______ _____ _____    ______ ____
ROOT
ATOM      1  C   UNL     1      -3.567  11.564  17.327  0.00  0.00    +0.000 A 
ATOM      2  C   UNL     1      -2.418  11.813  18.065  0.00  0.00    +0.000 A 
ATOM      3  C   UNL     1      -2.513  12.192  19.410  0.00  0.00    +0.000 A 
ATOM      4  C   UNL     1      -3.738  12.479  20.016  0.00  0.00    +0.000 A 
ATOM      5  C   UNL     1      -4.864  12.063  19.308  0.00  0.00    +0.000 A 
ATOM      6  C   UNL     1      -4.795  11.647  17.965  0.00  0.00    +0.000 A 
ATOM      7  C   UNL     1      -6.148  11.969  19.998  0.00  0.00    +0.000 A 
ATOM      8  O   UNL     1      -7.146  11.558  19.420  0.00  0.00    +0.000 OA
ATOM      9  C   UNL     1      -6.186  12.318  21.421  0.00  0.00    +0.000 A 
ATOM     10  C   UNL     1      -7.366  12.019  22.129  0.00  0.00    +0.000 A 
ATOM     11  C   UNL     1      -7.494  12.391  23.459  0.00  0.00    +0.000 A 
ATOM     12  C   UNL     1      -6.462  13.099  24.054  0.00  0.00    +0.000 A 
ATOM     13  C   UNL     1      -5.290  13.392  23.335  0.00  0.00    +0.000 A 
ATOM     14  C   UNL     1      -5.084  12.957  22.012  0.00  0.00    +0.000 A 
ATOM     15  N   UNL     1      -3.823  13.150  21.291  0.00  0.00    +0.000 N 
ATOM     16  C   UNL     1      -2.708  13.707  21.947  0.00  0.00    +0.000 C 
ATOM     17  O   UNL     1      -2.543  13.569  23.166  0.00  0.00    +0.000 OA
ATOM     18  N   UNL     1      -1.744  14.429  21.242  0.00  0.00    +0.000 N 
ATOM     19  C   UNL     1      -0.562  14.886  21.995  0.00  0.00    +0.000 C 
ATOM     20  C   UNL     1       0.731  14.541  21.250  0.00  0.00    +0.000 C 
ATOM     21  N   UNL     1       0.727  15.147  19.896  0.00  0.00    +0.000 N 
ATOM     22  C   UNL     1      -0.452  14.724  19.098  0.00  0.00    +0.000 C 
ATOM     23  C   UNL     1      -1.775  15.026  19.885  0.00  0.00    +0.000 C 
ENDROOT
BRANCH  21  24
ATOM     24  C   UNL     1       1.957  15.153  19.203  0.00  0.00    +0.000 A 
ATOM     25  C   UNL     1       2.658  13.948  18.957  0.00  0.00    +0.000 A 
ATOM     26  C   UNL     1       3.908  13.908  18.329  0.00  0.00    +0.000 A 
ATOM     27  C   UNL     1       4.509  15.085  17.920  0.00  0.00    +0.000 A 
ATOM     28  C   UNL     1       3.842  16.290  18.115  0.00  0.00    +0.000 A 
ATOM     29  C   UNL     1       2.584  16.339  18.748  0.00  0.00    +0.000 A 
BRANCH  29  30
ATOM     30  O   UNL     1       2.064  17.610  18.785  0.00  0.00    +0.000 OA
ATOM     31  C   UNL     1       1.177  17.984  17.738  0.00  0.00    +0.000 C 
ENDBRANCH  29  30
ENDBRANCH  21  24
BRANCH   1  33
ATOM     32  C   UNL     1      -2.687  10.196  15.620  0.00  0.00    +0.000 C 
ATOM     33  O   UNL     1      -3.602  11.213  16.009  0.00  0.00    +0.000 OA
ENDBRANCH   1  33
TORSDOF 3
ENDMDL
MODEL 2
REMARK VINA RESULT:      -6.9      1.216      1.443
REMARK  Name = 
REMARK  5 active torsions:
REMARK  status: ('A' for Active; 'I' for Inactive)
REMARK    1  A    between atoms: C_1  and  O_2
REMARK    2  A    between atoms: O_2  and  C_3
REMARK    3  A    between atoms: N_23  and  C_24
REMARK    4  A    between atoms: C_29  and  O_30
REMARK    5  A    between atoms: O_30  and  C_31
REMARK                            x       y       z     vdW  Elec       q    Type
REMARK                         _______ _______ _______ _____ _____    ______ ____
ROOT
ATOM      1  C   UNL     1      -2.847  11.407  16.861  0.00  0.00    +0.000 A 
ATOM      2  C   UNL     1      -1.862  11.641  17.809  0.00  0.00    +0.000 A 
ATOM      3  C   UNL     1      -2.214  11.954  19.129  0.00  0.00    +0.000 A 
ATOM      4  C   UNL     1      -3.537  12.190  19.508  0.00  0.00    +0.000 A 
ATOM      5  C   UNL     1      -4.501  11.788  18.585  0.00  0.00    +0.000 A 
ATOM      6  C   UNL     1      -4.173  11.438  17.262  0.00  0.00    +0.000 A 
ATOM      7  C   UNL     1      -5.887  11.638  19.019  0.00  0.00    +0.000 A 
ATOM      8  O   UNL     1      -6.750  11.239  18.248  0.00  0.00    +0.000 OA
ATOM      9  C   UNL     1      -6.198  11.919  20.424  0.00  0.00    +0.000 A 
ATOM     10  C   UNL     1      -7.481  11.566  20.886  0.00  0.00    +0.000 A 
ATOM     11  C   UNL     1      -7.863  11.872  22.183  0.00  0.00    +0.000 A 
ATOM     12  C   UNL     1      -6.978  12.569  22.991  0.00  0.00    +0.000 A 
ATOM     13  C   UNL     1      -5.701  12.917  22.516  0.00  0.00    +0.000 A 
ATOM     14  C   UNL     1      -5.242  12.548  21.237  0.00  0.00    +0.000 A 
ATOM     15  N   UNL     1      -3.875  12.797  20.773  0.00  0.00    +0.000 N 
ATOM     16  C   UNL     1      -2.916  13.343  21.649  0.00  0.00    +0.000 C 
ATOM     17  O   UNL     1      -2.976  13.149  22.870  0.00  0.00    +0.000 OA
ATOM     18  N   UNL     1      -1.857  14.114  21.167  0.00  0.00    +0.000 N 
ATOM     19  C   UNL     1      -0.847  14.555  22.147  0.00  0.00    +0.000 C 
ATOM     20  C   UNL     1       0.571  14.269  21.641  0.00  0.00    +0.000 C 
ATOM     21  N   UNL     1       0.801  14.939  20.338  0.00  0.00    +0.000 N 
ATOM     22  C   UNL     1      -0.198  14.534  19.317  0.00  0.00    +0.000 C 
ATOM     23  C   UNL     1      -1.651  14.774  19.856  0.00  0.00    +0.000 C 
ENDROOT
BRANCH  21  24
ATOM     24  C   UNL     1       2.138  15.000  19.888  0.00  0.00    +0.000 A 
ATOM     25  C   UNL     1       2.559  14.252  18.761  0.00  0.00    +0.000 A 
ATOM     26  C   UNL     1       3.885  14.232  18.313  0.00  0.00    +0.000 A 
ATOM     27  C   UNL     1       4.848  14.967  18.982  0.00  0.00    +0.000 A 
ATOM     28  C   UNL     1       4.471  15.740  20.076  0.00  0.00    +0.000 A 
ATOM     29  C   UNL     1       3.140  15.764  20.535  0.00  0.00    +0.000 A 
BRANCH  29  30
ATOM     30  O   UNL     1       2.960  16.636  21.581  0.00  0.00    +0.000 OA
ATOM     31  C   UNL     1       4.125  17.108  22.247  0.00  0.00    +0.000 C 
ENDBRANCH  29  30
ENDBRANCH  21  24
BRANCH   1  33
ATOM     32  C   UNL     1      -3.431  10.078  15.002  0.00  0.00    +0.000 C 
ATOM     33  O   UNL     1      -2.628  11.119  15.545  0.00  0.00    +0.000 OA
ENDBRANCH   1  33
TORSDOF 3
ENDMDL
MODEL 3
REMARK VINA RESULT:      -6.9      1.009      1.068
REMARK  Name = 
REMARK  5 active torsions:
REMARK  status: ('A' for Active; 'I' for Inactive)
REMARK    1  A    between atoms: C_1  and  O_2
REMARK    2  A    between atoms: O_2  and  C_3
REMARK    3  A    between atoms: N_23  and  C_24
REMARK    4  A    between atoms: C_29  and  O_30
REMARK    5  A    between atoms: O_30  and  C_31
REMARK                            x       y       z     vdW  Elec       q    Type
REMARK                         _______ _______ _______ _____ _____    ______ ____
ROOT
ATOM      1  C   UNL     1      -2.693  11.426  17.118  0.00  0.00    +0.000 A 
ATOM      2  C   UNL     1      -1.748  11.692  18.100  0.00  0.00    +0.000 A 
ATOM      3  C   UNL     1      -2.155  12.021  19.400  0.00  0.00    +0.000 A 
ATOM      4  C   UNL     1      -3.496  12.242  19.723  0.00  0.00    +0.000 A 
ATOM      5  C   UNL     1      -4.417  11.810  18.771  0.00  0.00    +0.000 A 
ATOM      6  C   UNL     1      -4.033  11.443  17.468  0.00  0.00    +0.000 A 
ATOM      7  C   UNL     1      -5.817  11.645  19.154  0.00  0.00    +0.000 A 
ATOM      8  O   UNL     1      -6.643  11.219  18.358  0.00  0.00    +0.000 OA
ATOM      9  C   UNL     1      -6.186  11.944  20.541  0.00  0.00    +0.000 A 
ATOM     10  C   UNL     1      -7.480  11.579  20.960  0.00  0.00    +0.000 A 
ATOM     11  C   UNL     1      -7.916  11.900  22.236  0.00  0.00    +0.000 A 
ATOM     12  C   UNL     1      -7.074  12.624  23.065  0.00  0.00    +0.000 A 
ATOM     13  C   UNL     1      -5.785  12.984  22.634  0.00  0.00    +0.000 A 
ATOM     14  C   UNL     1      -5.272  12.602  21.379  0.00  0.00    +0.000 A 
ATOM     15  N   UNL     1      -3.892  12.865  20.964  0.00  0.00    +0.000 N 
ATOM     16  C   UNL     1      -2.976  13.440  21.867  0.00  0.00    +0.000 C 
ATOM     17  O   UNL     1      -3.079  13.266  23.087  0.00  0.00    +0.000 OA
ATOM     18  N   UNL     1      -1.911  14.220  21.413  0.00  0.00    +0.000 N 
ATOM     19  C   UNL     1      -0.947  14.693  22.423  0.00  0.00    +0.000 C 
ATOM     20  C   UNL     1       0.494  14.421  21.977  0.00  0.00    +0.000 C 
ATOM     21  N   UNL     1       0.764  15.073  20.672  0.00  0.00    +0.000 N 
ATOM     22  C   UNL     1      -0.188  14.635  19.620  0.00  0.00    +0.000 C 
ATOM     23  C   UNL     1      -1.664  14.862  20.099  0.00  0.00    +0.000 C 
ENDROOT
BRANCH  21  24
ATOM     24  C   UNL     1       2.117  15.148  20.272  0.00  0.00    +0.000 A 
ATOM     25  C   UNL     1       3.127  14.475  21.002  0.00  0.00    +0.000 A 
ATOM     26  C   UNL     1       4.487  14.567  20.682  0.00  0.00    +0.000 A 
ATOM     27  C   UNL     1       4.889  15.343  19.610  0.00  0.00    +0.000 A 
ATOM     28  C   UNL     1       3.926  15.997  18.847  0.00  0.00    +0.000 A 
ATOM     29  C   UNL     1       2.556  15.912  19.163  0.00  0.00    +0.000 A 
BRANCH  29  30
ATOM     30  O   UNL     1       1.764  16.571  18.255  0.00  0.00    +0.000 OA
ATOM     31  C   UNL     1       2.419  17.293  17.219  0.00  0.00    +0.000 C 
ENDBRANCH  29  30
ENDBRANCH  21  24
BRANCH   1  33
ATOM     32  C   UNL     1      -3.241  10.116  15.236  0.00  0.00    +0.000 C 
ATOM     33  O   UNL     1      -2.418  11.120  15.818  0.00  0.00    +0.000 OA
ENDBRANCH   1  33
TORSDOF 3
ENDMDL
MODEL 4
REMARK VINA RESULT:      -6.9      1.225      1.661
REMARK  Name = 
REMARK  5 active torsions:
REMARK  status: ('A' for Active; 'I' for Inactive)
REMARK    1  A    between atoms: C_1  and  O_2
REMARK    2  A    between atoms: O_2  and  C_3
REMARK    3  A    between atoms: N_23  and  C_24
REMARK    4  A    between atoms: C_29  and  O_30
REMARK    5  A    between atoms: O_30  and  C_31
REMARK                            x       y       z     vdW  Elec       q    Type
REMARK                         _______ _______ _______ _____ _____    ______ ____
ROOT
ATOM      1  C   UNL     1      -3.339  11.493  17.127  0.00  0.00    +0.000 A 
ATOM      2  C   UNL     1      -2.276  11.676  18.002  0.00  0.00    +0.000 A 
ATOM      3  C   UNL     1      -2.516  11.974  19.350  0.00  0.00    +0.000 A 
ATOM      4  C   UNL     1      -3.798  12.246  19.832  0.00  0.00    +0.000 A 
ATOM      5  C   UNL     1      -4.842  11.895  18.980  0.00  0.00    +0.000 A 
ATOM      6  C   UNL     1      -4.628  11.561  17.629  0.00  0.00    +0.000 A 
ATOM      7  C   UNL     1      -6.196  11.783  19.516  0.00  0.00    +0.000 A 
ATOM      8  O   UNL     1      -7.128  11.428  18.806  0.00  0.00    +0.000 OA
ATOM      9  C   UNL     1      -6.389  12.047  20.945  0.00  0.00    +0.000 A 
ATOM     10  C   UNL     1      -7.645  11.728  21.498  0.00  0.00    +0.000 A 
ATOM     11  C   UNL     1      -7.916  12.020  22.825  0.00  0.00    +0.000 A 
ATOM     12  C   UNL     1      -6.949  12.671  23.574  0.00  0.00    +0.000 A 
ATOM     13  C   UNL     1      -5.700  12.986  23.010  0.00  0.00    +0.000 A 
ATOM     14  C   UNL     1      -5.353  12.627  21.693  0.00  0.00    +0.000 A 
ATOM     15  N   UNL     1      -4.017  12.840  21.130  0.00  0.00    +0.000 N 
ATOM     16  C   UNL     1      -2.976  13.336  21.939  0.00  0.00    +0.000 C 
ATOM     17  O   UNL     1      -2.949  13.120  23.157  0.00  0.00    +0.000 OA
ATOM     18  N   UNL     1      -1.931  14.081  21.391  0.00  0.00    +0.000 N 
ATOM     19  C   UNL     1      -0.835  14.468  22.298  0.00  0.00    +0.000 C 
ATOM     20  C   UNL     1       0.530  14.145  21.680  0.00  0.00    +0.000 C 
ATOM     21  N   UNL     1       0.684  14.832  20.375  0.00  0.00    +0.000 N 
ATOM     22  C   UNL     1      -0.404  14.481  19.426  0.00  0.00    +0.000 C 
ATOM     23  C   UNL     1      -1.802  14.759  20.079  0.00  0.00    +0.000 C 
ENDROOT
BRANCH  21  24
ATOM     24  C   UNL     1       1.984  14.858  19.824  0.00  0.00    +0.000 A 
ATOM     25  C   UNL     1       2.966  15.747  20.324  0.00  0.00    +0.000 A 
ATOM     26  C   UNL     1       4.249  15.853  19.774  0.00  0.00    +0.000 A 
ATOM     27  C   UNL     1       4.599  15.063  18.693  0.00  0.00    +0.000 A 
ATOM     28  C   UNL     1       3.675  14.154  18.190  0.00  0.00    +0.000 A 
ATOM     29  C   UNL     1       2.381  14.043  18.736  0.00  0.00    +0.000 A 
BRANCH  29  30
ATOM     30  O   UNL     1       1.644  13.046  18.145  0.00  0.00    +0.000 OA
ATOM     31  C   UNL     1       1.842  11.719  18.618  0.00  0.00    +0.000 C 
ENDBRANCH  29  30
ENDBRANCH  21  24
BRANCH   1  33
ATOM     32  C   UNL     1      -3.050   9.853  15.457  0.00  0.00    +0.000 C 
ATOM     33  O   UNL     1      -3.230  11.224  15.795  0.00  0.00    +0.000 OA
ENDBRANCH   1  33
TORSDOF 3
ENDMDL
MODEL 5
REMARK VINA RESULT:      -6.7      5.179      6.562
REMARK  Name = 
REMARK  5 active torsions:
REMARK  status: ('A' for Active; 'I' for Inactive)
REMARK    1  A    between atoms: C_1  and  O_2
REMARK    2  A    between atoms: O_2  and  C_3
REMARK    3  A    between atoms: N_23  and  C_24
REMARK    4  A    between atoms: C_29  and  O_30
REMARK    5  A    between atoms: O_30  and  C_31
REMARK                            x       y       z     vdW  Elec       q    Type
REMARK                         _______ _______ _______ _____ _____    ______ ____
ROOT
ATOM      1  C   UNL     1      -2.114  10.680  16.745  0.00  0.00    +0.000 A 
ATOM      2  C   UNL     1      -1.570   9.557  17.352  0.00  0.00    +0.000 A 
ATOM      3  C   UNL     1      -1.327   9.550  18.732  0.00  0.00    +0.000 A 
ATOM      4  C   UNL     1      -1.473  10.696  19.517  0.00  0.00    +0.000 A 
ATOM      5  C   UNL     1      -2.170  11.743  18.917  0.00  0.00    +0.000 A 
ATOM      6  C   UNL     1      -2.455  11.763  17.540  0.00  0.00    +0.000 A 
ATOM      7  C   UNL     1      -2.701  12.818  19.751  0.00  0.00    +0.000 A 
ATOM      8  O   UNL     1      -3.361  13.727  19.264  0.00  0.00    +0.000 OA
ATOM      9  C   UNL     1      -2.474  12.738  21.198  0.00  0.00    +0.000 A 
ATOM     10  C   UNL     1      -3.168  13.652  22.013  0.00  0.00    +0.000 A 
ATOM     11  C   UNL     1      -2.941  13.676  23.381  0.00  0.00    +0.000 A 
ATOM     12  C   UNL     1      -1.990  12.822  23.913  0.00  0.00    +0.000 A 
ATOM     13  C   UNL     1      -1.302  11.915  23.087  0.00  0.00    +0.000 A 
ATOM     14  C   UNL     1      -1.566  11.797  21.709  0.00  0.00    +0.000 A 
ATOM     15  N   UNL     1      -0.946  10.777  20.859  0.00  0.00    +0.000 N 
ATOM     16  C   UNL     1      -0.115   9.790  21.424  0.00  0.00    +0.000 C 
ATOM     17  O   UNL     1      -0.275   9.404  22.589  0.00  0.00    +0.000 OA
ATOM     18  N   UNL     1       0.913   9.205  20.684  0.00  0.00    +0.000 N 
ATOM     19  C   UNL     1       1.662   8.109  21.326  0.00  0.00    +0.000 C 
ATOM     20  C   UNL     1       1.784   6.903  20.388  0.00  0.00    +0.000 C 
ATOM     21  N   UNL     1       2.446   7.297  19.120  0.00  0.00    +0.000 N 
ATOM     22  C   UNL     1       1.732   8.406  18.438  0.00  0.00    +0.000 C 
ATOM     23  C   UNL     1       1.559   9.620  19.416  0.00  0.00    +0.000 C 
ENDROOT
BRANCH  21  24
ATOM     24  C   UNL     1       2.877   6.246  18.281  0.00  0.00    +0.000 A 
ATOM     25  C   UNL     1       2.097   5.074  18.126  0.00  0.00    +0.000 A 
ATOM     26  C   UNL     1       2.509   3.981  17.355  0.00  0.00    +0.000 A 
ATOM     27  C   UNL     1       3.729   4.022  16.703  0.00  0.00    +0.000 A 
ATOM     28  C   UNL     1       4.514   5.167  16.804  0.00  0.00    +0.000 A 
ATOM     29  C   UNL     1       4.107   6.270  17.579  0.00  0.00    +0.000 A 
BRANCH  29  30
ATOM     30  O   UNL     1       4.985   7.323  17.497  0.00  0.00    +0.000 OA
ATOM     31  C   UNL     1       6.347   7.019  17.221  0.00  0.00    +0.000 C 
ENDBRANCH  29  30
ENDBRANCH  21  24
BRANCH   1  33
ATOM     32  C   UNL     1      -3.449  10.030  14.913  0.00  0.00    +0.000 C 
ATOM     33  O   UNL     1      -2.371  10.813  15.412  0.00  0.00    +0.000 OA
ENDBRANCH   1  33
TORSDOF 3
ENDMDL
MODEL 6
REMARK VINA RESULT:      -6.4      3.488      7.432
REMARK  Name = 
REMARK  5 active torsions:
REMARK  status: ('A' for Active; 'I' for Inactive)
REMARK    1  A    between atoms: C_1  and  O_2
REMARK    2  A    between atoms: O_2  and  C_3
REMARK    3  A    between atoms: N_23  and  C_24
REMARK    4  A    between atoms: C_29  and  O_30
REMARK    5  A    between atoms: O_30  and  C_31
REMARK                            x       y       z     vdW  Elec       q    Type
REMARK                         _______ _______ _______ _____ _____    ______ ____
ROOT
ATOM      1  C   UNL     1       0.402  14.965  19.205  0.00  0.00    +0.000 A 
ATOM      2  C   UNL     1      -0.147  15.023  20.479  0.00  0.00    +0.000 A 
ATOM      3  C   UNL     1      -0.318  13.851  21.227  0.00  0.00    +0.000 A 
ATOM      4  C   UNL     1      -0.093  12.584  20.683  0.00  0.00    +0.000 A 
ATOM      5  C   UNL     1       0.607  12.570  19.478  0.00  0.00    +0.000 A 
ATOM      6  C   UNL     1       0.821  13.736  18.720  0.00  0.00    +0.000 A 
ATOM      7  C   UNL     1       1.216  11.324  19.020  0.00  0.00    +0.000 A 
ATOM      8  O   UNL     1       1.881  11.287  17.992  0.00  0.00    +0.000 OA
ATOM      9  C   UNL     1       1.062  10.136  19.865  0.00  0.00    +0.000 A 
ATOM     10  C   UNL     1       1.829   9.002  19.534  0.00  0.00    +0.000 A 
ATOM     11  C   UNL     1       1.674   7.824  20.248  0.00  0.00    +0.000 A 
ATOM     12  C   UNL     1       0.723   7.776  21.255  0.00  0.00    +0.000 A 
ATOM     13  C   UNL     1      -0.036   8.915  21.575  0.00  0.00    +0.000 A 
ATOM     14  C   UNL     1       0.151  10.155  20.933  0.00  0.00    +0.000 A 
ATOM     15  N   UNL     1      -0.546  11.379  21.335  0.00  0.00    +0.000 N 
ATOM     16  C   UNL     1      -1.380  11.381  22.471  0.00  0.00    +0.000 C 
ATOM     17  O   UNL     1      -1.172  10.618  23.423  0.00  0.00    +0.000 OA
ATOM     18  N   UNL     1      -2.465  12.254  22.566  0.00  0.00    +0.000 N 
ATOM     19  C   UNL     1      -3.216  12.256  23.834  0.00  0.00    +0.000 C 
ATOM     20  C   UNL     1      -3.427  13.685  24.346  0.00  0.00    +0.000 C 
ATOM     21  N   UNL     1      -4.140  14.499  23.332  0.00  0.00    +0.000 N 
ATOM     22  C   UNL     1      -3.426  14.522  22.031  0.00  0.00    +0.000 C 
ATOM     23  C   UNL     1      -3.161  13.058  21.533  0.00  0.00    +0.000 C 
ENDROOT
BRANCH  21  24
ATOM     24  C   UNL     1      -4.650  15.743  23.767  0.00  0.00    +0.000 A 
ATOM     25  C   UNL     1      -3.955  16.515  24.729  0.00  0.00    +0.000 A 
ATOM     26  C   UNL     1      -4.449  17.723  25.236  0.00  0.00    +0.000 A 
ATOM     27  C   UNL     1      -5.667  18.207  24.793  0.00  0.00    +0.000 A 
ATOM     28  C   UNL     1      -6.368  17.495  23.825  0.00  0.00    +0.000 A 
ATOM     29  C   UNL     1      -5.880  16.277  23.312  0.00  0.00    +0.000 A 
BRANCH  29  30
ATOM     30  O   UNL     1      -6.682  15.764  22.321  0.00  0.00    +0.000 OA
ATOM     31  C   UNL     1      -6.571  16.341  21.026  0.00  0.00    +0.000 C 
ENDBRANCH  29  30
ENDBRANCH  21  24
BRANCH   1  33
ATOM     32  C   UNL     1      -0.417  17.032  18.418  0.00  0.00    +0.000 C 
ATOM     33  O   UNL     1       0.594  16.032  18.377  0.00  0.00    +0.000 OA
ENDBRANCH   1  33
TORSDOF 3
ENDMDL
MODEL 7
REMARK VINA RESULT:      -6.4      5.055     10.096
REMARK  Name = 
REMARK  5 active torsions:
REMARK  status: ('A' for Active; 'I' for Inactive)
REMARK    1  A    between atoms: C_1  and  O_2
REMARK    2  A    between atoms: O_2  and  C_3
REMARK    3  A    between atoms: N_23  and  C_24
REMARK    4  A    between atoms: C_29  and  O_30
REMARK    5  A    between atoms: O_30  and  C_31
REMARK                            x       y       z     vdW  Elec       q    Type
REMARK                         _______ _______ _______ _____ _____    ______ ____
ROOT
ATOM      1  C   UNL     1       7.994  16.085  18.748  0.00  0.00    +0.000 A 
ATOM      2  C   UNL     1       6.751  16.551  19.153  0.00  0.00    +0.000 A 
ATOM      3  C   UNL     1       6.149  16.040  20.310  0.00  0.00    +0.000 A 
ATOM      4  C   UNL     1       6.685  14.956  21.008  0.00  0.00    +0.000 A 
ATOM      5  C   UNL     1       7.998  14.626  20.678  0.00  0.00    +0.000 A 
ATOM      6  C   UNL     1       8.640  15.148  19.539  0.00  0.00    +0.000 A 
ATOM      7  C   UNL     1       8.772  13.780  21.582  0.00  0.00    +0.000 A 
ATOM      8  O   UNL     1       9.943  13.512  21.349  0.00  0.00    +0.000 OA
ATOM      9  C   UNL     1       8.119  13.317  22.811  0.00  0.00    +0.000 A 
ATOM     10  C   UNL     1       8.929  12.689  23.777  0.00  0.00    +0.000 A 
ATOM     11  C   UNL     1       8.361  12.164  24.927  0.00  0.00    +0.000 A 
ATOM     12  C   UNL     1       6.986  12.227  25.079  0.00  0.00    +0.000 A 
ATOM     13  C   UNL     1       6.188  12.855  24.106  0.00  0.00    +0.000 A 
ATOM     14  C   UNL     1       6.734  13.479  22.967  0.00  0.00    +0.000 A 
ATOM     15  N   UNL     1       5.930  14.239  22.008  0.00  0.00    +0.000 N 
ATOM     16  C   UNL     1       4.559  14.462  22.248  0.00  0.00    +0.000 C 
ATOM     17  O   UNL     1       4.109  14.524  23.399  0.00  0.00    +0.000 OA
ATOM     18  N   UNL     1       3.662  14.631  21.192  0.00  0.00    +0.000 N 
ATOM     19  C   UNL     1       2.268  14.962  21.542  0.00  0.00    +0.000 C 
ATOM     20  C   UNL     1       1.762  16.151  20.719  0.00  0.00    +0.000 C 
ATOM     21  N   UNL     1       1.866  15.859  19.268  0.00  0.00    +0.000 N 
ATOM     22  C   UNL     1       3.252  15.511  18.866  0.00  0.00    +0.000 C 
ATOM     23  C   UNL     1       3.791  14.330  19.747  0.00  0.00    +0.000 C 
ENDROOT
BRANCH  21  24
ATOM     24  C   UNL     1       1.184  16.737  18.397  0.00  0.00    +0.000 A 
ATOM     25  C   UNL     1       1.866  17.383  17.338  0.00  0.00    +0.000 A 
ATOM     26  C   UNL     1       1.249  18.307  16.486  0.00  0.00    +0.000 A 
ATOM     27  C   UNL     1      -0.087  18.621  16.666  0.00  0.00    +0.000 A 
ATOM     28  C   UNL     1      -0.802  17.986  17.676  0.00  0.00    +0.000 A 
ATOM     29  C   UNL     1      -0.189  17.057  18.539  0.00  0.00    +0.000 A 
BRANCH  29  30
ATOM     30  O   UNL     1      -1.076  16.495  19.424  0.00  0.00    +0.000 OA
ATOM     31  C   UNL     1      -2.296  17.189  19.656  0.00  0.00    +0.000 C 
ENDBRANCH  29  30
ENDBRANCH  21  24
BRANCH   1  33
ATOM     32  C   UNL     1      10.020  16.061  17.540  0.00  0.00    +0.000 C 
ATOM     33  O   UNL     1       8.666  16.488  17.631  0.00  0.00    +0.000 OA
ENDBRANCH   1  33
TORSDOF 3
ENDMDL
MODEL 8
REMARK VINA RESULT:      -6.4      2.569      3.577
REMARK  Name = 
REMARK  5 active torsions:
REMARK  status: ('A' for Active; 'I' for Inactive)
REMARK    1  A    between atoms: C_1  and  O_2
REMARK    2  A    between atoms: O_2  and  C_3
REMARK    3  A    between atoms: N_23  and  C_24
REMARK    4  A    between atoms: C_29  and  O_30
REMARK    5  A    between atoms: O_30  and  C_31
REMARK                            x       y       z     vdW  Elec       q    Type
REMARK                         _______ _______ _______ _____ _____    ______ ____
ROOT
ATOM      1  C   UNL     1       0.783  10.023  18.135  0.00  0.00    +0.000 A 
ATOM      2  C   UNL     1       0.994  10.874  19.211  0.00  0.00    +0.000 A 
ATOM      3  C   UNL     1      -0.075  11.590  19.765  0.00  0.00    +0.000 A 
ATOM      4  C   UNL     1      -1.343  11.599  19.180  0.00  0.00    +0.000 A 
ATOM      5  C   UNL     1      -1.561  10.618  18.215  0.00  0.00    +0.000 A 
ATOM      6  C   UNL     1      -0.510   9.862  17.663  0.00  0.00    +0.000 A 
ATOM      7  C   UNL     1      -2.929  10.296  17.819  0.00  0.00    +0.000 A 
ATOM      8  O   UNL     1      -3.160   9.405  17.012  0.00  0.00    +0.000 OA
ATOM      9  C   UNL     1      -4.020  11.029  18.469  0.00  0.00    +0.000 A 
ATOM     10  C   UNL     1      -5.332  10.568  18.248  0.00  0.00    +0.000 A 
ATOM     11  C   UNL     1      -6.412  11.261  18.774  0.00  0.00    +0.000 A 
ATOM     12  C   UNL     1      -6.174  12.432  19.474  0.00  0.00    +0.000 A 
ATOM     13  C   UNL     1      -4.859  12.883  19.686  0.00  0.00    +0.000 A 
ATOM     14  C   UNL     1      -3.732  12.163  19.245  0.00  0.00    +0.000 A 
ATOM     15  N   UNL     1      -2.356  12.555  19.562  0.00  0.00    +0.000 N 
ATOM     16  C   UNL     1      -2.107  13.642  20.423  0.00  0.00    +0.000 C 
ATOM     17  O   UNL     1      -2.907  13.952  21.315  0.00  0.00    +0.000 OA
ATOM     18  N   UNL     1      -0.942  14.402  20.306  0.00  0.00    +0.000 N 
ATOM     19  C   UNL     1      -0.722  15.452  21.316  0.00  0.00    +0.000 C 
ATOM     20  C   UNL     1       0.697  15.373  21.891  0.00  0.00    +0.000 C 
ATOM     21  N   UNL     1       1.703  15.491  20.806  0.00  0.00    +0.000 N 
ATOM     22  C   UNL     1       1.517  14.457  19.757  0.00  0.00    +0.000 C 
ATOM     23  C   UNL     1       0.048  14.502  19.208  0.00  0.00    +0.000 C 
ENDROOT
BRANCH  21  24
ATOM     24  C   UNL     1       3.038  15.716  21.207  0.00  0.00    +0.000 A 
ATOM     25  C   UNL     1       3.570  15.075  22.352  0.00  0.00    +0.000 A 
ATOM     26  C   UNL     1       4.867  15.311  22.823  0.00  0.00    +0.000 A 
ATOM     27  C   UNL     1       5.687  16.206  22.159  0.00  0.00    +0.000 A 
ATOM     28  C   UNL     1       5.214  16.835  21.012  0.00  0.00    +0.000 A 
ATOM     29  C   UNL     1       3.910  16.605  20.532  0.00  0.00    +0.000 A 
BRANCH  29  30
ATOM     30  O   UNL     1       3.658  17.267  19.355  0.00  0.00    +0.000 OA
ATOM     31  C   UNL     1       3.970  16.589  18.144  0.00  0.00    +0.000 C 
ENDBRANCH  29  30
ENDBRANCH  21  24
BRANCH   1  33
ATOM     32  C   UNL     1       2.239   8.169  18.215  0.00  0.00    +0.000 C 
ATOM     33  O   UNL     1       1.746   9.296  17.499  0.00  0.00    +0.000 OA
ENDBRANCH   1  33
TORSDOF 3
ENDMDL
MODEL 9
REMARK VINA RESULT:      -6.4      4.996      6.456
REMARK  Name = 
REMARK  5 active torsions:
REMARK  status: ('A' for Active; 'I' for Inactive)
REMARK    1  A    between atoms: C_1  and  O_2
REMARK    2  A    between atoms: O_2  and  C_3
REMARK    3  A    between atoms: N_23  and  C_24
REMARK    4  A    between atoms: C_29  and  O_30
REMARK    5  A    between atoms: O_30  and  C_31
REMARK                            x       y       z     vdW  Elec       q    Type
REMARK                         _______ _______ _______ _____ _____    ______ ____
ROOT
ATOM      1  C   UNL     1      -2.310  10.716  16.733  0.00  0.00    +0.000 A 
ATOM      2  C   UNL     1      -1.671   9.646  17.344  0.00  0.00    +0.000 A 
ATOM      3  C   UNL     1      -1.477   9.641  18.732  0.00  0.00    +0.000 A 
ATOM      4  C   UNL     1      -1.770  10.751  19.526  0.00  0.00    +0.000 A 
ATOM      5  C   UNL     1      -2.553  11.729  18.916  0.00  0.00    +0.000 A 
ATOM      6  C   UNL     1      -2.791  11.742  17.529  0.00  0.00    +0.000 A 
ATOM      7  C   UNL     1      -3.223  12.728  19.744  0.00  0.00    +0.000 A 
ATOM      8  O   UNL     1      -3.959  13.570  19.246  0.00  0.00    +0.000 OA
ATOM      9  C   UNL     1      -3.039  12.647  21.197  0.00  0.00    +0.000 A 
ATOM     10  C   UNL     1      -3.854  13.469  21.999  0.00  0.00    +0.000 A 
ATOM     11  C   UNL     1      -3.678  13.494  23.374  0.00  0.00    +0.000 A 
ATOM     12  C   UNL     1      -2.660  12.735  23.929  0.00  0.00    +0.000 A 
ATOM     13  C   UNL     1      -1.852  11.920  23.116  0.00  0.00    +0.000 A 
ATOM     14  C   UNL     1      -2.055  11.799  21.727  0.00  0.00    +0.000 A 
ATOM     15  N   UNL     1      -1.301  10.865  20.887  0.00  0.00    +0.000 N 
ATOM     16  C   UNL     1      -0.390   9.961  21.468  0.00  0.00    +0.000 C 
ATOM     17  O   UNL     1      -0.548   9.541  22.621  0.00  0.00    +0.000 OA
ATOM     18  N   UNL     1       0.720   9.501  20.758  0.00  0.00    +0.000 N 
ATOM     19  C   UNL     1       1.558   8.479  21.412  0.00  0.00    +0.000 C 
ATOM     20  C   UNL     1       1.839   7.309  20.463  0.00  0.00    +0.000 C 
ATOM     21  N   UNL     1       2.498   7.792  19.225  0.00  0.00    +0.000 N 
ATOM     22  C   UNL     1       1.695   8.832  18.533  0.00  0.00    +0.000 C 
ATOM     23  C   UNL     1       1.360  10.003  19.520  0.00  0.00    +0.000 C 
ENDROOT
BRANCH  21  24
ATOM     24  C   UNL     1       3.067   6.807  18.388  0.00  0.00    +0.000 A 
ATOM     25  C   UNL     1       4.146   7.123  17.526  0.00  0.00    +0.000 A 
ATOM     26  C   UNL     1       4.704   6.199  16.635  0.00  0.00    +0.000 A 
ATOM     27  C   UNL     1       4.198   4.912  16.574  0.00  0.00    +0.000 A 
ATOM     28  C   UNL     1       3.158   4.551  17.425  0.00  0.00    +0.000 A 
ATOM     29  C   UNL     1       2.590   5.475  18.322  0.00  0.00    +0.000 A 
BRANCH  29  30
ATOM     30  O   UNL     1       1.624   4.909  19.119  0.00  0.00    +0.000 OA
ATOM     31  C   UNL     1       1.466   3.497  19.052  0.00  0.00    +0.000 C 
ENDBRANCH  29  30
ENDBRANCH  21  24
BRANCH   1  33
ATOM     32  C   UNL     1      -3.590  10.048  14.868  0.00  0.00    +0.000 C 
ATOM     33  O   UNL     1      -2.534  10.843  15.393  0.00  0.00    +0.000 OA
ENDBRANCH   1  33
TORSDOF 3
ENDMDL
