MODEL 1
REMARK VINA RESULT:      -8.4      0.000      0.000
REMARK  Name = 
REMARK  6 active torsions:
REMARK  status: ('A' for Active; 'I' for Inactive)
REMARK    1  A    between atoms: C_1  and  N_2
REMARK    2  A    between atoms: C_6  and  C_7
REMARK    3  A    between atoms: C_15  and  N_16
REMARK    4  A    between atoms: N_19  and  C_20
REMARK    5  A    between atoms: C_23  and  S_24
REMARK    6  A    between atoms: S_24  and  C_25
REMARK                            x       y       z     vdW  Elec       q    Type
REMARK                         _______ _______ _______ _____ _____    ______ ____
ROOT
ATOM      1  C   UNL     1       5.372   3.510  17.964  0.00  0.00    +0.000 C 
ATOM      2  C   UNL     1       4.151   3.299  18.470  0.00  0.00    +0.000 C 
ATOM      3  C   UNL     1       3.548   1.924  18.383  0.00  0.00    +0.000 C 
ATOM      4  O   UNL     1       4.017   0.942  17.841  0.00  0.00    +0.000 OA
ATOM      5  N   UNL     1       2.361   2.011  19.087  0.00  0.00    +0.000 N 
ATOM      6  C   UNL     1       2.164   3.295  19.583  0.00  0.00    +0.000 A 
ATOM      7  C   UNL     1       1.101   3.721  20.342  0.00  0.00    +0.000 A 
ATOM      8  C   UNL     1       1.093   5.061  20.731  0.00  0.00    +0.000 A 
ATOM      9  C   UNL     1       2.112   5.959  20.344  0.00  0.00    +0.000 A 
ATOM     10  C   UNL     1       3.187   5.485  19.573  0.00  0.00    +0.000 A 
ATOM     11  C   UNL     1       3.213   4.145  19.216  0.00  0.00    +0.000 A 
ATOM     12  H   UNL     1       1.732   1.232  19.205  0.00  0.00    +0.000 HD
ENDROOT
BRANCH   1  18
ATOM     13  C   UNL     1       5.211   5.519  15.774  0.00  0.00    +0.000 C 
ATOM     14  N   UNL     1       5.921   5.676  17.022  0.00  0.00    +0.000 N 
ATOM     15  C   UNL     1       6.642   6.782  17.381  0.00  0.00    +0.000 A 
ATOM     16  C   UNL     1       7.139   6.497  18.629  0.00  0.00    +0.000 A 
ATOM     17  N   UNL     1       6.768   5.240  19.020  0.00  0.00    +0.000 NA
ATOM     18  C   UNL     1       6.022   4.759  18.047  0.00  0.00    +0.000 A 
ENDBRANCH   1  18
BRANCH   9  19
ATOM     19  N   UNL     1       2.103   7.331  20.696  0.00  0.00    +0.000 N 
ATOM     20  C   UNL     1       0.986   8.072  21.049  0.00  0.00    +0.000 C 
ATOM     21  O   UNL     1      -0.156   7.634  21.127  0.00  0.00    +0.000 OA
ATOM     22  N   UNL     1       1.296   9.409  21.265  0.00  0.00    +0.000 N 
ATOM     23  H   UNL     1       2.991   7.811  20.678  0.00  0.00    +0.000 HD
ATOM     24  H   UNL     1       2.052   9.767  20.701  0.00  0.00    +0.000 HD
BRANCH  22  25
ATOM     25  C   UNL     1       0.284  10.334  21.617  0.00  0.00    +0.000 A 
ATOM     26  C   UNL     1      -0.377  10.271  22.852  0.00  0.00    +0.000 A 
ATOM     27  C   UNL     1      -1.405  11.165  23.155  0.00  0.00    +0.000 A 
ATOM     28  C   UNL     1      -1.772  12.124  22.210  0.00  0.00    +0.000 A 
ATOM     29  C   UNL     1      -1.132  12.189  20.970  0.00  0.00    +0.000 A 
ATOM     30  C   UNL     1      -0.081  11.312  20.687  0.00  0.00    +0.000 A 
BRANCH  28  31
ATOM     31  S   UNL     1      -3.085  13.266  22.576  0.00  0.00    +0.000 S 
ATOM     32  C   UNL     1      -3.784  12.591  24.061  0.00  0.00    +0.000 C 
ATOM     33  O   UNL     1      -2.477  14.541  22.901  0.00  0.00    +0.000 OA
ATOM     34  O   UNL     1      -4.077  13.157  21.524  0.00  0.00    +0.000 OA
ENDBRANCH  28  31
ENDBRANCH  22  25
ENDBRANCH   9  19
TORSDOF 4
ENDMDL
MODEL 2
REMARK VINA RESULT:      -8.4      0.877      1.650
REMARK  Name = 
REMARK  6 active torsions:
REMARK  status: ('A' for Active; 'I' for Inactive)
REMARK    1  A    between atoms: C_1  and  N_2
REMARK    2  A    between atoms: C_6  and  C_7
REMARK    3  A    between atoms: C_15  and  N_16
REMARK    4  A    between atoms: N_19  and  C_20
REMARK    5  A    between atoms: C_23  and  S_24
REMARK    6  A    between atoms: S_24  and  C_25
REMARK                            x       y       z     vdW  Elec       q    Type
REMARK                         _______ _______ _______ _____ _____    ______ ____
ROOT
ATOM      1  C   UNL     1       4.953   3.879  17.358  0.00  0.00    +0.000 C 
ATOM      2  C   UNL     1       3.938   3.573  18.176  0.00  0.00    +0.000 C 
ATOM      3  C   UNL     1       3.523   2.135  18.326  0.00  0.00    +0.000 C 
ATOM      4  O   UNL     1       3.969   1.169  17.736  0.00  0.00    +0.000 OA
ATOM      5  N   UNL     1       2.550   2.146  19.309  0.00  0.00    +0.000 N 
ATOM      6  C   UNL     1       2.314   3.437  19.766  0.00  0.00    +0.000 A 
ATOM      7  C   UNL     1       1.428   3.803  20.751  0.00  0.00    +0.000 A 
ATOM      8  C   UNL     1       1.337   5.161  21.054  0.00  0.00    +0.000 A 
ATOM      9  C   UNL     1       2.095   6.134  20.365  0.00  0.00    +0.000 A 
ATOM     10  C   UNL     1       2.996   5.721  19.368  0.00  0.00    +0.000 A 
ATOM     11  C   UNL     1       3.112   4.367  19.093  0.00  0.00    +0.000 A 
ATOM     12  H   UNL     1       2.082   1.312  19.630  0.00  0.00    +0.000 HD
ENDROOT
BRANCH   1  18
ATOM     13  C   UNL     1       7.706   4.668  18.165  0.00  0.00    +0.000 C 
ATOM     14  N   UNL     1       6.713   5.532  17.571  0.00  0.00    +0.000 N 
ATOM     15  C   UNL     1       6.891   6.861  17.300  0.00  0.00    +0.000 A 
ATOM     16  C   UNL     1       5.702   7.278  16.751  0.00  0.00    +0.000 A 
ATOM     17  N   UNL     1       4.802   6.248  16.713  0.00  0.00    +0.000 NA
ATOM     18  C   UNL     1       5.428   5.196  17.200  0.00  0.00    +0.000 A 
ENDBRANCH   1  18
BRANCH   9  19
ATOM     19  N   UNL     1       1.991   7.521  20.630  0.00  0.00    +0.000 N 
ATOM     20  C   UNL     1       0.839   8.191  21.012  0.00  0.00    +0.000 C 
ATOM     21  O   UNL     1      -0.254   7.667  21.196  0.00  0.00    +0.000 OA
ATOM     22  N   UNL     1       1.044   9.560  21.122  0.00  0.00    +0.000 N 
ATOM     23  H   UNL     1       2.830   8.070  20.521  0.00  0.00    +0.000 HD
ATOM     24  H   UNL     1       1.729   9.939  20.486  0.00  0.00    +0.000 HD
BRANCH  22  25
ATOM     25  C   UNL     1      -0.019  10.421  21.484  0.00  0.00    +0.000 A 
ATOM     26  C   UNL     1      -0.589  11.315  20.566  0.00  0.00    +0.000 A 
ATOM     27  C   UNL     1      -1.604  12.188  20.961  0.00  0.00    +0.000 A 
ATOM     28  C   UNL     1      -2.046  12.164  22.284  0.00  0.00    +0.000 A 
ATOM     29  C   UNL     1      -1.476  11.288  23.212  0.00  0.00    +0.000 A 
ATOM     30  C   UNL     1      -0.484  10.394  22.801  0.00  0.00    +0.000 A 
BRANCH  28  31
ATOM     31  S   UNL     1      -3.332  13.274  22.806  0.00  0.00    +0.000 S 
ATOM     32  C   UNL     1      -3.371  14.468  21.494  0.00  0.00    +0.000 C 
ATOM     33  O   UNL     1      -4.580  12.537  22.785  0.00  0.00    +0.000 OA
ATOM     34  O   UNL     1      -2.880  13.945  24.010  0.00  0.00    +0.000 OA
ENDBRANCH  28  31
ENDBRANCH  22  25
ENDBRANCH   9  19
TORSDOF 4
ENDMDL
MODEL 3
REMARK VINA RESULT:      -8.4      0.836      1.291
REMARK  Name = 
REMARK  6 active torsions:
REMARK  status: ('A' for Active; 'I' for Inactive)
REMARK    1  A    between atoms: C_1  and  N_2
REMARK    2  A    between atoms: C_6  and  C_7
REMARK    3  A    between atoms: C_15  and  N_16
REMARK    4  A    between atoms: N_19  and  C_20
REMARK    5  A    between atoms: C_23  and  S_24
REMARK    6  A    between atoms: S_24  and  C_25
REMARK                            x       y       z     vdW  Elec       q    Type
REMARK                         _______ _______ _______ _____ _____    ______ ____
ROOT
ATOM      1  C   UNL     1       4.888   3.787  17.321  0.00  0.00    +0.000 C 
ATOM      2  C   UNL     1       3.912   3.544  18.205  0.00  0.00    +0.000 C 
ATOM      3  C   UNL     1       3.533   2.121  18.508  0.00  0.00    +0.000 C 
ATOM      4  O   UNL     1       3.975   1.111  17.995  0.00  0.00    +0.000 OA
ATOM      5  N   UNL     1       2.600   2.209  19.524  0.00  0.00    +0.000 N 
ATOM      6  C   UNL     1       2.355   3.534  19.867  0.00  0.00    +0.000 A 
ATOM      7  C   UNL     1       1.501   3.978  20.848  0.00  0.00    +0.000 A 
ATOM      8  C   UNL     1       1.395   5.358  21.024  0.00  0.00    +0.000 A 
ATOM      9  C   UNL     1       2.106   6.272  20.215  0.00  0.00    +0.000 A 
ATOM     10  C   UNL     1       2.975   5.781  19.226  0.00  0.00    +0.000 A 
ATOM     11  C   UNL     1       3.107   4.409  19.075  0.00  0.00    +0.000 A 
ATOM     12  H   UNL     1       2.162   1.403  19.942  0.00  0.00    +0.000 HD
ENDROOT
BRANCH   1  18
ATOM     13  C   UNL     1       6.838   5.229  19.046  0.00  0.00    +0.000 C 
ATOM     14  N   UNL     1       6.243   5.733  17.829  0.00  0.00    +0.000 N 
ATOM     15  C   UNL     1       6.483   6.967  17.291  0.00  0.00    +0.000 A 
ATOM     16  C   UNL     1       5.715   7.018  16.153  0.00  0.00    +0.000 A 
ATOM     17  N   UNL     1       4.992   5.865  16.008  0.00  0.00    +0.000 NA
ATOM     18  C   UNL     1       5.330   5.092  17.019  0.00  0.00    +0.000 A 
ENDBRANCH   1  18
BRANCH   9  19
ATOM     19  N   UNL     1       1.984   7.677  20.352  0.00  0.00    +0.000 N 
ATOM     20  C   UNL     1       0.881   8.352  20.853  0.00  0.00    +0.000 C 
ATOM     21  O   UNL     1      -0.141   7.820  21.272  0.00  0.00    +0.000 OA
ATOM     22  N   UNL     1       1.040   9.729  20.787  0.00  0.00    +0.000 N 
ATOM     23  H   UNL     1       2.768   8.234  20.046  0.00  0.00    +0.000 HD
ATOM     24  H   UNL     1       1.592  10.057  20.009  0.00  0.00    +0.000 HD
BRANCH  22  25
ATOM     25  C   UNL     1       0.013  10.595  21.234  0.00  0.00    +0.000 A 
ATOM     26  C   UNL     1      -0.349  10.673  22.587  0.00  0.00    +0.000 A 
ATOM     27  C   UNL     1      -1.399  11.497  22.995  0.00  0.00    +0.000 A 
ATOM     28  C   UNL     1      -2.088  12.244  22.040  0.00  0.00    +0.000 A 
ATOM     29  C   UNL     1      -1.747  12.165  20.687  0.00  0.00    +0.000 A 
ATOM     30  C   UNL     1      -0.674  11.363  20.290  0.00  0.00    +0.000 A 
BRANCH  28  31
ATOM     31  S   UNL     1      -3.432  13.294  22.542  0.00  0.00    +0.000 S 
ATOM     32  C   UNL     1      -2.782  14.094  23.986  0.00  0.00    +0.000 C 
ATOM     33  O   UNL     1      -3.611  14.297  21.510  0.00  0.00    +0.000 OA
ATOM     34  O   UNL     1      -4.531  12.444  22.956  0.00  0.00    +0.000 OA
ENDBRANCH  28  31
ENDBRANCH  22  25
ENDBRANCH   9  19
TORSDOF 4
ENDMDL
MODEL 4
REMARK VINA RESULT:      -8.2      0.635      1.077
REMARK  Name = 
REMARK  6 active torsions:
REMARK  status: ('A' for Active; 'I' for Inactive)
REMARK    1  A    between atoms: C_1  and  N_2
REMARK    2  A    between atoms: C_6  and  C_7
REMARK    3  A    between atoms: C_15  and  N_16
REMARK    4  A    between atoms: N_19  and  C_20
REMARK    5  A    between atoms: C_23  and  S_24
REMARK    6  A    between atoms: S_24  and  C_25
REMARK                            x       y       z     vdW  Elec       q    Type
REMARK                         _______ _______ _______ _____ _____    ______ ____
ROOT
ATOM      1  C   UNL     1       5.371   3.485  17.996  0.00  0.00    +0.000 C 
ATOM      2  C   UNL     1       4.140   3.295  18.486  0.00  0.00    +0.000 C 
ATOM      3  C   UNL     1       3.511   1.933  18.388  0.00  0.00    +0.000 C 
ATOM      4  O   UNL     1       3.968   0.943  17.849  0.00  0.00    +0.000 OA
ATOM      5  N   UNL     1       2.318   2.041  19.077  0.00  0.00    +0.000 N 
ATOM      6  C   UNL     1       2.140   3.327  19.575  0.00  0.00    +0.000 A 
ATOM      7  C   UNL     1       1.076   3.772  20.322  0.00  0.00    +0.000 A 
ATOM      8  C   UNL     1       1.089   5.110  20.715  0.00  0.00    +0.000 A 
ATOM      9  C   UNL     1       2.130   5.989  20.343  0.00  0.00    +0.000 A 
ATOM     10  C   UNL     1       3.205   5.497  19.584  0.00  0.00    +0.000 A 
ATOM     11  C   UNL     1       3.209   4.158  19.224  0.00  0.00    +0.000 A 
ATOM     12  H   UNL     1       1.672   1.274  19.186  0.00  0.00    +0.000 HD
ENDROOT
BRANCH   1  18
ATOM     13  C   UNL     1       5.232   5.524  15.833  0.00  0.00    +0.000 C 
ATOM     14  N   UNL     1       5.953   5.653  17.078  0.00  0.00    +0.000 N 
ATOM     15  C   UNL     1       6.696   6.740  17.446  0.00  0.00    +0.000 A 
ATOM     16  C   UNL     1       7.197   6.430  18.688  0.00  0.00    +0.000 A 
ATOM     17  N   UNL     1       6.805   5.174  19.065  0.00  0.00    +0.000 NA
ATOM     18  C   UNL     1       6.044   4.720  18.091  0.00  0.00    +0.000 A 
ENDBRANCH   1  18
BRANCH   9  19
ATOM     19  N   UNL     1       2.144   7.360  20.700  0.00  0.00    +0.000 N 
ATOM     20  C   UNL     1       1.034   8.131  21.009  0.00  0.00    +0.000 C 
ATOM     21  O   UNL     1      -0.122   7.723  21.040  0.00  0.00    +0.000 OA
ATOM     22  N   UNL     1       1.369   9.458  21.242  0.00  0.00    +0.000 N 
ATOM     23  H   UNL     1       3.043   7.817  20.719  0.00  0.00    +0.000 HD
ATOM     24  H   UNL     1       2.157   9.797  20.711  0.00  0.00    +0.000 HD
BRANCH  22  25
ATOM     25  C   UNL     1       0.369  10.409  21.556  0.00  0.00    +0.000 A 
ATOM     26  C   UNL     1       0.060  11.467  20.689  0.00  0.00    +0.000 A 
ATOM     27  C   UNL     1      -0.896  12.420  21.044  0.00  0.00    +0.000 A 
ATOM     28  C   UNL     1      -1.543  12.309  22.276  0.00  0.00    +0.000 A 
ATOM     29  C   UNL     1      -1.234  11.268  23.154  0.00  0.00    +0.000 A 
ATOM     30  C   UNL     1      -0.299  10.299  22.778  0.00  0.00    +0.000 A 
BRANCH  28  31
ATOM     31  S   UNL     1      -2.757  13.518  22.747  0.00  0.00    +0.000 S 
ATOM     32  C   UNL     1      -1.942  14.401  24.052  0.00  0.00    +0.000 C 
ATOM     33  O   UNL     1      -2.930  14.423  21.627  0.00  0.00    +0.000 OA
ATOM     34  O   UNL     1      -3.888  12.814  23.320  0.00  0.00    +0.000 OA
ENDBRANCH  28  31
ENDBRANCH  22  25
ENDBRANCH   9  19
TORSDOF 4
ENDMDL
MODEL 5
REMARK VINA RESULT:      -7.9      1.577      2.206
REMARK  Name = 
REMARK  6 active torsions:
REMARK  status: ('A' for Active; 'I' for Inactive)
REMARK    1  A    between atoms: C_1  and  N_2
REMARK    2  A    between atoms: C_6  and  C_7
REMARK    3  A    between atoms: C_15  and  N_16
REMARK    4  A    between atoms: N_19  and  C_20
REMARK    5  A    between atoms: C_23  and  S_24
REMARK    6  A    between atoms: S_24  and  C_25
REMARK                            x       y       z     vdW  Elec       q    Type
REMARK                         _______ _______ _______ _____ _____    ______ ____
ROOT
ATOM      1  C   UNL     1       5.724   3.910  18.439  0.00  0.00    +0.000 C 
ATOM      2  C   UNL     1       4.632   3.758  19.198  0.00  0.00    +0.000 C 
ATOM      3  C   UNL     1       4.401   2.448  19.899  0.00  0.00    +0.000 C 
ATOM      4  O   UNL     1       5.075   1.438  19.824  0.00  0.00    +0.000 OA
ATOM      5  N   UNL     1       3.276   2.653  20.676  0.00  0.00    +0.000 N 
ATOM      6  C   UNL     1       2.785   3.943  20.516  0.00  0.00    +0.000 A 
ATOM      7  C   UNL     1       1.694   4.485  21.155  0.00  0.00    +0.000 A 
ATOM      8  C   UNL     1       1.363   5.803  20.842  0.00  0.00    +0.000 A 
ATOM      9  C   UNL     1       2.090   6.552  19.889  0.00  0.00    +0.000 A 
ATOM     10  C   UNL     1       3.203   5.967  19.261  0.00  0.00    +0.000 A 
ATOM     11  C   UNL     1       3.553   4.668  19.599  0.00  0.00    +0.000 A 
ATOM     12  H   UNL     1       2.879   1.941  21.270  0.00  0.00    +0.000 HD
ENDROOT
BRANCH   1  18
ATOM     13  C   UNL     1       7.809   5.767  19.470  0.00  0.00    +0.000 C 
ATOM     14  N   UNL     1       7.011   5.959  18.281  0.00  0.00    +0.000 N 
ATOM     15  C   UNL     1       7.090   7.043  17.449  0.00  0.00    +0.000 A 
ATOM     16  C   UNL     1       6.162   6.808  16.464  0.00  0.00    +0.000 A 
ATOM     17  N   UNL     1       5.502   5.632  16.695  0.00  0.00    +0.000 NA
ATOM     18  C   UNL     1       6.032   5.122  17.787  0.00  0.00    +0.000 A 
ENDBRANCH   1  18
BRANCH   9  19
ATOM     19  N   UNL     1       1.748   7.878  19.529  0.00  0.00    +0.000 N 
ATOM     20  C   UNL     1       1.330   8.874  20.399  0.00  0.00    +0.000 C 
ATOM     21  O   UNL     1       1.219   8.750  21.613  0.00  0.00    +0.000 OA
ATOM     22  N   UNL     1       0.996  10.044  19.729  0.00  0.00    +0.000 N 
ATOM     23  H   UNL     1       1.804   8.113  18.550  0.00  0.00    +0.000 HD
ATOM     24  H   UNL     1       0.616   9.911  18.805  0.00  0.00    +0.000 HD
BRANCH  22  25
ATOM     25  C   UNL     1       0.528  11.173  20.443  0.00  0.00    +0.000 A 
ATOM     26  C   UNL     1      -0.788  11.251  20.919  0.00  0.00    +0.000 A 
ATOM     27  C   UNL     1      -1.240  12.396  21.576  0.00  0.00    +0.000 A 
ATOM     28  C   UNL     1      -0.365  13.468  21.754  0.00  0.00    +0.000 A 
ATOM     29  C   UNL     1       0.945  13.409  21.271  0.00  0.00    +0.000 A 
ATOM     30  C   UNL     1       1.400  12.247  20.643  0.00  0.00    +0.000 A 
BRANCH  28  31
ATOM     31  S   UNL     1      -0.925  14.938  22.582  0.00  0.00    +0.000 S 
ATOM     32  C   UNL     1       0.211  16.170  22.001  0.00  0.00    +0.000 C 
ATOM     33  O   UNL     1      -2.241  15.256  22.064  0.00  0.00    +0.000 OA
ATOM     34  O   UNL     1      -0.705  14.760  24.004  0.00  0.00    +0.000 OA
ENDBRANCH  28  31
ENDBRANCH  22  25
ENDBRANCH   9  19
TORSDOF 4
ENDMDL
MODEL 6
REMARK VINA RESULT:      -7.9      1.693      3.589
REMARK  Name = 
REMARK  6 active torsions:
REMARK  status: ('A' for Active; 'I' for Inactive)
REMARK    1  A    between atoms: C_1  and  N_2
REMARK    2  A    between atoms: C_6  and  C_7
REMARK    3  A    between atoms: C_15  and  N_16
REMARK    4  A    between atoms: N_19  and  C_20
REMARK    5  A    between atoms: C_23  and  S_24
REMARK    6  A    between atoms: S_24  and  C_25
REMARK                            x       y       z     vdW  Elec       q    Type
REMARK                         _______ _______ _______ _____ _____    ______ ____
ROOT
ATOM      1  C   UNL     1       3.929   2.930  18.635  0.00  0.00    +0.000 C 
ATOM      2  C   UNL     1       4.090   4.126  18.057  0.00  0.00    +0.000 C 
ATOM      3  C   UNL     1       4.859   4.222  16.768  0.00  0.00    +0.000 C 
ATOM      4  O   UNL     1       5.431   3.326  16.178  0.00  0.00    +0.000 OA
ATOM      5  N   UNL     1       4.743   5.545  16.382  0.00  0.00    +0.000 N 
ATOM      6  C   UNL     1       3.998   6.273  17.302  0.00  0.00    +0.000 A 
ATOM      7  C   UNL     1       3.674   7.606  17.215  0.00  0.00    +0.000 A 
ATOM      8  C   UNL     1       2.920   8.146  18.257  0.00  0.00    +0.000 A 
ATOM      9  C   UNL     1       2.526   7.377  19.374  0.00  0.00    +0.000 A 
ATOM     10  C   UNL     1       2.870   6.015  19.425  0.00  0.00    +0.000 A 
ATOM     11  C   UNL     1       3.589   5.469  18.371  0.00  0.00    +0.000 A 
ATOM     12  H   UNL     1       5.160   5.912  15.540  0.00  0.00    +0.000 HD
ENDROOT
BRANCH   1  18
ATOM     13  C   UNL     1       0.966   2.652  18.602  0.00  0.00    +0.000 C 
ATOM     14  N   UNL     1       1.811   2.615  19.773  0.00  0.00    +0.000 N 
ATOM     15  C   UNL     1       1.366   2.458  21.057  0.00  0.00    +0.000 A 
ATOM     16  C   UNL     1       2.498   2.485  21.835  0.00  0.00    +0.000 A 
ATOM     17  N   UNL     1       3.609   2.689  21.062  0.00  0.00    +0.000 NA
ATOM     18  C   UNL     1       3.182   2.753  19.818  0.00  0.00    +0.000 A 
ENDBRANCH   1  18
BRANCH   9  19
ATOM     19  N   UNL     1       1.794   7.915  20.461  0.00  0.00    +0.000 N 
ATOM     20  C   UNL     1       0.909   8.981  20.395  0.00  0.00    +0.000 C 
ATOM     21  O   UNL     1       0.619   9.595  19.375  0.00  0.00    +0.000 OA
ATOM     22  N   UNL     1       0.408   9.319  21.646  0.00  0.00    +0.000 N 
ATOM     23  H   UNL     1       1.939   7.489  21.364  0.00  0.00    +0.000 HD
ATOM     24  H   UNL     1       1.042   9.162  22.414  0.00  0.00    +0.000 HD
BRANCH  22  25
ATOM     25  C   UNL     1      -0.498  10.396  21.791  0.00  0.00    +0.000 A 
ATOM     26  C   UNL     1      -0.804  11.252  20.723  0.00  0.00    +0.000 A 
ATOM     27  C   UNL     1      -1.663  12.337  20.905  0.00  0.00    +0.000 A 
ATOM     28  C   UNL     1      -2.215  12.563  22.166  0.00  0.00    +0.000 A 
ATOM     29  C   UNL     1      -1.907  11.726  23.242  0.00  0.00    +0.000 A 
ATOM     30  C   UNL     1      -1.073  10.624  23.044  0.00  0.00    +0.000 A 
BRANCH  28  31
ATOM     31  S   UNL     1      -3.305  13.945  22.417  0.00  0.00    +0.000 S 
ATOM     32  C   UNL     1      -2.322  15.319  21.877  0.00  0.00    +0.000 C 
ATOM     33  O   UNL     1      -4.417  13.795  21.500  0.00  0.00    +0.000 OA
ATOM     34  O   UNL     1      -3.526  14.084  23.844  0.00  0.00    +0.000 OA
ENDBRANCH  28  31
ENDBRANCH  22  25
ENDBRANCH   9  19
TORSDOF 4
ENDMDL
MODEL 7
REMARK VINA RESULT:      -7.9      3.581     10.046
REMARK  Name = 
REMARK  6 active torsions:
REMARK  status: ('A' for Active; 'I' for Inactive)
REMARK    1  A    between atoms: C_1  and  N_2
REMARK    2  A    between atoms: C_6  and  C_7
REMARK    3  A    between atoms: C_15  and  N_16
REMARK    4  A    between atoms: N_19  and  C_20
REMARK    5  A    between atoms: C_23  and  S_24
REMARK    6  A    between atoms: S_24  and  C_25
REMARK                            x       y       z     vdW  Elec       q    Type
REMARK                         _______ _______ _______ _____ _____    ______ ____
ROOT
ATOM      1  C   UNL     1      -0.499  15.169  20.214  0.00  0.00    +0.000 C 
ATOM      2  C   UNL     1      -1.109  14.460  21.172  0.00  0.00    +0.000 C 
ATOM      3  C   UNL     1      -2.323  15.033  21.850  0.00  0.00    +0.000 C 
ATOM      4  O   UNL     1      -2.820  16.130  21.678  0.00  0.00    +0.000 OA
ATOM      5  N   UNL     1      -2.773  14.027  22.684  0.00  0.00    +0.000 N 
ATOM      6  C   UNL     1      -1.957  12.904  22.602  0.00  0.00    +0.000 A 
ATOM      7  C   UNL     1      -2.129  11.721  23.280  0.00  0.00    +0.000 A 
ATOM      8  C   UNL     1      -1.185  10.718  23.058  0.00  0.00    +0.000 A 
ATOM      9  C   UNL     1      -0.079  10.907  22.201  0.00  0.00    +0.000 A 
ATOM     10  C   UNL     1       0.060  12.128  21.519  0.00  0.00    +0.000 A 
ATOM     11  C   UNL     1      -0.898  13.112  21.712  0.00  0.00    +0.000 A 
ATOM     12  H   UNL     1      -3.587  14.121  23.273  0.00  0.00    +0.000 HD
ENDROOT
BRANCH   1  18
ATOM     13  C   UNL     1       2.274  16.054  20.832  0.00  0.00    +0.000 C 
ATOM     14  N   UNL     1       1.892  15.099  19.817  0.00  0.00    +0.000 N 
ATOM     15  C   UNL     1       2.759  14.461  18.973  0.00  0.00    +0.000 A 
ATOM     16  C   UNL     1       1.968  13.659  18.186  0.00  0.00    +0.000 A 
ATOM     17  N   UNL     1       0.648  13.819  18.508  0.00  0.00    +0.000 NA
ATOM     18  C   UNL     1       0.616  14.681  19.503  0.00  0.00    +0.000 A 
ENDBRANCH   1  18
BRANCH   9  19
ATOM     19  N   UNL     1       0.911   9.916  21.991  0.00  0.00    +0.000 N 
ATOM     20  C   UNL     1       0.794   8.813  21.160  0.00  0.00    +0.000 C 
ATOM     21  O   UNL     1      -0.184   8.552  20.467  0.00  0.00    +0.000 OA
ATOM     22  N   UNL     1       1.908   7.987  21.229  0.00  0.00    +0.000 N 
ATOM     23  H   UNL     1       1.775  10.020  22.503  0.00  0.00    +0.000 HD
ATOM     24  H   UNL     1       2.366   7.966  22.128  0.00  0.00    +0.000 HD
BRANCH  22  25
ATOM     25  C   UNL     1       1.970   6.796  20.466  0.00  0.00    +0.000 A 
ATOM     26  C   UNL     1       2.459   6.787  19.152  0.00  0.00    +0.000 A 
ATOM     27  C   UNL     1       2.464   5.609  18.404  0.00  0.00    +0.000 A 
ATOM     28  C   UNL     1       1.974   4.436  18.979  0.00  0.00    +0.000 A 
ATOM     29  C   UNL     1       1.471   4.435  20.283  0.00  0.00    +0.000 A 
ATOM     30  C   UNL     1       1.499   5.611  21.036  0.00  0.00    +0.000 A 
BRANCH  28  31
ATOM     31  S   UNL     1       1.966   2.928  18.038  0.00  0.00    +0.000 S 
ATOM     32  C   UNL     1       3.324   2.026  18.738  0.00  0.00    +0.000 C 
ATOM     33  O   UNL     1       0.741   2.222  18.356  0.00  0.00    +0.000 OA
ATOM     34  O   UNL     1       2.305   3.257  16.666  0.00  0.00    +0.000 OA
ENDBRANCH  28  31
ENDBRANCH  22  25
ENDBRANCH   9  19
TORSDOF 4
ENDMDL
MODEL 8
REMARK VINA RESULT:      -7.9      1.631      3.369
REMARK  Name = 
REMARK  6 active torsions:
REMARK  status: ('A' for Active; 'I' for Inactive)
REMARK    1  A    between atoms: C_1  and  N_2
REMARK    2  A    between atoms: C_6  and  C_7
REMARK    3  A    between atoms: C_15  and  N_16
REMARK    4  A    between atoms: N_19  and  C_20
REMARK    5  A    between atoms: C_23  and  S_24
REMARK    6  A    between atoms: S_24  and  C_25
REMARK                            x       y       z     vdW  Elec       q    Type
REMARK                         _______ _______ _______ _____ _____    ______ ____
ROOT
ATOM      1  C   UNL     1       3.926   2.935  18.634  0.00  0.00    +0.000 C 
ATOM      2  C   UNL     1       4.083   4.137  18.064  0.00  0.00    +0.000 C 
ATOM      3  C   UNL     1       4.851   4.245  16.776  0.00  0.00    +0.000 C 
ATOM      4  O   UNL     1       5.426   3.355  16.179  0.00  0.00    +0.000 OA
ATOM      5  N   UNL     1       4.730   5.570  16.400  0.00  0.00    +0.000 N 
ATOM      6  C   UNL     1       3.983   6.288  17.326  0.00  0.00    +0.000 A 
ATOM      7  C   UNL     1       3.654   7.621  17.250  0.00  0.00    +0.000 A 
ATOM      8  C   UNL     1       2.900   8.151  18.297  0.00  0.00    +0.000 A 
ATOM      9  C   UNL     1       2.509   7.371  19.408  0.00  0.00    +0.000 A 
ATOM     10  C   UNL     1       2.858   6.011  19.448  0.00  0.00    +0.000 A 
ATOM     11  C   UNL     1       3.577   5.475  18.390  0.00  0.00    +0.000 A 
ATOM     12  H   UNL     1       5.146   5.945  15.561  0.00  0.00    +0.000 HD
ENDROOT
BRANCH   1  18
ATOM     13  C   UNL     1       0.965   2.640  18.599  0.00  0.00    +0.000 C 
ATOM     14  N   UNL     1       1.810   2.601  19.770  0.00  0.00    +0.000 N 
ATOM     15  C   UNL     1       1.367   2.433  21.053  0.00  0.00    +0.000 A 
ATOM     16  C   UNL     1       2.499   2.463  21.831  0.00  0.00    +0.000 A 
ATOM     17  N   UNL     1       3.608   2.678  21.060  0.00  0.00    +0.000 NA
ATOM     18  C   UNL     1       3.181   2.747  19.816  0.00  0.00    +0.000 A 
ENDBRANCH   1  18
BRANCH   9  19
ATOM     19  N   UNL     1       1.775   7.899  20.499  0.00  0.00    +0.000 N 
ATOM     20  C   UNL     1       0.905   8.977  20.447  0.00  0.00    +0.000 C 
ATOM     21  O   UNL     1       0.629   9.613  19.437  0.00  0.00    +0.000 OA
ATOM     22  N   UNL     1       0.398   9.298  21.700  0.00  0.00    +0.000 N 
ATOM     23  H   UNL     1       1.909   7.455  21.395  0.00  0.00    +0.000 HD
ATOM     24  H   UNL     1       1.025   9.119  22.470  0.00  0.00    +0.000 HD
BRANCH  22  25
ATOM     25  C   UNL     1      -0.496  10.384  21.858  0.00  0.00    +0.000 A 
ATOM     26  C   UNL     1      -1.115  10.656  23.086  0.00  0.00    +0.000 A 
ATOM     27  C   UNL     1      -2.030  11.703  23.204  0.00  0.00    +0.000 A 
ATOM     28  C   UNL     1      -2.326  12.478  22.082  0.00  0.00    +0.000 A 
ATOM     29  C   UNL     1      -1.726  12.208  20.848  0.00  0.00    +0.000 A 
ATOM     30  C   UNL     1      -0.787  11.179  20.746  0.00  0.00    +0.000 A 
BRANCH  28  31
ATOM     31  S   UNL     1      -3.495  13.810  22.211  0.00  0.00    +0.000 S 
ATOM     32  C   UNL     1      -4.221  13.536  23.807  0.00  0.00    +0.000 C 
ATOM     33  O   UNL     1      -2.742  15.048  22.263  0.00  0.00    +0.000 OA
ATOM     34  O   UNL     1      -4.522  13.601  21.209  0.00  0.00    +0.000 OA
ENDBRANCH  28  31
ENDBRANCH  22  25
ENDBRANCH   9  19
TORSDOF 4
ENDMDL
MODEL 9
REMARK VINA RESULT:      -7.9      1.702      1.941
REMARK  Name = 
REMARK  6 active torsions:
REMARK  status: ('A' for Active; 'I' for Inactive)
REMARK    1  A    between atoms: C_1  and  N_2
REMARK    2  A    between atoms: C_6  and  C_7
REMARK    3  A    between atoms: C_15  and  N_16
REMARK    4  A    between atoms: N_19  and  C_20
REMARK    5  A    between atoms: C_23  and  S_24
REMARK    6  A    between atoms: S_24  and  C_25
REMARK                            x       y       z     vdW  Elec       q    Type
REMARK                         _______ _______ _______ _____ _____    ______ ____
ROOT
ATOM      1  C   UNL     1       5.921   3.898  18.711  0.00  0.00    +0.000 C 
ATOM      2  C   UNL     1       4.747   3.741  19.337  0.00  0.00    +0.000 C 
ATOM      3  C   UNL     1       4.435   2.426  19.995  0.00  0.00    +0.000 C 
ATOM      4  O   UNL     1       5.112   1.415  19.990  0.00  0.00    +0.000 OA
ATOM      5  N   UNL     1       3.228   2.626  20.638  0.00  0.00    +0.000 N 
ATOM      6  C   UNL     1       2.759   3.919  20.432  0.00  0.00    +0.000 A 
ATOM      7  C   UNL     1       1.602   4.457  20.944  0.00  0.00    +0.000 A 
ATOM      8  C   UNL     1       1.311   5.779  20.606  0.00  0.00    +0.000 A 
ATOM      9  C   UNL     1       2.144   6.534  19.751  0.00  0.00    +0.000 A 
ATOM     10  C   UNL     1       3.322   5.952  19.252  0.00  0.00    +0.000 A 
ATOM     11  C   UNL     1       3.630   4.650  19.618  0.00  0.00    +0.000 A 
ATOM     12  H   UNL     1       2.763   1.910  21.174  0.00  0.00    +0.000 HD
ENDROOT
BRANCH   1  18
ATOM     13  C   UNL     1       5.123   4.602  15.932  0.00  0.00    +0.000 C 
ATOM     14  N   UNL     1       5.910   5.421  16.825  0.00  0.00    +0.000 N 
ATOM     15  C   UNL     1       6.421   6.652  16.516  0.00  0.00    +0.000 A 
ATOM     16  C   UNL     1       7.092   7.056  17.644  0.00  0.00    +0.000 A 
ATOM     17  N   UNL     1       7.030   6.091  18.612  0.00  0.00    +0.000 NA
ATOM     18  C   UNL     1       6.303   5.115  18.111  0.00  0.00    +0.000 A 
ENDBRANCH   1  18
BRANCH   9  19
ATOM     19  N   UNL     1       1.848   7.864  19.365  0.00  0.00    +0.000 N 
ATOM     20  C   UNL     1       1.432   8.882  20.210  0.00  0.00    +0.000 C 
ATOM     21  O   UNL     1       1.283   8.776  21.422  0.00  0.00    +0.000 OA
ATOM     22  N   UNL     1       1.149  10.051  19.517  0.00  0.00    +0.000 N 
ATOM     23  H   UNL     1       1.938   8.085  18.385  0.00  0.00    +0.000 HD
ATOM     24  H   UNL     1       0.791   9.916  18.583  0.00  0.00    +0.000 HD
BRANCH  22  25
ATOM     25  C   UNL     1       0.690  11.201  20.202  0.00  0.00    +0.000 A 
ATOM     26  C   UNL     1       1.545  12.272  20.501  0.00  0.00    +0.000 A 
ATOM     27  C   UNL     1       1.080  13.373  21.222  0.00  0.00    +0.000 A 
ATOM     28  C   UNL     1      -0.249  13.397  21.645  0.00  0.00    +0.000 A 
ATOM     29  C   UNL     1      -1.108  12.331  21.366  0.00  0.00    +0.000 A 
ATOM     30  C   UNL     1      -0.644  11.247  20.616  0.00  0.00    +0.000 A 
BRANCH  28  31
ATOM     31  S   UNL     1      -0.856  14.788  22.570  0.00  0.00    +0.000 S 
ATOM     32  C   UNL     1      -2.537  14.919  22.017  0.00  0.00    +0.000 C 
ATOM     33  O   UNL     1      -0.867  14.411  23.969  0.00  0.00    +0.000 OA
ATOM     34  O   UNL     1      -0.143  15.968  22.120  0.00  0.00    +0.000 OA
ENDBRANCH  28  31
ENDBRANCH  22  25
ENDBRANCH   9  19
TORSDOF 4
ENDMDL
