MODEL 1
REMARK VINA RESULT:      -9.4      0.000      0.000
REMARK  Name = 
REMARK  7 active torsions:
REMARK  status: ('A' for Active; 'I' for Inactive)
REMARK    1  A    between atoms: C_1  and  C_2
REMARK    2  A    between atoms: C_5  and  C_6
REMARK    3  A    between atoms: C_6  and  C_8
REMARK    4  A    between atoms: C_16  and  C_17
REMARK    5  A    between atoms: C_17  and  C_18
REMARK    6  A    between atoms: C_18  and  N_19
REMARK    7  A    between atoms: C_23  and  C_24
REMARK                            x       y       z     vdW  Elec       q    Type
REMARK                         _______ _______ _______ _____ _____    ______ ____
ROOT
ATOM      1  C   UNL     1       4.522   4.785  17.096  0.00  0.00    +0.000 A 
ATOM      2  N   UNL     1       4.611   3.454  17.439  0.00  0.00    +0.000 N 
ATOM      3  C   UNL     1       3.466   3.005  18.040  0.00  0.00    +0.000 A 
ATOM      4  C   UNL     1       3.132   1.719  18.476  0.00  0.00    +0.000 A 
ATOM      5  C   UNL     1       1.865   1.538  19.037  0.00  0.00    +0.000 A 
ATOM      6  C   UNL     1       0.978   2.604  19.147  0.00  0.00    +0.000 A 
ATOM      7  C   UNL     1       1.337   3.888  18.708  0.00  0.00    +0.000 A 
ATOM      8  C   UNL     1       2.612   4.098  18.144  0.00  0.00    +0.000 A 
ATOM      9  C   UNL     1       3.295   5.235  17.589  0.00  0.00    +0.000 A 
ATOM     10  H   UNL     1       5.392   2.860  17.193  0.00  0.00    +0.000 HD
ENDROOT
BRANCH   1  11
ATOM     11  C   UNL     1       5.550   5.518  16.355  0.00  0.00    +0.000 C 
ATOM     12  O   UNL     1       5.578   5.552  15.127  0.00  0.00    +0.000 OA
BRANCH  11  17
ATOM     13  C   UNL     1       8.250   9.258  17.857  0.00  0.00    +0.000 C 
ATOM     14  C   UNL     1       7.813   7.849  17.895  0.00  0.00    +0.000 A 
ATOM     15  C   UNL     1       8.150   6.758  18.664  0.00  0.00    +0.000 A 
ATOM     16  C   UNL     1       7.355   5.682  18.195  0.00  0.00    +0.000 A 
ATOM     17  C   UNL     1       6.570   6.173  17.166  0.00  0.00    +0.000 A 
ATOM     18  O   UNL     1       6.866   7.501  16.987  0.00  0.00    +0.000 OA
ENDBRANCH  11  17
ENDBRANCH   1  11
BRANCH   9  19
ATOM     19  C   UNL     1       2.738   6.631  17.478  0.00  0.00    +0.000 C 
BRANCH  19  20
ATOM     20  C   UNL     1       3.181   7.517  18.647  0.00  0.00    +0.000 C 
BRANCH  20  21
ATOM     21  N   UNL     1       2.467   7.166  19.883  0.00  0.00    +0.000 N 
ATOM     22  C   UNL     1       1.592   8.191  20.303  0.00  0.00    +0.000 A 
ATOM     23  C   UNL     1       0.862   8.009  21.472  0.00  0.00    +0.000 A 
ATOM     24  C   UNL     1       0.006   9.024  21.915  0.00  0.00    +0.000 A 
ATOM     25  C   UNL     1      -0.115  10.219  21.197  0.00  0.00    +0.000 A 
ATOM     26  C   UNL     1       0.623  10.282  20.021  0.00  0.00    +0.000 A 
ATOM     27  N   UNL     1       1.459   9.312  19.570  0.00  0.00    +0.000 NA
ATOM     28  H   UNL     1       3.113   6.975  20.645  0.00  0.00    +0.000 HD
BRANCH  25  29
ATOM     29  C   UNL     1      -0.952  11.347  21.634  0.00  0.00    +0.000 A 
ATOM     30  C   UNL     1      -1.566  11.386  22.885  0.00  0.00    +0.000 A 
ATOM     31  C   UNL     1      -2.329  12.497  23.239  0.00  0.00    +0.000 A 
ATOM     32  C   UNL     1      -2.461  13.545  22.339  0.00  0.00    +0.000 A 
ATOM     33  C   UNL     1      -1.814  13.441  21.121  0.00  0.00    +0.000 A 
ATOM     34  N   UNL     1      -1.066  12.376  20.756  0.00  0.00    +0.000 NA
ENDBRANCH  25  29
ENDBRANCH  20  21
ENDBRANCH  19  20
ENDBRANCH   9  19
TORSDOF 6
ENDMDL
MODEL 2
REMARK VINA RESULT:      -9.4      1.790      2.368
REMARK  Name = 
REMARK  7 active torsions:
REMARK  status: ('A' for Active; 'I' for Inactive)
REMARK    1  A    between atoms: C_1  and  C_2
REMARK    2  A    between atoms: C_5  and  C_6
REMARK    3  A    between atoms: C_6  and  C_8
REMARK    4  A    between atoms: C_16  and  C_17
REMARK    5  A    between atoms: C_17  and  C_18
REMARK    6  A    between atoms: C_18  and  N_19
REMARK    7  A    between atoms: C_23  and  C_24
REMARK                            x       y       z     vdW  Elec       q    Type
REMARK                         _______ _______ _______ _____ _____    ______ ____
ROOT
ATOM      1  C   UNL     1       4.332   5.453  18.218  0.00  0.00    +0.000 A 
ATOM      2  N   UNL     1       4.673   4.338  18.951  0.00  0.00    +0.000 N 
ATOM      3  C   UNL     1       3.613   3.857  19.671  0.00  0.00    +0.000 A 
ATOM      4  C   UNL     1       3.527   2.722  20.484  0.00  0.00    +0.000 A 
ATOM      5  C   UNL     1       2.295   2.454  21.086  0.00  0.00    +0.000 A 
ATOM      6  C   UNL     1       1.203   3.289  20.873  0.00  0.00    +0.000 A 
ATOM      7  C   UNL     1       1.314   4.427  20.059  0.00  0.00    +0.000 A 
ATOM      8  C   UNL     1       2.548   4.724  19.446  0.00  0.00    +0.000 A 
ATOM      9  C   UNL     1       3.013   5.759  18.562  0.00  0.00    +0.000 A 
ATOM     10  H   UNL     1       5.572   3.878  18.891  0.00  0.00    +0.000 HD
ENDROOT
BRANCH   1  11
ATOM     11  C   UNL     1       5.227   6.130  17.278  0.00  0.00    +0.000 C 
ATOM     12  O   UNL     1       5.590   7.293  17.435  0.00  0.00    +0.000 OA
BRANCH  11  17
ATOM     13  C   UNL     1       7.805   5.207  13.273  0.00  0.00    +0.000 C 
ATOM     14  C   UNL     1       6.789   4.877  14.292  0.00  0.00    +0.000 A 
ATOM     15  C   UNL     1       5.963   3.798  14.512  0.00  0.00    +0.000 A 
ATOM     16  C   UNL     1       5.216   4.102  15.678  0.00  0.00    +0.000 A 
ATOM     17  C   UNL     1       5.629   5.350  16.113  0.00  0.00    +0.000 A 
ATOM     18  O   UNL     1       6.588   5.817  15.250  0.00  0.00    +0.000 OA
ENDBRANCH  11  17
ENDBRANCH   1  11
BRANCH   9  19
ATOM     19  C   UNL     1       2.188   6.905  18.036  0.00  0.00    +0.000 C 
BRANCH  19  20
ATOM     20  C   UNL     1       2.292   8.143  18.934  0.00  0.00    +0.000 C 
BRANCH  20  21
ATOM     21  N   UNL     1       1.932   7.826  20.323  0.00  0.00    +0.000 N 
ATOM     22  C   UNL     1       1.149   8.839  20.916  0.00  0.00    +0.000 A 
ATOM     23  C   UNL     1       0.749   8.687  22.238  0.00  0.00    +0.000 A 
ATOM     24  C   UNL     1      -0.010   9.692  22.850  0.00  0.00    +0.000 A 
ATOM     25  C   UNL     1      -0.362  10.848  22.144  0.00  0.00    +0.000 A 
ATOM     26  C   UNL     1       0.049  10.881  20.816  0.00  0.00    +0.000 A 
ATOM     27  N   UNL     1       0.785   9.920  20.201  0.00  0.00    +0.000 NA
ATOM     28  H   UNL     1       2.759   7.692  20.900  0.00  0.00    +0.000 HD
BRANCH  25  29
ATOM     29  C   UNL     1      -1.108  11.966  22.740  0.00  0.00    +0.000 A 
ATOM     30  C   UNL     1      -2.440  11.852  23.139  0.00  0.00    +0.000 A 
ATOM     31  C   UNL     1      -3.078  12.949  23.715  0.00  0.00    +0.000 A 
ATOM     32  C   UNL     1      -2.375  14.134  23.882  0.00  0.00    +0.000 A 
ATOM     33  C   UNL     1      -1.054  14.169  23.473  0.00  0.00    +0.000 A 
ATOM     34  N   UNL     1      -0.412  13.119  22.915  0.00  0.00    +0.000 NA
ENDBRANCH  25  29
ENDBRANCH  20  21
ENDBRANCH  19  20
ENDBRANCH   9  19
TORSDOF 6
ENDMDL
MODEL 3
REMARK VINA RESULT:      -9.3      2.018      3.188
REMARK  Name = 
REMARK  7 active torsions:
REMARK  status: ('A' for Active; 'I' for Inactive)
REMARK    1  A    between atoms: C_1  and  C_2
REMARK    2  A    between atoms: C_5  and  C_6
REMARK    3  A    between atoms: C_6  and  C_8
REMARK    4  A    between atoms: C_16  and  C_17
REMARK    5  A    between atoms: C_17  and  C_18
REMARK    6  A    between atoms: C_18  and  N_19
REMARK    7  A    between atoms: C_23  and  C_24
REMARK                            x       y       z     vdW  Elec       q    Type
REMARK                         _______ _______ _______ _____ _____    ______ ____
ROOT
ATOM      1  C   UNL     1       5.366   4.589  16.491  0.00  0.00    +0.000 A 
ATOM      2  N   UNL     1       5.067   3.270  16.751  0.00  0.00    +0.000 N 
ATOM      3  C   UNL     1       3.917   3.142  17.482  0.00  0.00    +0.000 A 
ATOM      4  C   UNL     1       3.246   1.986  17.896  0.00  0.00    +0.000 A 
ATOM      5  C   UNL     1       2.062   2.154  18.618  0.00  0.00    +0.000 A 
ATOM      6  C   UNL     1       1.577   3.426  18.903  0.00  0.00    +0.000 A 
ATOM      7  C   UNL     1       2.270   4.572  18.484  0.00  0.00    +0.000 A 
ATOM      8  C   UNL     1       3.471   4.431  17.759  0.00  0.00    +0.000 A 
ATOM      9  C   UNL     1       4.410   5.348  17.172  0.00  0.00    +0.000 A 
ATOM     10  H   UNL     1       5.586   2.489  16.370  0.00  0.00    +0.000 HD
ENDROOT
BRANCH   1  11
ATOM     11  C   UNL     1       6.479   5.035  15.651  0.00  0.00    +0.000 C 
ATOM     12  O   UNL     1       7.357   5.787  16.067  0.00  0.00    +0.000 OA
BRANCH  11  17
ATOM     13  C   UNL     1       4.444   3.148  11.672  0.00  0.00    +0.000 C 
ATOM     14  C   UNL     1       5.573   3.723  12.428  0.00  0.00    +0.000 A 
ATOM     15  C   UNL     1       6.878   4.032  12.120  0.00  0.00    +0.000 A 
ATOM     16  C   UNL     1       7.448   4.568  13.303  0.00  0.00    +0.000 A 
ATOM     17  C   UNL     1       6.459   4.564  14.271  0.00  0.00    +0.000 A 
ATOM     18  O   UNL     1       5.316   4.036  13.724  0.00  0.00    +0.000 OA
ENDBRANCH  11  17
ENDBRANCH   1  11
BRANCH   9  19
ATOM     19  C   UNL     1       4.315   6.852  17.209  0.00  0.00    +0.000 C 
BRANCH  19  20
ATOM     20  C   UNL     1       3.068   7.325  17.964  0.00  0.00    +0.000 C 
BRANCH  20  21
ATOM     21  N   UNL     1       2.626   8.644  17.489  0.00  0.00    +0.000 N 
ATOM     22  C   UNL     1       1.772   9.285  18.412  0.00  0.00    +0.000 A 
ATOM     23  C   UNL     1       1.258  10.535  18.089  0.00  0.00    +0.000 A 
ATOM     24  C   UNL     1       0.392  11.176  18.983  0.00  0.00    +0.000 A 
ATOM     25  C   UNL     1       0.037  10.568  20.193  0.00  0.00    +0.000 A 
ATOM     26  C   UNL     1       0.642   9.340  20.438  0.00  0.00    +0.000 A 
ATOM     27  N   UNL     1       1.484   8.699  19.588  0.00  0.00    +0.000 NA
ATOM     28  H   UNL     1       2.132   8.574  16.603  0.00  0.00    +0.000 HD
BRANCH  25  29
ATOM     29  C   UNL     1      -0.909  11.158  21.151  0.00  0.00    +0.000 A 
ATOM     30  C   UNL     1      -0.872  10.874  22.516  0.00  0.00    +0.000 A 
ATOM     31  C   UNL     1      -1.788  11.487  23.368  0.00  0.00    +0.000 A 
ATOM     32  C   UNL     1      -2.719  12.371  22.842  0.00  0.00    +0.000 A 
ATOM     33  C   UNL     1      -2.689  12.614  21.481  0.00  0.00    +0.000 A 
ATOM     34  N   UNL     1      -1.808  12.035  20.634  0.00  0.00    +0.000 NA
ENDBRANCH  25  29
ENDBRANCH  20  21
ENDBRANCH  19  20
ENDBRANCH   9  19
TORSDOF 6
ENDMDL
MODEL 4
REMARK VINA RESULT:      -9.3      2.000      2.837
REMARK  Name = 
REMARK  7 active torsions:
REMARK  status: ('A' for Active; 'I' for Inactive)
REMARK    1  A    between atoms: C_1  and  C_2
REMARK    2  A    between atoms: C_5  and  C_6
REMARK    3  A    between atoms: C_6  and  C_8
REMARK    4  A    between atoms: C_16  and  C_17
REMARK    5  A    between atoms: C_17  and  C_18
REMARK    6  A    between atoms: C_18  and  N_19
REMARK    7  A    between atoms: C_23  and  C_24
REMARK                            x       y       z     vdW  Elec       q    Type
REMARK                         _______ _______ _______ _____ _____    ______ ____
ROOT
ATOM      1  C   UNL     1       5.351   4.344  18.772  0.00  0.00    +0.000 A 
ATOM      2  N   UNL     1       5.075   3.183  19.461  0.00  0.00    +0.000 N 
ATOM      3  C   UNL     1       3.856   3.235  20.080  0.00  0.00    +0.000 A 
ATOM      4  C   UNL     1       3.187   2.254  20.819  0.00  0.00    +0.000 A 
ATOM      5  C   UNL     1       1.923   2.576  21.320  0.00  0.00    +0.000 A 
ATOM      6  C   UNL     1       1.362   3.825  21.083  0.00  0.00    +0.000 A 
ATOM      7  C   UNL     1       2.053   4.798  20.344  0.00  0.00    +0.000 A 
ATOM      8  C   UNL     1       3.333   4.501  19.833  0.00  0.00    +0.000 A 
ATOM      9  C   UNL     1       4.297   5.220  19.043  0.00  0.00    +0.000 A 
ATOM     10  H   UNL     1       5.663   2.361  19.435  0.00  0.00    +0.000 HD
ENDROOT
BRANCH   1  11
ATOM     11  C   UNL     1       6.534   4.547  17.934  0.00  0.00    +0.000 C 
ATOM     12  O   UNL     1       7.643   4.779  18.407  0.00  0.00    +0.000 OA
BRANCH  11  17
ATOM     13  C   UNL     1       7.757   5.029  13.264  0.00  0.00    +0.000 C 
ATOM     14  C   UNL     1       6.820   4.689  14.353  0.00  0.00    +0.000 A 
ATOM     15  C   UNL     1       5.530   4.212  14.397  0.00  0.00    +0.000 A 
ATOM     16  C   UNL     1       5.198   4.094  15.770  0.00  0.00    +0.000 A 
ATOM     17  C   UNL     1       6.306   4.500  16.494  0.00  0.00    +0.000 A 
ATOM     18  O   UNL     1       7.291   4.870  15.613  0.00  0.00    +0.000 OA
ENDBRANCH  11  17
ENDBRANCH   1  11
BRANCH   9  19
ATOM     19  C   UNL     1       4.140   6.628  18.528  0.00  0.00    +0.000 C 
BRANCH  19  20
ATOM     20  C   UNL     1       2.755   6.860  17.915  0.00  0.00    +0.000 C 
BRANCH  20  21
ATOM     21  N   UNL     1       2.596   8.251  17.468  0.00  0.00    +0.000 N 
ATOM     22  C   UNL     1       1.964   9.056  18.440  0.00  0.00    +0.000 A 
ATOM     23  C   UNL     1       1.728  10.394  18.149  0.00  0.00    +0.000 A 
ATOM     24  C   UNL     1       1.082  11.202  19.094  0.00  0.00    +0.000 A 
ATOM     25  C   UNL     1       0.669  10.672  20.322  0.00  0.00    +0.000 A 
ATOM     26  C   UNL     1       0.994   9.337  20.531  0.00  0.00    +0.000 A 
ATOM     27  N   UNL     1       1.619   8.534  19.632  0.00  0.00    +0.000 NA
ATOM     28  H   UNL     1       2.049   8.307  16.613  0.00  0.00    +0.000 HD
BRANCH  25  29
ATOM     29  C   UNL     1      -0.061  11.448  21.334  0.00  0.00    +0.000 A 
ATOM     30  C   UNL     1       0.062  12.832  21.455  0.00  0.00    +0.000 A 
ATOM     31  C   UNL     1      -0.678  13.503  22.426  0.00  0.00    +0.000 A 
ATOM     32  C   UNL     1      -1.524  12.781  23.255  0.00  0.00    +0.000 A 
ATOM     33  C   UNL     1      -1.604  11.413  23.071  0.00  0.00    +0.000 A 
ATOM     34  N   UNL     1      -0.900  10.739  22.134  0.00  0.00    +0.000 NA
ENDBRANCH  25  29
ENDBRANCH  20  21
ENDBRANCH  19  20
ENDBRANCH   9  19
TORSDOF 6
ENDMDL
MODEL 5
REMARK VINA RESULT:      -9.3      1.214      1.641
REMARK  Name = 
REMARK  7 active torsions:
REMARK  status: ('A' for Active; 'I' for Inactive)
REMARK    1  A    between atoms: C_1  and  C_2
REMARK    2  A    between atoms: C_5  and  C_6
REMARK    3  A    between atoms: C_6  and  C_8
REMARK    4  A    between atoms: C_16  and  C_17
REMARK    5  A    between atoms: C_17  and  C_18
REMARK    6  A    between atoms: C_18  and  N_19
REMARK    7  A    between atoms: C_23  and  C_24
REMARK                            x       y       z     vdW  Elec       q    Type
REMARK                         _______ _______ _______ _____ _____    ______ ____
ROOT
ATOM      1  C   UNL     1       4.403   5.333  17.042  0.00  0.00    +0.000 A 
ATOM      2  N   UNL     1       4.199   3.978  16.899  0.00  0.00    +0.000 N 
ATOM      3  C   UNL     1       3.129   3.542  17.631  0.00  0.00    +0.000 A 
ATOM      4  C   UNL     1       2.560   2.267  17.710  0.00  0.00    +0.000 A 
ATOM      5  C   UNL     1       1.438   2.112  18.529  0.00  0.00    +0.000 A 
ATOM      6  C   UNL     1       0.915   3.193  19.229  0.00  0.00    +0.000 A 
ATOM      7  C   UNL     1       1.505   4.463  19.140  0.00  0.00    +0.000 A 
ATOM      8  C   UNL     1       2.642   4.646  18.326  0.00  0.00    +0.000 A 
ATOM      9  C   UNL     1       3.474   5.770  17.990  0.00  0.00    +0.000 A 
ATOM     10  H   UNL     1       4.722   3.395  16.258  0.00  0.00    +0.000 HD
ENDROOT
BRANCH   1  11
ATOM     11  C   UNL     1       5.410   6.100  16.309  0.00  0.00    +0.000 C 
ATOM     12  O   UNL     1       5.358   6.262  15.092  0.00  0.00    +0.000 OA
BRANCH  11  17
ATOM     13  C   UNL     1       8.419   9.542  17.932  0.00  0.00    +0.000 C 
ATOM     14  C   UNL     1       7.895   8.163  17.889  0.00  0.00    +0.000 A 
ATOM     15  C   UNL     1       8.200   6.998  18.555  0.00  0.00    +0.000 A 
ATOM     16  C   UNL     1       7.315   6.010  18.051  0.00  0.00    +0.000 A 
ATOM     17  C   UNL     1       6.511   6.627  17.108  0.00  0.00    +0.000 A 
ATOM     18  O   UNL     1       6.882   7.945  17.012  0.00  0.00    +0.000 OA
ENDBRANCH  11  17
ENDBRANCH   1  11
BRANCH   9  19
ATOM     19  C   UNL     1       3.303   7.177  18.501  0.00  0.00    +0.000 C 
BRANCH  19  20
ATOM     20  C   UNL     1       2.071   7.858  17.895  0.00  0.00    +0.000 C 
BRANCH  20  21
ATOM     21  N   UNL     1       2.278   9.305  17.750  0.00  0.00    +0.000 N 
ATOM     22  C   UNL     1       1.479  10.051  18.642  0.00  0.00    +0.000 A 
ATOM     23  C   UNL     1       1.554  11.439  18.606  0.00  0.00    +0.000 A 
ATOM     24  C   UNL     1       0.752  12.196  19.469  0.00  0.00    +0.000 A 
ATOM     25  C   UNL     1      -0.126  11.568  20.361  0.00  0.00    +0.000 A 
ATOM     26  C   UNL     1      -0.090  10.178  20.348  0.00  0.00    +0.000 A 
ATOM     27  N   UNL     1       0.678   9.423  19.522  0.00  0.00    +0.000 NA
ATOM     28  H   UNL     1       2.067   9.618  16.805  0.00  0.00    +0.000 HD
BRANCH  25  29
ATOM     29  C   UNL     1      -1.034  12.301  21.255  0.00  0.00    +0.000 A 
ATOM     30  C   UNL     1      -2.355  12.591  20.911  0.00  0.00    +0.000 A 
ATOM     31  C   UNL     1      -3.165  13.272  21.818  0.00  0.00    +0.000 A 
ATOM     32  C   UNL     1      -2.642  13.647  23.047  0.00  0.00    +0.000 A 
ATOM     33  C   UNL     1      -1.328  13.316  23.323  0.00  0.00    +0.000 A 
ATOM     34  N   UNL     1      -0.523  12.653  22.463  0.00  0.00    +0.000 NA
ENDBRANCH  25  29
ENDBRANCH  20  21
ENDBRANCH  19  20
ENDBRANCH   9  19
TORSDOF 6
ENDMDL
MODEL 6
REMARK VINA RESULT:      -9.3      1.793      2.737
REMARK  Name = 
REMARK  7 active torsions:
REMARK  status: ('A' for Active; 'I' for Inactive)
REMARK    1  A    between atoms: C_1  and  C_2
REMARK    2  A    between atoms: C_5  and  C_6
REMARK    3  A    between atoms: C_6  and  C_8
REMARK    4  A    between atoms: C_16  and  C_17
REMARK    5  A    between atoms: C_17  and  C_18
REMARK    6  A    between atoms: C_18  and  N_19
REMARK    7  A    between atoms: C_23  and  C_24
REMARK                            x       y       z     vdW  Elec       q    Type
REMARK                         _______ _______ _______ _____ _____    ______ ____
ROOT
ATOM      1  C   UNL     1       5.525   4.871  18.111  0.00  0.00    +0.000 A 
ATOM      2  N   UNL     1       5.477   3.736  18.891  0.00  0.00    +0.000 N 
ATOM      3  C   UNL     1       4.250   3.569  19.473  0.00  0.00    +0.000 A 
ATOM      4  C   UNL     1       3.778   2.526  20.277  0.00  0.00    +0.000 A 
ATOM      5  C   UNL     1       2.455   2.602  20.718  0.00  0.00    +0.000 A 
ATOM      6  C   UNL     1       1.647   3.676  20.361  0.00  0.00    +0.000 A 
ATOM      7  C   UNL     1       2.143   4.715  19.558  0.00  0.00    +0.000 A 
ATOM      8  C   UNL     1       3.477   4.666  19.106  0.00  0.00    +0.000 A 
ATOM      9  C   UNL     1       4.296   5.514  18.281  0.00  0.00    +0.000 A 
ATOM     10  H   UNL     1       6.229   3.062  18.950  0.00  0.00    +0.000 HD
ENDROOT
BRANCH   1  11
ATOM     11  C   UNL     1       6.670   5.261  17.288  0.00  0.00    +0.000 C 
ATOM     12  O   UNL     1       7.618   5.900  17.739  0.00  0.00    +0.000 OA
BRANCH  11  17
ATOM     13  C   UNL     1       7.984   5.391  12.620  0.00  0.00    +0.000 C 
ATOM     14  C   UNL     1       7.170   4.894  13.746  0.00  0.00    +0.000 A 
ATOM     15  C   UNL     1       6.174   3.954  13.871  0.00  0.00    +0.000 A 
ATOM     16  C   UNL     1       5.803   3.948  15.240  0.00  0.00    +0.000 A 
ATOM     17  C   UNL     1       6.598   4.882  15.882  0.00  0.00    +0.000 A 
ATOM     18  O   UNL     1       7.427   5.461  14.953  0.00  0.00    +0.000 OA
ENDBRANCH  11  17
ENDBRANCH   1  11
BRANCH   9  19
ATOM     19  C   UNL     1       3.862   6.809  17.643  0.00  0.00    +0.000 C 
BRANCH  19  20
ATOM     20  C   UNL     1       2.754   7.497  18.448  0.00  0.00    +0.000 C 
BRANCH  20  21
ATOM     21  N   UNL     1       2.424   8.813  17.884  0.00  0.00    +0.000 N 
ATOM     22  C   UNL     1       1.523   9.532  18.698  0.00  0.00    +0.000 A 
ATOM     23  C   UNL     1       1.102  10.790  18.281  0.00  0.00    +0.000 A 
ATOM     24  C   UNL     1       0.192  11.509  19.065  0.00  0.00    +0.000 A 
ATOM     25  C   UNL     1      -0.300  10.970  20.259  0.00  0.00    +0.000 A 
ATOM     26  C   UNL     1       0.218   9.728  20.608  0.00  0.00    +0.000 A 
ATOM     27  N   UNL     1       1.100   9.012  19.865  0.00  0.00    +0.000 NA
ATOM     28  H   UNL     1       2.008   8.727  16.959  0.00  0.00    +0.000 HD
BRANCH  25  29
ATOM     29  C   UNL     1      -1.298  11.645  21.102  0.00  0.00    +0.000 A 
ATOM     30  C   UNL     1      -2.218  12.561  20.592  0.00  0.00    +0.000 A 
ATOM     31  C   UNL     1      -3.148  13.146  21.448  0.00  0.00    +0.000 A 
ATOM     32  C   UNL     1      -3.142  12.806  22.793  0.00  0.00    +0.000 A 
ATOM     33  C   UNL     1      -2.209  11.883  23.226  0.00  0.00    +0.000 A 
ATOM     34  N   UNL     1      -1.298  11.297  22.415  0.00  0.00    +0.000 NA
ENDBRANCH  25  29
ENDBRANCH  20  21
ENDBRANCH  19  20
ENDBRANCH   9  19
TORSDOF 6
ENDMDL
MODEL 7
REMARK VINA RESULT:      -9.3      2.321      2.764
REMARK  Name = 
REMARK  7 active torsions:
REMARK  status: ('A' for Active; 'I' for Inactive)
REMARK    1  A    between atoms: C_1  and  C_2
REMARK    2  A    between atoms: C_5  and  C_6
REMARK    3  A    between atoms: C_6  and  C_8
REMARK    4  A    between atoms: C_16  and  C_17
REMARK    5  A    between atoms: C_17  and  C_18
REMARK    6  A    between atoms: C_18  and  N_19
REMARK    7  A    between atoms: C_23  and  C_24
REMARK                            x       y       z     vdW  Elec       q    Type
REMARK                         _______ _______ _______ _____ _____    ______ ____
ROOT
ATOM      1  C   UNL     1       4.228   5.622  17.154  0.00  0.00    +0.000 A 
ATOM      2  N   UNL     1       4.091   4.265  16.960  0.00  0.00    +0.000 N 
ATOM      3  C   UNL     1       3.055   3.748  17.688  0.00  0.00    +0.000 A 
ATOM      4  C   UNL     1       2.552   2.443  17.724  0.00  0.00    +0.000 A 
ATOM      5  C   UNL     1       1.452   2.199  18.550  0.00  0.00    +0.000 A 
ATOM      6  C   UNL     1       0.885   3.225  19.299  0.00  0.00    +0.000 A 
ATOM      7  C   UNL     1       1.409   4.526  19.253  0.00  0.00    +0.000 A 
ATOM      8  C   UNL     1       2.523   4.797  18.432  0.00  0.00    +0.000 A 
ATOM      9  C   UNL     1       3.292   5.974  18.130  0.00  0.00    +0.000 A 
ATOM     10  H   UNL     1       4.633   3.735  16.290  0.00  0.00    +0.000 HD
ENDROOT
BRANCH   1  11
ATOM     11  C   UNL     1       5.184   6.467  16.437  0.00  0.00    +0.000 C 
ATOM     12  O   UNL     1       5.024   6.795  15.265  0.00  0.00    +0.000 OA
BRANCH  11  17
ATOM     13  C   UNL     1       8.538   9.577  18.054  0.00  0.00    +0.000 C 
ATOM     14  C   UNL     1       7.910   8.245  17.968  0.00  0.00    +0.000 A 
ATOM     15  C   UNL     1       8.165   7.022  18.545  0.00  0.00    +0.000 A 
ATOM     16  C   UNL     1       7.179   6.134  18.045  0.00  0.00    +0.000 A 
ATOM     17  C   UNL     1       6.368   6.864  17.192  0.00  0.00    +0.000 A 
ATOM     18  O   UNL     1       6.832   8.155  17.147  0.00  0.00    +0.000 OA
ENDBRANCH  11  17
ENDBRANCH   1  11
BRANCH   9  19
ATOM     19  C   UNL     1       3.058   7.350  18.697  0.00  0.00    +0.000 C 
BRANCH  19  20
ATOM     20  C   UNL     1       2.188   8.208  17.772  0.00  0.00    +0.000 C 
BRANCH  20  21
ATOM     21  N   UNL     1       2.110   9.596  18.249  0.00  0.00    +0.000 N 
ATOM     22  C   UNL     1       0.784  10.079  18.272  0.00  0.00    +0.000 A 
ATOM     23  C   UNL     1       0.556  11.387  18.683  0.00  0.00    +0.000 A 
ATOM     24  C   UNL     1      -0.751  11.890  18.691  0.00  0.00    +0.000 A 
ATOM     25  C   UNL     1      -1.825  11.091  18.283  0.00  0.00    +0.000 A 
ATOM     26  C   UNL     1      -1.494   9.786  17.935  0.00  0.00    +0.000 A 
ATOM     27  N   UNL     1      -0.236   9.275  17.920  0.00  0.00    +0.000 NA
ATOM     28  H   UNL     1       2.660  10.222  17.665  0.00  0.00    +0.000 HD
BRANCH  25  29
ATOM     29  C   UNL     1      -3.212  11.571  18.214  0.00  0.00    +0.000 A 
ATOM     30  C   UNL     1      -3.868  12.137  19.308  0.00  0.00    +0.000 A 
ATOM     31  C   UNL     1      -5.178  12.589  19.163  0.00  0.00    +0.000 A 
ATOM     32  C   UNL     1      -5.805  12.468  17.931  0.00  0.00    +0.000 A 
ATOM     33  C   UNL     1      -5.090  11.907  16.889  0.00  0.00    +0.000 A 
ATOM     34  N   UNL     1      -3.818  11.465  17.003  0.00  0.00    +0.000 NA
ENDBRANCH  25  29
ENDBRANCH  20  21
ENDBRANCH  19  20
ENDBRANCH   9  19
TORSDOF 6
ENDMDL
MODEL 8
REMARK VINA RESULT:      -9.3      1.605      2.274
REMARK  Name = 
REMARK  7 active torsions:
REMARK  status: ('A' for Active; 'I' for Inactive)
REMARK    1  A    between atoms: C_1  and  C_2
REMARK    2  A    between atoms: C_5  and  C_6
REMARK    3  A    between atoms: C_6  and  C_8
REMARK    4  A    between atoms: C_16  and  C_17
REMARK    5  A    between atoms: C_17  and  C_18
REMARK    6  A    between atoms: C_18  and  N_19
REMARK    7  A    between atoms: C_23  and  C_24
REMARK                            x       y       z     vdW  Elec       q    Type
REMARK                         _______ _______ _______ _____ _____    ______ ____
ROOT
ATOM      1  C   UNL     1       5.349   4.513  18.240  0.00  0.00    +0.000 A 
ATOM      2  N   UNL     1       5.241   3.537  19.206  0.00  0.00    +0.000 N 
ATOM      3  C   UNL     1       3.946   3.367  19.617  0.00  0.00    +0.000 A 
ATOM      4  C   UNL     1       3.411   2.448  20.525  0.00  0.00    +0.000 A 
ATOM      5  C   UNL     1       2.030   2.482  20.736  0.00  0.00    +0.000 A 
ATOM      6  C   UNL     1       1.230   3.397  20.060  0.00  0.00    +0.000 A 
ATOM      7  C   UNL     1       1.789   4.315  19.158  0.00  0.00    +0.000 A 
ATOM      8  C   UNL     1       3.181   4.306  18.931  0.00  0.00    +0.000 A 
ATOM      9  C   UNL     1       4.073   5.062  18.093  0.00  0.00    +0.000 A 
ATOM     10  H   UNL     1       6.012   2.956  19.508  0.00  0.00    +0.000 HD
ENDROOT
BRANCH   1  11
ATOM     11  C   UNL     1       6.590   4.850  17.541  0.00  0.00    +0.000 C 
ATOM     12  O   UNL     1       7.557   5.342  18.117  0.00  0.00    +0.000 OA
BRANCH  11  17
ATOM     13  C   UNL     1       8.053   5.525  12.965  0.00  0.00    +0.000 C 
ATOM     14  C   UNL     1       7.238   4.867  14.004  0.00  0.00    +0.000 A 
ATOM     15  C   UNL     1       6.305   3.854  13.997  0.00  0.00    +0.000 A 
ATOM     16  C   UNL     1       5.889   3.689  15.342  0.00  0.00    +0.000 A 
ATOM     17  C   UNL     1       6.594   4.607  16.103  0.00  0.00    +0.000 A 
ATOM     18  O   UNL     1       7.411   5.328  15.269  0.00  0.00    +0.000 OA
ENDBRANCH  11  17
ENDBRANCH   1  11
BRANCH   9  19
ATOM     19  C   UNL     1       3.673   6.176  17.160  0.00  0.00    +0.000 C 
BRANCH  19  20
ATOM     20  C   UNL     1       3.276   7.444  17.923  0.00  0.00    +0.000 C 
BRANCH  20  21
ATOM     21  N   UNL     1       2.878   7.133  19.303  0.00  0.00    +0.000 N 
ATOM     22  C   UNL     1       1.939   8.057  19.808  0.00  0.00    +0.000 A 
ATOM     23  C   UNL     1       1.484   7.902  21.113  0.00  0.00    +0.000 A 
ATOM     24  C   UNL     1       0.568   8.822  21.638  0.00  0.00    +0.000 A 
ATOM     25  C   UNL     1       0.113   9.896  20.864  0.00  0.00    +0.000 A 
ATOM     26  C   UNL     1       0.595   9.934  19.561  0.00  0.00    +0.000 A 
ATOM     27  N   UNL     1       1.482   9.055  19.028  0.00  0.00    +0.000 NA
ATOM     28  H   UNL     1       3.680   7.129  19.929  0.00  0.00    +0.000 HD
BRANCH  25  29
ATOM     29  C   UNL     1      -0.803  10.929  21.370  0.00  0.00    +0.000 A 
ATOM     30  C   UNL     1      -1.134  11.044  22.720  0.00  0.00    +0.000 A 
ATOM     31  C   UNL     1      -1.995  12.061  23.129  0.00  0.00    +0.000 A 
ATOM     32  C   UNL     1      -2.506  12.940  22.185  0.00  0.00    +0.000 A 
ATOM     33  C   UNL     1      -2.125  12.771  20.866  0.00  0.00    +0.000 A 
ATOM     34  N   UNL     1      -1.289  11.796  20.444  0.00  0.00    +0.000 NA
ENDBRANCH  25  29
ENDBRANCH  20  21
ENDBRANCH  19  20
ENDBRANCH   9  19
TORSDOF 6
ENDMDL
MODEL 9
REMARK VINA RESULT:      -9.2      1.141      1.149
REMARK  Name = 
REMARK  7 active torsions:
REMARK  status: ('A' for Active; 'I' for Inactive)
REMARK    1  A    between atoms: C_1  and  C_2
REMARK    2  A    between atoms: C_5  and  C_6
REMARK    3  A    between atoms: C_6  and  C_8
REMARK    4  A    between atoms: C_16  and  C_17
REMARK    5  A    between atoms: C_17  and  C_18
REMARK    6  A    between atoms: C_18  and  N_19
REMARK    7  A    between atoms: C_23  and  C_24
REMARK                            x       y       z     vdW  Elec       q    Type
REMARK                         _______ _______ _______ _____ _____    ______ ____
ROOT
ATOM      1  C   UNL     1       4.343   4.579  18.300  0.00  0.00    +0.000 A 
ATOM      2  N   UNL     1       4.587   3.558  19.192  0.00  0.00    +0.000 N 
ATOM      3  C   UNL     1       3.494   3.287  19.969  0.00  0.00    +0.000 A 
ATOM      4  C   UNL     1       3.312   2.297  20.940  0.00  0.00    +0.000 A 
ATOM      5  C   UNL     1       2.065   2.232  21.567  0.00  0.00    +0.000 A 
ATOM      6  C   UNL     1       1.052   3.121  21.227  0.00  0.00    +0.000 A 
ATOM      7  C   UNL     1       1.258   4.111  20.254  0.00  0.00    +0.000 A 
ATOM      8  C   UNL     1       2.509   4.203  19.611  0.00  0.00    +0.000 A 
ATOM      9  C   UNL     1       3.059   5.050  18.586  0.00  0.00    +0.000 A 
ATOM     10  H   UNL     1       5.441   3.016  19.206  0.00  0.00    +0.000 HD
ENDROOT
BRANCH   1  11
ATOM     11  C   UNL     1       5.288   5.027  17.276  0.00  0.00    +0.000 C 
ATOM     12  O   UNL     1       5.166   4.726  16.091  0.00  0.00    +0.000 OA
BRANCH  11  17
ATOM     13  C   UNL     1       8.010   9.023  17.667  0.00  0.00    +0.000 C 
ATOM     14  C   UNL     1       7.678   7.619  17.979  0.00  0.00    +0.000 A 
ATOM     15  C   UNL     1       8.235   6.657  18.790  0.00  0.00    +0.000 A 
ATOM     16  C   UNL     1       7.427   5.500  18.645  0.00  0.00    +0.000 A 
ATOM     17  C   UNL     1       6.414   5.819  17.756  0.00  0.00    +0.000 A 
ATOM     18  O   UNL     1       6.584   7.119  17.349  0.00  0.00    +0.000 OA
ENDBRANCH  11  17
ENDBRANCH   1  11
BRANCH   9  19
ATOM     19  C   UNL     1       2.336   6.175  17.891  0.00  0.00    +0.000 C 
BRANCH  19  20
ATOM     20  C   UNL     1       2.581   7.522  18.579  0.00  0.00    +0.000 C 
BRANCH  20  21
ATOM     21  N   UNL     1       2.269   7.453  20.014  0.00  0.00    +0.000 N 
ATOM     22  C   UNL     1       1.385   8.476  20.418  0.00  0.00    +0.000 A 
ATOM     23  C   UNL     1       1.015   8.550  21.755  0.00  0.00    +0.000 A 
ATOM     24  C   UNL     1       0.156   9.571  22.178  0.00  0.00    +0.000 A 
ATOM     25  C   UNL     1      -0.326  10.520  21.269  0.00  0.00    +0.000 A 
ATOM     26  C   UNL     1       0.068  10.329  19.949  0.00  0.00    +0.000 A 
ATOM     27  N   UNL     1       0.899   9.347  19.515  0.00  0.00    +0.000 NA
ATOM     28  H   UNL     1       3.111   7.524  20.581  0.00  0.00    +0.000 HD
BRANCH  25  29
ATOM     29  C   UNL     1      -1.185  11.649  21.653  0.00  0.00    +0.000 A 
ATOM     30  C   UNL     1      -1.246  12.137  22.959  0.00  0.00    +0.000 A 
ATOM     31  C   UNL     1      -2.068  13.224  23.246  0.00  0.00    +0.000 A 
ATOM     32  C   UNL     1      -2.810  13.803  22.226  0.00  0.00    +0.000 A 
ATOM     33  C   UNL     1      -2.691  13.273  20.954  0.00  0.00    +0.000 A 
ATOM     34  N   UNL     1      -1.898  12.222  20.649  0.00  0.00    +0.000 NA
ENDBRANCH  25  29
ENDBRANCH  20  21
ENDBRANCH  19  20
ENDBRANCH   9  19
TORSDOF 6
ENDMDL
