MODEL 1
REMARK VINA RESULT:      -8.1      0.000      0.000
REMARK  Name = 
REMARK  7 active torsions:
REMARK  status: ('A' for Active; 'I' for Inactive)
REMARK    1  A    between atoms: C_1  and  C_2
REMARK    2  A    between atoms: C_2  and  C_3
REMARK    3  A    between atoms: C_2  and  S_4
REMARK    4  A    between atoms: S_4  and  N_7
REMARK    5  A    between atoms: N_7  and  C_8
REMARK    6  A    between atoms: C_12  and  C_13
REMARK    7  A    between atoms: C_16  and  C_17
REMARK                            x       y       z     vdW  Elec       q    Type
REMARK                         _______ _______ _______ _____ _____    ______ ____
ROOT
ATOM      1  C   UNL     1       4.624   4.859  18.272  0.00  0.00    +0.000 C 
ATOM      2  C   UNL     1       5.906   5.644  18.553  0.00  0.00    +0.000 C 
ATOM      3  O   UNL     1       5.995   6.706  17.591  0.00  0.00    +0.000 OA
ATOM      4  C   UNL     1       4.824   6.656  16.760  0.00  0.00    +0.000 C 
ATOM      5  C   UNL     1       3.757   5.867  17.515  0.00  0.00    +0.000 C 
ENDROOT
BRANCH   5   6
ATOM      6  C   UNL     1       2.858   6.761  18.357  0.00  0.00    +0.000 A 
ATOM      7  C   UNL     1       2.477   6.328  19.634  0.00  0.00    +0.000 A 
ATOM      8  C   UNL     1       1.759   7.162  20.496  0.00  0.00    +0.000 A 
ATOM      9  C   UNL     1       1.380   8.451  20.099  0.00  0.00    +0.000 A 
ATOM     10  C   UNL     1       1.715   8.862  18.803  0.00  0.00    +0.000 A 
ATOM     11  C   UNL     1       2.429   8.024  17.940  0.00  0.00    +0.000 A 
BRANCH   9  12
ATOM     12  C   UNL     1       0.675   9.337  21.040  0.00  0.00    +0.000 A 
ATOM     13  C   UNL     1       0.065   9.013  22.241  0.00  0.00    +0.000 A 
ATOM     14  C   UNL     1      -0.536  10.136  22.879  0.00  0.00    +0.000 A 
ATOM     15  C   UNL     1      -0.366  11.291  22.152  0.00  0.00    +0.000 A 
ATOM     16  S   UNL     1       0.497  11.015  20.707  0.00  0.00    +0.000 S 
ENDBRANCH   9  12
ENDBRANCH   5   6
BRANCH   1  17
ATOM     17  N   UNL     1       4.036   4.283  19.523  0.00  0.00    +0.000 NA
ATOM     18  H   UNL     1       4.648   4.488  20.316  0.00  0.00    +0.000 HD
BRANCH  17  19
ATOM     19  S   UNL     1       3.779   2.607  19.483  0.00  0.00    +0.000 S 
ATOM     20  O   UNL     1       4.768   2.062  20.391  0.00  0.00    +0.000 OA
ATOM     21  O   UNL     1       3.698   2.153  18.115  0.00  0.00    +0.000 OA
BRANCH  19  23
ATOM     22  C   UNL     1       2.072   3.172  21.605  0.00  0.00    +0.000 C 
ATOM     23  C   UNL     1       2.155   2.449  20.268  0.00  0.00    +0.000 C 
ATOM     24  C   UNL     1       1.080   2.957  19.308  0.00  0.00    +0.000 C 
ENDBRANCH  19  23
ENDBRANCH  17  19
ENDBRANCH   1  17
TORSDOF 5
ENDMDL
MODEL 2
REMARK VINA RESULT:      -8.0      0.705      1.347
REMARK  Name = 
REMARK  7 active torsions:
REMARK  status: ('A' for Active; 'I' for Inactive)
REMARK    1  A    between atoms: C_1  and  C_2
REMARK    2  A    between atoms: C_2  and  C_3
REMARK    3  A    between atoms: C_2  and  S_4
REMARK    4  A    between atoms: S_4  and  N_7
REMARK    5  A    between atoms: N_7  and  C_8
REMARK    6  A    between atoms: C_12  and  C_13
REMARK    7  A    between atoms: C_16  and  C_17
REMARK                            x       y       z     vdW  Elec       q    Type
REMARK                         _______ _______ _______ _____ _____    ______ ____
ROOT
ATOM      1  C   UNL     1       4.639   4.720  18.128  0.00  0.00    +0.000 C 
ATOM      2  C   UNL     1       6.003   5.402  18.259  0.00  0.00    +0.000 C 
ATOM      3  O   UNL     1       6.084   6.426  17.256  0.00  0.00    +0.000 OA
ATOM      4  C   UNL     1       4.837   6.454  16.542  0.00  0.00    +0.000 C 
ATOM      5  C   UNL     1       3.788   5.778  17.422  0.00  0.00    +0.000 C 
ENDROOT
BRANCH   5   6
ATOM      6  C   UNL     1       3.050   6.766  18.313  0.00  0.00    +0.000 A 
ATOM      7  C   UNL     1       2.723   8.028  17.798  0.00  0.00    +0.000 A 
ATOM      8  C   UNL     1       1.937   8.924  18.528  0.00  0.00    +0.000 A 
ATOM      9  C   UNL     1       1.470   8.595  19.806  0.00  0.00    +0.000 A 
ATOM     10  C   UNL     1       1.843   7.356  20.341  0.00  0.00    +0.000 A 
ATOM     11  C   UNL     1       2.634   6.462  19.611  0.00  0.00    +0.000 A 
BRANCH   9  12
ATOM     12  C   UNL     1       0.595   9.527  20.537  0.00  0.00    +0.000 A 
ATOM     13  C   UNL     1      -0.162  10.575  20.036  0.00  0.00    +0.000 A 
ATOM     14  C   UNL     1      -0.878  11.276  21.049  0.00  0.00    +0.000 A 
ATOM     15  C   UNL     1      -0.655  10.742  22.297  0.00  0.00    +0.000 A 
ATOM     16  S   UNL     1       0.421   9.419  22.245  0.00  0.00    +0.000 S 
ENDBRANCH   9  12
ENDBRANCH   5   6
BRANCH   1  17
ATOM     17  N   UNL     1       4.130   4.230  19.448  0.00  0.00    +0.000 NA
ATOM     18  H   UNL     1       4.814   4.439  20.179  0.00  0.00    +0.000 HD
BRANCH  17  19
ATOM     19  S   UNL     1       3.794   2.569  19.509  0.00  0.00    +0.000 S 
ATOM     20  O   UNL     1       4.768   2.031  20.437  0.00  0.00    +0.000 OA
ATOM     21  O   UNL     1       3.675   2.040  18.171  0.00  0.00    +0.000 OA
BRANCH  19  23
ATOM     22  C   UNL     1       2.155   3.300  21.633  0.00  0.00    +0.000 C 
ATOM     23  C   UNL     1       2.175   2.534  20.318  0.00  0.00    +0.000 C 
ATOM     24  C   UNL     1       1.120   3.078  19.356  0.00  0.00    +0.000 C 
ENDBRANCH  19  23
ENDBRANCH  17  19
ENDBRANCH   1  17
TORSDOF 5
ENDMDL
MODEL 3
REMARK VINA RESULT:      -7.6      1.198      1.746
REMARK  Name = 
REMARK  7 active torsions:
REMARK  status: ('A' for Active; 'I' for Inactive)
REMARK    1  A    between atoms: C_1  and  C_2
REMARK    2  A    between atoms: C_2  and  C_3
REMARK    3  A    between atoms: C_2  and  S_4
REMARK    4  A    between atoms: S_4  and  N_7
REMARK    5  A    between atoms: N_7  and  C_8
REMARK    6  A    between atoms: C_12  and  C_13
REMARK    7  A    between atoms: C_16  and  C_17
REMARK                            x       y       z     vdW  Elec       q    Type
REMARK                         _______ _______ _______ _____ _____    ______ ____
ROOT
ATOM      1  C   UNL     1       4.204   4.690  18.843  0.00  0.00    +0.000 C 
ATOM      2  C   UNL     1       5.602   5.239  19.137  0.00  0.00    +0.000 C 
ATOM      3  O   UNL     1       5.968   6.117  18.062  0.00  0.00    +0.000 OA
ATOM      4  C   UNL     1       4.866   6.184  17.143  0.00  0.00    +0.000 C 
ATOM      5  C   UNL     1       3.614   5.734  17.893  0.00  0.00    +0.000 C 
ENDROOT
BRANCH   5   6
ATOM      6  C   UNL     1       2.870   6.897  18.533  0.00  0.00    +0.000 A 
ATOM      7  C   UNL     1       2.623   8.046  17.770  0.00  0.00    +0.000 A 
ATOM      8  C   UNL     1       1.836   9.088  18.267  0.00  0.00    +0.000 A 
ATOM      9  C   UNL     1       1.286   9.024  19.553  0.00  0.00    +0.000 A 
ATOM     10  C   UNL     1       1.578   7.899  20.334  0.00  0.00    +0.000 A 
ATOM     11  C   UNL     1       2.370   6.859  19.838  0.00  0.00    +0.000 A 
BRANCH   9  12
ATOM     12  C   UNL     1       0.411  10.104  20.039  0.00  0.00    +0.000 A 
ATOM     13  C   UNL     1       0.507  10.830  21.216  0.00  0.00    +0.000 A 
ATOM     14  C   UNL     1      -0.534  11.793  21.360  0.00  0.00    +0.000 A 
ATOM     15  C   UNL     1      -1.395  11.781  20.288  0.00  0.00    +0.000 A 
ATOM     16  S   UNL     1      -0.958  10.609  19.128  0.00  0.00    +0.000 S 
ENDBRANCH   9  12
ENDBRANCH   5   6
BRANCH   1  17
ATOM     17  N   UNL     1       3.434   4.423  20.099  0.00  0.00    +0.000 NA
ATOM     18  H   UNL     1       3.899   4.873  20.890  0.00  0.00    +0.000 HD
BRANCH  17  19
ATOM     19  S   UNL     1       3.235   2.781  20.476  0.00  0.00    +0.000 S 
ATOM     20  O   UNL     1       2.863   2.769  21.876  0.00  0.00    +0.000 OA
ATOM     21  O   UNL     1       4.372   2.026  20.004  0.00  0.00    +0.000 OA
BRANCH  19  23
ATOM     22  C   UNL     1       0.691   3.409  19.547  0.00  0.00    +0.000 C 
ATOM     23  C   UNL     1       1.772   2.339  19.507  0.00  0.00    +0.000 C 
ATOM     24  C   UNL     1       2.192   2.045  18.067  0.00  0.00    +0.000 C 
ENDBRANCH  19  23
ENDBRANCH  17  19
ENDBRANCH   1  17
TORSDOF 5
ENDMDL
MODEL 4
REMARK VINA RESULT:      -7.6      1.936      3.845
REMARK  Name = 
REMARK  7 active torsions:
REMARK  status: ('A' for Active; 'I' for Inactive)
REMARK    1  A    between atoms: C_1  and  C_2
REMARK    2  A    between atoms: C_2  and  C_3
REMARK    3  A    between atoms: C_2  and  S_4
REMARK    4  A    between atoms: S_4  and  N_7
REMARK    5  A    between atoms: N_7  and  C_8
REMARK    6  A    between atoms: C_12  and  C_13
REMARK    7  A    between atoms: C_16  and  C_17
REMARK                            x       y       z     vdW  Elec       q    Type
REMARK                         _______ _______ _______ _____ _____    ______ ____
ROOT
ATOM      1  C   UNL     1       4.104   3.500  17.775  0.00  0.00    +0.000 C 
ATOM      2  C   UNL     1       2.921   2.550  17.577  0.00  0.00    +0.000 C 
ATOM      3  O   UNL     1       2.546   2.035  18.863  0.00  0.00    +0.000 OA
ATOM      4  C   UNL     1       3.392   2.642  19.853  0.00  0.00    +0.000 C 
ATOM      5  C   UNL     1       3.974   3.915  19.242  0.00  0.00    +0.000 C 
ENDROOT
BRANCH   5   6
ATOM      6  C   UNL     1       3.121   5.142  19.531  0.00  0.00    +0.000 A 
ATOM      7  C   UNL     1       2.194   5.091  20.581  0.00  0.00    +0.000 A 
ATOM      8  C   UNL     1       1.479   6.227  20.969  0.00  0.00    +0.000 A 
ATOM      9  C   UNL     1       1.653   7.448  20.306  0.00  0.00    +0.000 A 
ATOM     10  C   UNL     1       2.539   7.484  19.222  0.00  0.00    +0.000 A 
ATOM     11  C   UNL     1       3.251   6.344  18.831  0.00  0.00    +0.000 A 
BRANCH   9  12
ATOM     12  C   UNL     1       0.935   8.648  20.765  0.00  0.00    +0.000 A 
ATOM     13  C   UNL     1       0.377   8.899  22.008  0.00  0.00    +0.000 A 
ATOM     14  C   UNL     1      -0.258  10.172  22.086  0.00  0.00    +0.000 A 
ATOM     15  C   UNL     1      -0.164  10.864  20.901  0.00  0.00    +0.000 A 
ATOM     16  S   UNL     1       0.668   9.977  19.705  0.00  0.00    +0.000 S 
ENDBRANCH   9  12
ENDBRANCH   5   6
BRANCH   1  17
ATOM     17  N   UNL     1       4.106   4.608  16.768  0.00  0.00    +0.000 NA
ATOM     18  H   UNL     1       3.463   4.381  16.006  0.00  0.00    +0.000 HD
BRANCH  17  19
ATOM     19  S   UNL     1       5.621   4.948  16.086  0.00  0.00    +0.000 S 
ATOM     20  O   UNL     1       5.394   6.106  15.246  0.00  0.00    +0.000 OA
ATOM     21  O   UNL     1       6.200   3.741  15.545  0.00  0.00    +0.000 OA
BRANCH  19  23
ATOM     22  C   UNL     1       7.771   4.581  17.811  0.00  0.00    +0.000 C 
ATOM     23  C   UNL     1       6.578   5.482  17.527  0.00  0.00    +0.000 C 
ATOM     24  C   UNL     1       7.027   6.929  17.325  0.00  0.00    +0.000 C 
ENDBRANCH  19  23
ENDBRANCH  17  19
ENDBRANCH   1  17
TORSDOF 5
ENDMDL
MODEL 5
REMARK VINA RESULT:      -7.5      1.087      1.421
REMARK  Name = 
REMARK  7 active torsions:
REMARK  status: ('A' for Active; 'I' for Inactive)
REMARK    1  A    between atoms: C_1  and  C_2
REMARK    2  A    between atoms: C_2  and  C_3
REMARK    3  A    between atoms: C_2  and  S_4
REMARK    4  A    between atoms: S_4  and  N_7
REMARK    5  A    between atoms: N_7  and  C_8
REMARK    6  A    between atoms: C_12  and  C_13
REMARK    7  A    between atoms: C_16  and  C_17
REMARK                            x       y       z     vdW  Elec       q    Type
REMARK                         _______ _______ _______ _____ _____    ______ ____
ROOT
ATOM      1  C   UNL     1       4.187   4.722  18.860  0.00  0.00    +0.000 C 
ATOM      2  C   UNL     1       5.522   5.413  19.147  0.00  0.00    +0.000 C 
ATOM      3  O   UNL     1       5.765   6.361  18.098  0.00  0.00    +0.000 OA
ATOM      4  C   UNL     1       4.641   6.336  17.202  0.00  0.00    +0.000 C 
ATOM      5  C   UNL     1       3.464   5.725  17.959  0.00  0.00    +0.000 C 
ENDROOT
BRANCH   5   6
ATOM      6  C   UNL     1       2.610   6.776  18.654  0.00  0.00    +0.000 A 
ATOM      7  C   UNL     1       2.145   6.520  19.951  0.00  0.00    +0.000 A 
ATOM      8  C   UNL     1       1.466   7.500  20.681  0.00  0.00    +0.000 A 
ATOM      9  C   UNL     1       1.212   8.761  20.129  0.00  0.00    +0.000 A 
ATOM     10  C   UNL     1       1.630   8.996  18.814  0.00  0.00    +0.000 A 
ATOM     11  C   UNL     1       2.305   8.013  18.082  0.00  0.00    +0.000 A 
BRANCH   9  12
ATOM     12  C   UNL     1       0.547   9.801  20.933  0.00  0.00    +0.000 A 
ATOM     13  C   UNL     1       0.418  11.153  20.659  0.00  0.00    +0.000 A 
ATOM     14  C   UNL     1      -0.280  11.862  21.680  0.00  0.00    +0.000 A 
ATOM     15  C   UNL     1      -0.670  11.032  22.704  0.00  0.00    +0.000 A 
ATOM     16  S   UNL     1      -0.184   9.418  22.441  0.00  0.00    +0.000 S 
ENDBRANCH   9  12
ENDBRANCH   5   6
BRANCH   1  17
ATOM     17  N   UNL     1       3.479   4.329  20.120  0.00  0.00    +0.000 NA
ATOM     18  H   UNL     1       3.913   4.796  20.919  0.00  0.00    +0.000 HD
BRANCH  17  19
ATOM     19  S   UNL     1       3.462   2.663  20.437  0.00  0.00    +0.000 S 
ATOM     20  O   UNL     1       2.975   2.552  21.797  0.00  0.00    +0.000 OA
ATOM     21  O   UNL     1       4.723   2.074  20.051  0.00  0.00    +0.000 OA
BRANCH  19  23
ATOM     22  C   UNL     1       0.918   2.957  19.354  0.00  0.00    +0.000 C 
ATOM     23  C   UNL     1       2.158   2.074  19.328  0.00  0.00    +0.000 C 
ATOM     24  C   UNL     1       2.715   1.962  17.909  0.00  0.00    +0.000 C 
ENDBRANCH  19  23
ENDBRANCH  17  19
ENDBRANCH   1  17
TORSDOF 5
ENDMDL
MODEL 6
REMARK VINA RESULT:      -7.5      1.478      2.324
REMARK  Name = 
REMARK  7 active torsions:
REMARK  status: ('A' for Active; 'I' for Inactive)
REMARK    1  A    between atoms: C_1  and  C_2
REMARK    2  A    between atoms: C_2  and  C_3
REMARK    3  A    between atoms: C_2  and  S_4
REMARK    4  A    between atoms: S_4  and  N_7
REMARK    5  A    between atoms: N_7  and  C_8
REMARK    6  A    between atoms: C_12  and  C_13
REMARK    7  A    between atoms: C_16  and  C_17
REMARK                            x       y       z     vdW  Elec       q    Type
REMARK                         _______ _______ _______ _____ _____    ______ ____
ROOT
ATOM      1  C   UNL     1       5.565   3.825  17.734  0.00  0.00    +0.000 C 
ATOM      2  C   UNL     1       6.858   4.634  17.618  0.00  0.00    +0.000 C 
ATOM      3  O   UNL     1       6.820   5.355  16.377  0.00  0.00    +0.000 OA
ATOM      4  C   UNL     1       5.562   5.081  15.739  0.00  0.00    +0.000 C 
ATOM      5  C   UNL     1       4.602   4.576  16.813  0.00  0.00    +0.000 C 
ENDROOT
BRANCH   5   6
ATOM      6  C   UNL     1       3.790   5.699  17.443  0.00  0.00    +0.000 A 
ATOM      7  C   UNL     1       4.188   7.026  17.227  0.00  0.00    +0.000 A 
ATOM      8  C   UNL     1       3.409   8.096  17.676  0.00  0.00    +0.000 A 
ATOM      9  C   UNL     1       2.216   7.874  18.374  0.00  0.00    +0.000 A 
ATOM     10  C   UNL     1       1.848   6.549  18.636  0.00  0.00    +0.000 A 
ATOM     11  C   UNL     1       2.631   5.478  18.191  0.00  0.00    +0.000 A 
BRANCH   9  12
ATOM     12  C   UNL     1       1.378   9.011  18.788  0.00  0.00    +0.000 A 
ATOM     13  C   UNL     1       0.799   9.992  17.997  0.00  0.00    +0.000 A 
ATOM     14  C   UNL     1       0.062  10.950  18.751  0.00  0.00    +0.000 A 
ATOM     15  C   UNL     1       0.092  10.675  20.098  0.00  0.00    +0.000 A 
ATOM     16  S   UNL     1       1.014   9.282  20.447  0.00  0.00    +0.000 S 
ENDBRANCH   9  12
ENDBRANCH   5   6
BRANCH   1  17
ATOM     17  N   UNL     1       5.133   3.664  19.159  0.00  0.00    +0.000 NA
ATOM     18  H   UNL     1       5.951   3.692  19.771  0.00  0.00    +0.000 HD
BRANCH  17  19
ATOM     19  S   UNL     1       4.285   2.233  19.489  0.00  0.00    +0.000 S 
ATOM     20  O   UNL     1       4.993   1.634  20.602  0.00  0.00    +0.000 OA
ATOM     21  O   UNL     1       4.067   1.496  18.266  0.00  0.00    +0.000 OA
BRANCH  19  23
ATOM     22  C   UNL     1       1.505   2.219  19.417  0.00  0.00    +0.000 C 
ATOM     23  C   UNL     1       2.702   2.858  20.106  0.00  0.00    +0.000 C 
ATOM     24  C   UNL     1       2.634   2.650  21.619  0.00  0.00    +0.000 C 
ENDBRANCH  19  23
ENDBRANCH  17  19
ENDBRANCH   1  17
TORSDOF 5
ENDMDL
MODEL 7
REMARK VINA RESULT:      -7.4      0.797      1.220
REMARK  Name = 
REMARK  7 active torsions:
REMARK  status: ('A' for Active; 'I' for Inactive)
REMARK    1  A    between atoms: C_1  and  C_2
REMARK    2  A    between atoms: C_2  and  C_3
REMARK    3  A    between atoms: C_2  and  S_4
REMARK    4  A    between atoms: S_4  and  N_7
REMARK    5  A    between atoms: N_7  and  C_8
REMARK    6  A    between atoms: C_12  and  C_13
REMARK    7  A    between atoms: C_16  and  C_17
REMARK                            x       y       z     vdW  Elec       q    Type
REMARK                         _______ _______ _______ _____ _____    ______ ____
ROOT
ATOM      1  C   UNL     1       5.090   5.029  18.101  0.00  0.00    +0.000 C 
ATOM      2  C   UNL     1       6.306   5.938  18.291  0.00  0.00    +0.000 C 
ATOM      3  O   UNL     1       6.310   6.901  17.228  0.00  0.00    +0.000 OA
ATOM      4  C   UNL     1       5.146   6.677  16.415  0.00  0.00    +0.000 C 
ATOM      5  C   UNL     1       4.146   5.886  17.254  0.00  0.00    +0.000 C 
ENDROOT
BRANCH   5   6
ATOM      6  C   UNL     1       3.178   6.785  18.010  0.00  0.00    +0.000 A 
ATOM      7  C   UNL     1       2.767   6.409  19.296  0.00  0.00    +0.000 A 
ATOM      8  C   UNL     1       1.983   7.258  20.081  0.00  0.00    +0.000 A 
ATOM      9  C   UNL     1       1.566   8.504  19.597  0.00  0.00    +0.000 A 
ATOM     10  C   UNL     1       1.933   8.856  18.292  0.00  0.00    +0.000 A 
ATOM     11  C   UNL     1       2.713   8.003  17.505  0.00  0.00    +0.000 A 
BRANCH   9  12
ATOM     12  C   UNL     1       0.789   9.411  20.459  0.00  0.00    +0.000 A 
ATOM     13  C   UNL     1      -0.017  10.476  20.088  0.00  0.00    +0.000 A 
ATOM     14  C   UNL     1      -0.604  11.143  21.202  0.00  0.00    +0.000 A 
ATOM     15  C   UNL     1      -0.235  10.567  22.396  0.00  0.00    +0.000 A 
ATOM     16  S   UNL     1       0.821   9.246  22.170  0.00  0.00    +0.000 S 
ENDBRANCH   9  12
ENDBRANCH   5   6
BRANCH   1  17
ATOM     17  N   UNL     1       4.549   4.537  19.408  0.00  0.00    +0.000 NA
ATOM     18  H   UNL     1       5.277   4.593  20.123  0.00  0.00    +0.000 HD
BRANCH  17  19
ATOM     19  S   UNL     1       3.966   2.945  19.382  0.00  0.00    +0.000 S 
ATOM     20  O   UNL     1       4.773   2.242  20.359  0.00  0.00    +0.000 OA
ATOM     21  O   UNL     1       3.874   2.475  18.020  0.00  0.00    +0.000 OA
BRANCH  19  23
ATOM     22  C   UNL     1       1.233   2.457  19.221  0.00  0.00    +0.000 C 
ATOM     23  C   UNL     1       2.301   3.135  20.067  0.00  0.00    +0.000 C 
ATOM     24  C   UNL     1       2.281   2.599  21.498  0.00  0.00    +0.000 C 
ENDBRANCH  19  23
ENDBRANCH  17  19
ENDBRANCH   1  17
TORSDOF 5
ENDMDL
MODEL 8
REMARK VINA RESULT:      -7.4      1.275      1.606
REMARK  Name = 
REMARK  7 active torsions:
REMARK  status: ('A' for Active; 'I' for Inactive)
REMARK    1  A    between atoms: C_1  and  C_2
REMARK    2  A    between atoms: C_2  and  C_3
REMARK    3  A    between atoms: C_2  and  S_4
REMARK    4  A    between atoms: S_4  and  N_7
REMARK    5  A    between atoms: N_7  and  C_8
REMARK    6  A    between atoms: C_12  and  C_13
REMARK    7  A    between atoms: C_16  and  C_17
REMARK                            x       y       z     vdW  Elec       q    Type
REMARK                         _______ _______ _______ _____ _____    ______ ____
ROOT
ATOM      1  C   UNL     1       5.208   3.872  18.046  0.00  0.00    +0.000 C 
ATOM      2  C   UNL     1       6.553   4.601  18.016  0.00  0.00    +0.000 C 
ATOM      3  O   UNL     1       6.680   5.244  16.739  0.00  0.00    +0.000 OA
ATOM      4  C   UNL     1       5.477   4.998  15.992  0.00  0.00    +0.000 C 
ATOM      5  C   UNL     1       4.387   4.615  16.990  0.00  0.00    +0.000 C 
ENDROOT
BRANCH   5   6
ATOM      6  C   UNL     1       3.586   5.817  17.469  0.00  0.00    +0.000 A 
ATOM      7  C   UNL     1       2.394   5.600  18.174  0.00  0.00    +0.000 A 
ATOM      8  C   UNL     1       1.688   6.663  18.745  0.00  0.00    +0.000 A 
ATOM      9  C   UNL     1       2.141   7.981  18.611  0.00  0.00    +0.000 A 
ATOM     10  C   UNL     1       3.302   8.201  17.860  0.00  0.00    +0.000 A 
ATOM     11  C   UNL     1       4.005   7.137  17.285  0.00  0.00    +0.000 A 
BRANCH   9  12
ATOM     12  C   UNL     1       1.417   9.082  19.267  0.00  0.00    +0.000 A 
ATOM     13  C   UNL     1       0.851   9.112  20.532  0.00  0.00    +0.000 A 
ATOM     14  C   UNL     1       0.212  10.351  20.826  0.00  0.00    +0.000 A 
ATOM     15  C   UNL     1       0.312  11.239  19.780  0.00  0.00    +0.000 A 
ATOM     16  S   UNL     1       1.154  10.575  18.454  0.00  0.00    +0.000 S 
ENDBRANCH   9  12
ENDBRANCH   5   6
BRANCH   1  17
ATOM     17  N   UNL     1       4.629   3.824  19.427  0.00  0.00    +0.000 NA
ATOM     18  H   UNL     1       5.329   4.134  20.104  0.00  0.00    +0.000 HD
BRANCH  17  19
ATOM     19  S   UNL     1       4.074   2.297  19.913  0.00  0.00    +0.000 S 
ATOM     20  O   UNL     1       5.006   1.877  20.939  0.00  0.00    +0.000 OA
ATOM     21  O   UNL     1       3.823   1.472  18.755  0.00  0.00    +0.000 OA
BRANCH  19  23
ATOM     22  C   UNL     1       2.489   4.096  21.323  0.00  0.00    +0.000 C 
ATOM     23  C   UNL     1       2.503   2.699  20.719  0.00  0.00    +0.000 C 
ATOM     24  C   UNL     1       1.364   2.530  19.713  0.00  0.00    +0.000 C 
ENDBRANCH  19  23
ENDBRANCH  17  19
ENDBRANCH   1  17
TORSDOF 5
ENDMDL
MODEL 9
REMARK VINA RESULT:      -7.3      2.403      4.188
REMARK  Name = 
REMARK  7 active torsions:
REMARK  status: ('A' for Active; 'I' for Inactive)
REMARK    1  A    between atoms: C_1  and  C_2
REMARK    2  A    between atoms: C_2  and  C_3
REMARK    3  A    between atoms: C_2  and  S_4
REMARK    4  A    between atoms: S_4  and  N_7
REMARK    5  A    between atoms: N_7  and  C_8
REMARK    6  A    between atoms: C_12  and  C_13
REMARK    7  A    between atoms: C_16  and  C_17
REMARK                            x       y       z     vdW  Elec       q    Type
REMARK                         _______ _______ _______ _____ _____    ______ ____
ROOT
ATOM      1  C   UNL     1       3.671   5.099  18.305  0.00  0.00    +0.000 C 
ATOM      2  C   UNL     1       2.498   4.220  17.865  0.00  0.00    +0.000 C 
ATOM      3  O   UNL     1       1.637   4.032  18.998  0.00  0.00    +0.000 OA
ATOM      4  C   UNL     1       2.177   4.778  20.101  0.00  0.00    +0.000 C 
ATOM      5  C   UNL     1       3.114   5.836  19.524  0.00  0.00    +0.000 C 
ENDROOT
BRANCH   5   6
ATOM      6  C   UNL     1       2.407   7.158  19.259  0.00  0.00    +0.000 A 
ATOM      7  C   UNL     1       1.708   7.774  20.306  0.00  0.00    +0.000 A 
ATOM      8  C   UNL     1       1.150   9.046  20.151  0.00  0.00    +0.000 A 
ATOM      9  C   UNL     1       1.254   9.735  18.937  0.00  0.00    +0.000 A 
ATOM     10  C   UNL     1       1.905   9.095  17.875  0.00  0.00    +0.000 A 
ATOM     11  C   UNL     1       2.459   7.819  18.029  0.00  0.00    +0.000 A 
BRANCH   9  12
ATOM     12  C   UNL     1       0.711  11.097  18.809  0.00  0.00    +0.000 A 
ATOM     13  C   UNL     1       1.380  12.307  18.906  0.00  0.00    +0.000 A 
ATOM     14  C   UNL     1       0.521  13.432  18.743  0.00  0.00    +0.000 A 
ATOM     15  C   UNL     1      -0.782  13.053  18.519  0.00  0.00    +0.000 A 
ATOM     16  S   UNL     1      -0.965  11.357  18.523  0.00  0.00    +0.000 S 
ENDBRANCH   9  12
ENDBRANCH   5   6
BRANCH   1  17
ATOM     17  N   UNL     1       4.179   5.954  17.185  0.00  0.00    +0.000 NA
ATOM     18  H   UNL     1       3.552   5.876  16.381  0.00  0.00    +0.000 HD
BRANCH  17  19
ATOM     19  S   UNL     1       5.748   5.582  16.661  0.00  0.00    +0.000 S 
ATOM     20  O   UNL     1       5.936   6.382  15.468  0.00  0.00    +0.000 OA
ATOM     21  O   UNL     1       5.931   4.149  16.629  0.00  0.00    +0.000 OA
BRANCH  19  23
ATOM     22  C   UNL     1       7.753   5.289  18.565  0.00  0.00    +0.000 C 
ATOM     23  C   UNL     1       6.771   6.291  17.975  0.00  0.00    +0.000 C 
ATOM     24  C   UNL     1       7.504   7.518  17.436  0.00  0.00    +0.000 C 
ENDBRANCH  19  23
ENDBRANCH  17  19
ENDBRANCH   1  17
TORSDOF 5
ENDMDL
