MODEL 1
REMARK VINA RESULT:      -6.4      0.000      0.000
REMARK  Name = 
REMARK  10 active torsions:
REMARK  status: ('A' for Active; 'I' for Inactive)
REMARK    1  A    between atoms: C_1  and  C_2
REMARK    2  A    between atoms: C_2  and  N_3
REMARK    3  A    between atoms: C_4  and  S_5
REMARK    4  A    between atoms: S_5  and  C_6
REMARK    5  A    between atoms: C_6  and  C_7
REMARK    6  A    between atoms: N_9  and  C_10
REMARK    7  A    between atoms: C_10  and  C_11
REMARK    8  A    between atoms: C_10  and  C_12
REMARK    9  A    between atoms: C_10  and  C_13
REMARK   10  A    between atoms: C_16  and  C_17
REMARK                            x       y       z     vdW  Elec       q    Type
REMARK                         _______ _______ _______ _____ _____    ______ ____
ROOT
ATOM      1  N   UNL     1       1.542   8.696  19.687  0.00  0.00    +0.000 N 
ATOM      2  C   UNL     1       2.155   7.641  19.055  0.00  0.00    +0.000 A 
ATOM      3  N   UNL     1       2.400   7.944  17.804  0.00  0.00    +0.000 NA
ATOM      4  N   UNL     1       1.907   9.199  17.574  0.00  0.00    +0.000 NA
ATOM      5  C   UNL     1       1.406   9.681  18.702  0.00  0.00    +0.000 A 
ENDROOT
BRANCH   5   6
ATOM      6  C   UNL     1       0.793  11.020  18.813  0.00  0.00    +0.000 A 
ATOM      7  C   UNL     1       1.597  12.113  19.156  0.00  0.00    +0.000 A 
ATOM      8  C   UNL     1       1.014  13.367  19.292  0.00  0.00    +0.000 A 
ATOM      9  N   UNL     1      -0.300  13.608  19.106  0.00  0.00    +0.000 NA
ATOM     10  C   UNL     1      -1.065  12.543  18.802  0.00  0.00    +0.000 A 
ATOM     11  C   UNL     1      -0.576  11.253  18.662  0.00  0.00    +0.000 A 
ENDBRANCH   5   6
BRANCH   1  13
ATOM     12  C   UNL     1      -0.351   8.627  21.456  0.00  0.00    +0.000 C 
ATOM     13  C   UNL     1       1.099   8.852  21.058  0.00  0.00    +0.000 C 
ENDBRANCH   1  13
BRANCH   2  14
ATOM     14  S   UNL     1       2.527   6.105  19.749  0.00  0.00    +0.000 S 
BRANCH  14  15
ATOM     15  C   UNL     1       3.241   5.209  18.350  0.00  0.00    +0.000 C 
BRANCH  15  16
ATOM     16  C   UNL     1       4.714   4.922  18.572  0.00  0.00    +0.000 C 
ATOM     17  O   UNL     1       5.097   3.931  19.193  0.00  0.00    +0.000 OA
ATOM     18  N   UNL     1       5.560   5.868  18.032  0.00  0.00    +0.000 N 
ATOM     19  H   UNL     1       5.137   6.732  17.698  0.00  0.00    +0.000 HD
BRANCH  18  20
ATOM     20  C   UNL     1       7.029   5.816  18.081  0.00  0.00    +0.000 C 
ATOM     21  C   UNL     1       7.557   4.628  17.258  0.00  0.00    +0.000 C 
ATOM     22  C   UNL     1       7.574   7.114  17.459  0.00  0.00    +0.000 C 
ATOM     23  C   UNL     1       7.537   5.724  19.527  0.00  0.00    +0.000 C 
ENDBRANCH  18  20
ENDBRANCH  15  16
ENDBRANCH  14  15
ENDBRANCH   2  14
TORSDOF 6
ENDMDL
MODEL 2
REMARK VINA RESULT:      -6.4      2.645      4.062
REMARK  Name = 
REMARK  10 active torsions:
REMARK  status: ('A' for Active; 'I' for Inactive)
REMARK    1  A    between atoms: C_1  and  C_2
REMARK    2  A    between atoms: C_2  and  N_3
REMARK    3  A    between atoms: C_4  and  S_5
REMARK    4  A    between atoms: S_5  and  C_6
REMARK    5  A    between atoms: C_6  and  C_7
REMARK    6  A    between atoms: N_9  and  C_10
REMARK    7  A    between atoms: C_10  and  C_11
REMARK    8  A    between atoms: C_10  and  C_12
REMARK    9  A    between atoms: C_10  and  C_13
REMARK   10  A    between atoms: C_16  and  C_17
REMARK                            x       y       z     vdW  Elec       q    Type
REMARK                         _______ _______ _______ _____ _____    ______ ____
ROOT
ATOM      1  N   UNL     1       2.811   4.795  19.562  0.00  0.00    +0.000 N 
ATOM      2  C   UNL     1       3.961   4.046  19.622  0.00  0.00    +0.000 A 
ATOM      3  N   UNL     1       5.012   4.827  19.575  0.00  0.00    +0.000 NA
ATOM      4  N   UNL     1       4.571   6.114  19.436  0.00  0.00    +0.000 NA
ATOM      5  C   UNL     1       3.246   6.120  19.448  0.00  0.00    +0.000 A 
ENDROOT
BRANCH   5   6
ATOM      6  C   UNL     1       2.438   7.350  19.322  0.00  0.00    +0.000 A 
ATOM      7  C   UNL     1       1.739   7.825  20.438  0.00  0.00    +0.000 A 
ATOM      8  C   UNL     1       0.953   8.964  20.311  0.00  0.00    +0.000 A 
ATOM      9  N   UNL     1       0.820   9.660  19.163  0.00  0.00    +0.000 NA
ATOM     10  C   UNL     1       1.479   9.177  18.092  0.00  0.00    +0.000 A 
ATOM     11  C   UNL     1       2.271   8.040  18.119  0.00  0.00    +0.000 A 
ENDBRANCH   5   6
BRANCH   1  13
ATOM     12  C   UNL     1       0.895   3.429  20.648  0.00  0.00    +0.000 C 
ATOM     13  C   UNL     1       1.418   4.398  19.600  0.00  0.00    +0.000 C 
ENDBRANCH   1  13
BRANCH   2  14
ATOM     14  S   UNL     1       4.062   2.324  19.702  0.00  0.00    +0.000 S 
BRANCH  14  15
ATOM     15  C   UNL     1       3.690   1.834  18.001  0.00  0.00    +0.000 C 
BRANCH  15  16
ATOM     16  C   UNL     1       3.958   2.967  17.029  0.00  0.00    +0.000 C 
ATOM     17  O   UNL     1       3.046   3.569  16.463  0.00  0.00    +0.000 OA
ATOM     18  N   UNL     1       5.297   3.240  16.837  0.00  0.00    +0.000 N 
ATOM     19  H   UNL     1       5.965   2.570  17.214  0.00  0.00    +0.000 HD
BRANCH  18  20
ATOM     20  C   UNL     1       5.828   4.303  15.971  0.00  0.00    +0.000 C 
ATOM     21  C   UNL     1       4.979   5.579  16.096  0.00  0.00    +0.000 C 
ATOM     22  C   UNL     1       7.259   4.629  16.437  0.00  0.00    +0.000 C 
ATOM     23  C   UNL     1       5.891   3.850  14.506  0.00  0.00    +0.000 C 
ENDBRANCH  18  20
ENDBRANCH  15  16
ENDBRANCH  14  15
ENDBRANCH   2  14
TORSDOF 6
ENDMDL
MODEL 3
REMARK VINA RESULT:      -6.4      3.428      4.941
REMARK  Name = 
REMARK  10 active torsions:
REMARK  status: ('A' for Active; 'I' for Inactive)
REMARK    1  A    between atoms: C_1  and  C_2
REMARK    2  A    between atoms: C_2  and  N_3
REMARK    3  A    between atoms: C_4  and  S_5
REMARK    4  A    between atoms: S_5  and  C_6
REMARK    5  A    between atoms: C_6  and  C_7
REMARK    6  A    between atoms: N_9  and  C_10
REMARK    7  A    between atoms: C_10  and  C_11
REMARK    8  A    between atoms: C_10  and  C_12
REMARK    9  A    between atoms: C_10  and  C_13
REMARK   10  A    between atoms: C_16  and  C_17
REMARK                            x       y       z     vdW  Elec       q    Type
REMARK                         _______ _______ _______ _____ _____    ______ ____
ROOT
ATOM      1  N   UNL     1       3.295   5.676  17.819  0.00  0.00    +0.000 N 
ATOM      2  C   UNL     1       4.407   5.370  17.072  0.00  0.00    +0.000 A 
ATOM      3  N   UNL     1       5.057   6.464  16.760  0.00  0.00    +0.000 NA
ATOM      4  N   UNL     1       4.353   7.525  17.260  0.00  0.00    +0.000 NA
ATOM      5  C   UNL     1       3.299   7.071  17.921  0.00  0.00    +0.000 A 
ENDROOT
BRANCH   5   6
ATOM      6  C   UNL     1       2.322   7.951  18.595  0.00  0.00    +0.000 A 
ATOM      7  C   UNL     1       1.724   8.989  17.870  0.00  0.00    +0.000 A 
ATOM      8  C   UNL     1       0.829   9.836  18.512  0.00  0.00    +0.000 A 
ATOM      9  N   UNL     1       0.485   9.719  19.811  0.00  0.00    +0.000 NA
ATOM     10  C   UNL     1       1.088   8.731  20.502  0.00  0.00    +0.000 A 
ATOM     11  C   UNL     1       2.005   7.850  19.951  0.00  0.00    +0.000 A 
ENDBRANCH   5   6
BRANCH   1  13
ATOM     12  C   UNL     1       2.525   4.098  19.726  0.00  0.00    +0.000 C 
ATOM     13  C   UNL     1       2.286   4.821  18.410  0.00  0.00    +0.000 C 
ENDBRANCH   1  13
BRANCH   2  14
ATOM     14  S   UNL     1       4.896   3.796  16.557  0.00  0.00    +0.000 S 
BRANCH  14  15
ATOM     15  C   UNL     1       6.582   4.086  15.969  0.00  0.00    +0.000 C 
BRANCH  15  16
ATOM     16  C   UNL     1       6.608   4.345  14.474  0.00  0.00    +0.000 C 
ATOM     17  O   UNL     1       7.035   5.399  14.004  0.00  0.00    +0.000 OA
ATOM     18  N   UNL     1       6.104   3.310  13.713  0.00  0.00    +0.000 N 
ATOM     19  H   UNL     1       5.616   2.566  14.209  0.00  0.00    +0.000 HD
BRANCH  18  20
ATOM     20  C   UNL     1       6.040   3.293  12.244  0.00  0.00    +0.000 C 
ATOM     21  C   UNL     1       7.150   4.172  11.643  0.00  0.00    +0.000 C 
ATOM     22  C   UNL     1       6.263   1.845  11.773  0.00  0.00    +0.000 C 
ATOM     23  C   UNL     1       4.666   3.758  11.740  0.00  0.00    +0.000 C 
ENDBRANCH  18  20
ENDBRANCH  15  16
ENDBRANCH  14  15
ENDBRANCH   2  14
TORSDOF 6
ENDMDL
MODEL 4
REMARK VINA RESULT:      -6.4      4.763      7.552
REMARK  Name = 
REMARK  10 active torsions:
REMARK  status: ('A' for Active; 'I' for Inactive)
REMARK    1  A    between atoms: C_1  and  C_2
REMARK    2  A    between atoms: C_2  and  N_3
REMARK    3  A    between atoms: C_4  and  S_5
REMARK    4  A    between atoms: S_5  and  C_6
REMARK    5  A    between atoms: C_6  and  C_7
REMARK    6  A    between atoms: N_9  and  C_10
REMARK    7  A    between atoms: C_10  and  C_11
REMARK    8  A    between atoms: C_10  and  C_12
REMARK    9  A    between atoms: C_10  and  C_13
REMARK   10  A    between atoms: C_16  and  C_17
REMARK                            x       y       z     vdW  Elec       q    Type
REMARK                         _______ _______ _______ _____ _____    ______ ____
ROOT
ATOM      1  N   UNL     1       5.548   5.948  17.719  0.00  0.00    +0.000 N 
ATOM      2  C   UNL     1       6.852   6.358  17.857  0.00  0.00    +0.000 A 
ATOM      3  N   UNL     1       7.518   5.505  18.595  0.00  0.00    +0.000 NA
ATOM      4  N   UNL     1       6.646   4.533  19.000  0.00  0.00    +0.000 NA
ATOM      5  C   UNL     1       5.457   4.768  18.465  0.00  0.00    +0.000 A 
ENDROOT
BRANCH   5   6
ATOM      6  C   UNL     1       4.278   3.907  18.692  0.00  0.00    +0.000 A 
ATOM      7  C   UNL     1       3.513   4.088  19.850  0.00  0.00    +0.000 A 
ATOM      8  C   UNL     1       2.424   3.257  20.079  0.00  0.00    +0.000 A 
ATOM      9  N   UNL     1       2.042   2.271  19.241  0.00  0.00    +0.000 NA
ATOM     10  C   UNL     1       2.803   2.092  18.144  0.00  0.00    +0.000 A 
ATOM     11  C   UNL     1       3.917   2.860  17.841  0.00  0.00    +0.000 A 
ENDBRANCH   5   6
BRANCH   1  13
ATOM     12  C   UNL     1       3.366   7.348  17.693  0.00  0.00    +0.000 C 
ATOM     13  C   UNL     1       4.442   6.535  16.990  0.00  0.00    +0.000 C 
ENDBRANCH   1  13
BRANCH   2  14
ATOM     14  S   UNL     1       7.549   7.799  17.210  0.00  0.00    +0.000 S 
BRANCH  14  15
ATOM     15  C   UNL     1       8.434   8.476  18.634  0.00  0.00    +0.000 C 
BRANCH  15  16
ATOM     16  C   UNL     1       8.754   9.946  18.438  0.00  0.00    +0.000 C 
ATOM     17  O   UNL     1       8.108  10.655  17.668  0.00  0.00    +0.000 OA
ATOM     18  N   UNL     1       9.825  10.394  19.184  0.00  0.00    +0.000 N 
ATOM     19  H   UNL     1      10.395   9.689  19.647  0.00  0.00    +0.000 HD
BRANCH  18  20
ATOM     20  C   UNL     1      10.324  11.777  19.201  0.00  0.00    +0.000 C 
ATOM     21  C   UNL     1       9.232  12.742  19.694  0.00  0.00    +0.000 C 
ATOM     22  C   UNL     1      11.507  11.846  20.183  0.00  0.00    +0.000 C 
ATOM     23  C   UNL     1      10.823  12.208  17.814  0.00  0.00    +0.000 C 
ENDBRANCH  18  20
ENDBRANCH  15  16
ENDBRANCH  14  15
ENDBRANCH   2  14
TORSDOF 6
ENDMDL
MODEL 5
REMARK VINA RESULT:      -6.4      0.883      1.607
REMARK  Name = 
REMARK  10 active torsions:
REMARK  status: ('A' for Active; 'I' for Inactive)
REMARK    1  A    between atoms: C_1  and  C_2
REMARK    2  A    between atoms: C_2  and  N_3
REMARK    3  A    between atoms: C_4  and  S_5
REMARK    4  A    between atoms: S_5  and  C_6
REMARK    5  A    between atoms: C_6  and  C_7
REMARK    6  A    between atoms: N_9  and  C_10
REMARK    7  A    between atoms: C_10  and  C_11
REMARK    8  A    between atoms: C_10  and  C_12
REMARK    9  A    between atoms: C_10  and  C_13
REMARK   10  A    between atoms: C_16  and  C_17
REMARK                            x       y       z     vdW  Elec       q    Type
REMARK                         _______ _______ _______ _____ _____    ______ ____
ROOT
ATOM      1  N   UNL     1       1.592   8.528  19.593  0.00  0.00    +0.000 N 
ATOM      2  C   UNL     1       2.339   7.626  18.876  0.00  0.00    +0.000 A 
ATOM      3  N   UNL     1       2.498   8.048  17.646  0.00  0.00    +0.000 NA
ATOM      4  N   UNL     1       1.814   9.225  17.516  0.00  0.00    +0.000 NA
ATOM      5  C   UNL     1       1.279   9.545  18.684  0.00  0.00    +0.000 A 
ENDROOT
BRANCH   5   6
ATOM      6  C   UNL     1       0.473  10.763  18.903  0.00  0.00    +0.000 A 
ATOM      7  C   UNL     1      -0.897  10.737  18.615  0.00  0.00    +0.000 A 
ATOM      8  C   UNL     1      -1.648  11.893  18.790  0.00  0.00    +0.000 A 
ATOM      9  N   UNL     1      -1.138  13.060  19.234  0.00  0.00    +0.000 NA
ATOM     10  C   UNL     1       0.186  13.076  19.483  0.00  0.00    +0.000 A 
ATOM     11  C   UNL     1       1.018  11.980  19.321  0.00  0.00    +0.000 A 
ENDBRANCH   5   6
BRANCH   1  13
ATOM     12  C   UNL     1      -0.278   8.273  21.370  0.00  0.00    +0.000 C 
ATOM     13  C   UNL     1       1.171   8.520  20.980  0.00  0.00    +0.000 C 
ENDBRANCH   1  13
BRANCH   2  14
ATOM     14  S   UNL     1       2.961   6.121  19.450  0.00  0.00    +0.000 S 
BRANCH  14  15
ATOM     15  C   UNL     1       3.209   5.192  17.918  0.00  0.00    +0.000 C 
BRANCH  15  16
ATOM     16  C   UNL     1       4.629   5.342  17.406  0.00  0.00    +0.000 C 
ATOM     17  O   UNL     1       4.898   5.279  16.207  0.00  0.00    +0.000 OA
ATOM     18  N   UNL     1       5.568   5.538  18.397  0.00  0.00    +0.000 N 
ATOM     19  H   UNL     1       5.264   5.395  19.359  0.00  0.00    +0.000 HD
BRANCH  18  20
ATOM     20  C   UNL     1       7.007   5.740  18.172  0.00  0.00    +0.000 C 
ATOM     21  C   UNL     1       7.263   7.088  17.477  0.00  0.00    +0.000 C 
ATOM     22  C   UNL     1       7.707   5.763  19.542  0.00  0.00    +0.000 C 
ATOM     23  C   UNL     1       7.608   4.595  17.343  0.00  0.00    +0.000 C 
ENDBRANCH  18  20
ENDBRANCH  15  16
ENDBRANCH  14  15
ENDBRANCH   2  14
TORSDOF 6
ENDMDL
MODEL 6
REMARK VINA RESULT:      -6.4      4.698      7.423
REMARK  Name = 
REMARK  10 active torsions:
REMARK  status: ('A' for Active; 'I' for Inactive)
REMARK    1  A    between atoms: C_1  and  C_2
REMARK    2  A    between atoms: C_2  and  N_3
REMARK    3  A    between atoms: C_4  and  S_5
REMARK    4  A    between atoms: S_5  and  C_6
REMARK    5  A    between atoms: C_6  and  C_7
REMARK    6  A    between atoms: N_9  and  C_10
REMARK    7  A    between atoms: C_10  and  C_11
REMARK    8  A    between atoms: C_10  and  C_12
REMARK    9  A    between atoms: C_10  and  C_13
REMARK   10  A    between atoms: C_16  and  C_17
REMARK                            x       y       z     vdW  Elec       q    Type
REMARK                         _______ _______ _______ _____ _____    ______ ____
ROOT
ATOM      1  N   UNL     1       5.468   5.980  17.924  0.00  0.00    +0.000 N 
ATOM      2  C   UNL     1       6.772   6.387  18.067  0.00  0.00    +0.000 A 
ATOM      3  N   UNL     1       7.405   5.593  18.895  0.00  0.00    +0.000 NA
ATOM      4  N   UNL     1       6.509   4.667  19.353  0.00  0.00    +0.000 NA
ATOM      5  C   UNL     1       5.340   4.868  18.763  0.00  0.00    +0.000 A 
ENDROOT
BRANCH   5   6
ATOM      6  C   UNL     1       4.145   4.040  19.025  0.00  0.00    +0.000 A 
ATOM      7  C   UNL     1       3.913   2.907  18.238  0.00  0.00    +0.000 A 
ATOM      8  C   UNL     1       2.771   2.147  18.462  0.00  0.00    +0.000 A 
ATOM      9  N   UNL     1       1.856   2.431  19.412  0.00  0.00    +0.000 NA
ATOM     10  C   UNL     1       2.080   3.539  20.144  0.00  0.00    +0.000 A 
ATOM     11  C   UNL     1       3.180   4.367  19.980  0.00  0.00    +0.000 A 
ENDBRANCH   5   6
BRANCH   1  13
ATOM     12  C   UNL     1       3.346   7.452  17.696  0.00  0.00    +0.000 C 
ATOM     13  C   UNL     1       4.392   6.514  17.114  0.00  0.00    +0.000 C 
ENDBRANCH   1  13
BRANCH   2  14
ATOM     14  S   UNL     1       7.506   7.762  17.324  0.00  0.00    +0.000 S 
BRANCH  14  15
ATOM     15  C   UNL     1       8.506   8.444  18.668  0.00  0.00    +0.000 C 
BRANCH  15  16
ATOM     16  C   UNL     1       8.794   9.917  18.449  0.00  0.00    +0.000 C 
ATOM     17  O   UNL     1       8.133  10.601  17.668  0.00  0.00    +0.000 OA
ATOM     18  N   UNL     1       9.857  10.399  19.185  0.00  0.00    +0.000 N 
ATOM     19  H   UNL     1      10.442   9.712  19.659  0.00  0.00    +0.000 HD
BRANCH  18  20
ATOM     20  C   UNL     1      10.327  11.792  19.180  0.00  0.00    +0.000 C 
ATOM     21  C   UNL     1      10.599  12.267  17.743  0.00  0.00    +0.000 C 
ATOM     22  C   UNL     1       9.216  12.674  19.778  0.00  0.00    +0.000 C 
ATOM     23  C   UNL     1      11.588  11.958  20.040  0.00  0.00    +0.000 C 
ENDBRANCH  18  20
ENDBRANCH  15  16
ENDBRANCH  14  15
ENDBRANCH   2  14
TORSDOF 6
ENDMDL
MODEL 7
REMARK VINA RESULT:      -6.3      0.976      1.445
REMARK  Name = 
REMARK  10 active torsions:
REMARK  status: ('A' for Active; 'I' for Inactive)
REMARK    1  A    between atoms: C_1  and  C_2
REMARK    2  A    between atoms: C_2  and  N_3
REMARK    3  A    between atoms: C_4  and  S_5
REMARK    4  A    between atoms: S_5  and  C_6
REMARK    5  A    between atoms: C_6  and  C_7
REMARK    6  A    between atoms: N_9  and  C_10
REMARK    7  A    between atoms: C_10  and  C_11
REMARK    8  A    between atoms: C_10  and  C_12
REMARK    9  A    between atoms: C_10  and  C_13
REMARK   10  A    between atoms: C_16  and  C_17
REMARK                            x       y       z     vdW  Elec       q    Type
REMARK                         _______ _______ _______ _____ _____    ______ ____
ROOT
ATOM      1  N   UNL     1       1.619   8.312  19.490  0.00  0.00    +0.000 N 
ATOM      2  C   UNL     1       2.519   7.481  18.868  0.00  0.00    +0.000 A 
ATOM      3  N   UNL     1       2.866   7.979  17.707  0.00  0.00    +0.000 NA
ATOM      4  N   UNL     1       2.159   9.135  17.520  0.00  0.00    +0.000 NA
ATOM      5  C   UNL     1       1.418   9.367  18.593  0.00  0.00    +0.000 A 
ENDROOT
BRANCH   5   6
ATOM      6  C   UNL     1       0.530  10.540  18.730  0.00  0.00    +0.000 A 
ATOM      7  C   UNL     1       1.045  11.728  19.260  0.00  0.00    +0.000 A 
ATOM      8  C   UNL     1       0.202  12.821  19.419  0.00  0.00    +0.000 A 
ATOM      9  N   UNL     1      -1.105  12.815  19.084  0.00  0.00    +0.000 NA
ATOM     10  C   UNL     1      -1.592  11.657  18.600  0.00  0.00    +0.000 A 
ATOM     11  C   UNL     1      -0.832  10.511  18.423  0.00  0.00    +0.000 A 
ENDBRANCH   5   6
BRANCH   1  13
ATOM     12  C   UNL     1       1.410   9.049  21.967  0.00  0.00    +0.000 C 
ATOM     13  C   UNL     1       0.967   8.207  20.781  0.00  0.00    +0.000 C 
ENDBRANCH   1  13
BRANCH   2  14
ATOM     14  S   UNL     1       3.103   5.970  19.465  0.00  0.00    +0.000 S 
BRANCH  14  15
ATOM     15  C   UNL     1       3.060   4.926  17.989  0.00  0.00    +0.000 C 
BRANCH  15  16
ATOM     16  C   UNL     1       4.457   4.659  17.460  0.00  0.00    +0.000 C 
ATOM     17  O   UNL     1       4.768   3.579  16.959  0.00  0.00    +0.000 OA
ATOM     18  N   UNL     1       5.327   5.720  17.607  0.00  0.00    +0.000 N 
ATOM     19  H   UNL     1       5.018   6.495  18.191  0.00  0.00    +0.000 HD
BRANCH  18  20
ATOM     20  C   UNL     1       6.726   5.735  17.155  0.00  0.00    +0.000 C 
ATOM     21  C   UNL     1       7.356   7.119  17.387  0.00  0.00    +0.000 C 
ATOM     22  C   UNL     1       7.508   4.704  17.989  0.00  0.00    +0.000 C 
ATOM     23  C   UNL     1       6.840   5.343  15.675  0.00  0.00    +0.000 C 
ENDBRANCH  18  20
ENDBRANCH  15  16
ENDBRANCH  14  15
ENDBRANCH   2  14
TORSDOF 6
ENDMDL
MODEL 8
REMARK VINA RESULT:      -6.3      4.443      6.921
REMARK  Name = 
REMARK  10 active torsions:
REMARK  status: ('A' for Active; 'I' for Inactive)
REMARK    1  A    between atoms: C_1  and  C_2
REMARK    2  A    between atoms: C_2  and  N_3
REMARK    3  A    between atoms: C_4  and  S_5
REMARK    4  A    between atoms: S_5  and  C_6
REMARK    5  A    between atoms: C_6  and  C_7
REMARK    6  A    between atoms: N_9  and  C_10
REMARK    7  A    between atoms: C_10  and  C_11
REMARK    8  A    between atoms: C_10  and  C_12
REMARK    9  A    between atoms: C_10  and  C_13
REMARK   10  A    between atoms: C_16  and  C_17
REMARK                            x       y       z     vdW  Elec       q    Type
REMARK                         _______ _______ _______ _____ _____    ______ ____
ROOT
ATOM      1  N   UNL     1       5.054   5.926  17.998  0.00  0.00    +0.000 N 
ATOM      2  C   UNL     1       6.420   6.042  18.097  0.00  0.00    +0.000 A 
ATOM      3  N   UNL     1       6.887   5.162  18.947  0.00  0.00    +0.000 NA
ATOM      4  N   UNL     1       5.824   4.474  19.464  0.00  0.00    +0.000 NA
ATOM      5  C   UNL     1       4.711   4.903  18.889  0.00  0.00    +0.000 A 
ENDROOT
BRANCH   5   6
ATOM      6  C   UNL     1       3.371   4.369  19.211  0.00  0.00    +0.000 A 
ATOM      7  C   UNL     1       2.811   3.386  18.387  0.00  0.00    +0.000 A 
ATOM      8  C   UNL     1       1.538   2.909  18.672  0.00  0.00    +0.000 A 
ATOM      9  N   UNL     1       0.793   3.331  19.714  0.00  0.00    +0.000 NA
ATOM     10  C   UNL     1       1.335   4.295  20.483  0.00  0.00    +0.000 A 
ATOM     11  C   UNL     1       2.589   4.845  20.266  0.00  0.00    +0.000 A 
ENDBRANCH   5   6
BRANCH   1  13
ATOM     12  C   UNL     1       3.227   7.751  17.772  0.00  0.00    +0.000 C 
ATOM     13  C   UNL     1       4.098   6.650  17.186  0.00  0.00    +0.000 C 
ENDBRANCH   1  13
BRANCH   2  14
ATOM     14  S   UNL     1       7.414   7.191  17.278  0.00  0.00    +0.000 S 
BRANCH  14  15
ATOM     15  C   UNL     1       8.438   7.844  18.618  0.00  0.00    +0.000 C 
BRANCH  15  16
ATOM     16  C   UNL     1       8.585   9.351  18.516  0.00  0.00    +0.000 C 
ATOM     17  O   UNL     1       7.935  10.015  17.709  0.00  0.00    +0.000 OA
ATOM     18  N   UNL     1       9.508   9.888  19.389  0.00  0.00    +0.000 N 
ATOM     19  H   UNL     1      10.114   9.234  19.883  0.00  0.00    +0.000 HD
BRANCH  18  20
ATOM     20  C   UNL     1       9.822  11.319  19.514  0.00  0.00    +0.000 C 
ATOM     21  C   UNL     1       9.147  11.915  20.761  0.00  0.00    +0.000 C 
ATOM     22  C   UNL     1      11.346  11.461  19.677  0.00  0.00    +0.000 C 
ATOM     23  C   UNL     1       9.397  12.096  18.260  0.00  0.00    +0.000 C 
ENDBRANCH  18  20
ENDBRANCH  15  16
ENDBRANCH  14  15
ENDBRANCH   2  14
TORSDOF 6
ENDMDL
MODEL 9
REMARK VINA RESULT:      -6.3      0.984      1.412
REMARK  Name = 
REMARK  10 active torsions:
REMARK  status: ('A' for Active; 'I' for Inactive)
REMARK    1  A    between atoms: C_1  and  C_2
REMARK    2  A    between atoms: C_2  and  N_3
REMARK    3  A    between atoms: C_4  and  S_5
REMARK    4  A    between atoms: S_5  and  C_6
REMARK    5  A    between atoms: C_6  and  C_7
REMARK    6  A    between atoms: N_9  and  C_10
REMARK    7  A    between atoms: C_10  and  C_11
REMARK    8  A    between atoms: C_10  and  C_12
REMARK    9  A    between atoms: C_10  and  C_13
REMARK   10  A    between atoms: C_16  and  C_17
REMARK                            x       y       z     vdW  Elec       q    Type
REMARK                         _______ _______ _______ _____ _____    ______ ____
ROOT
ATOM      1  N   UNL     1       1.565   8.443  19.517  0.00  0.00    +0.000 N 
ATOM      2  C   UNL     1       2.444   7.620  18.856  0.00  0.00    +0.000 A 
ATOM      3  N   UNL     1       2.774   8.146  17.702  0.00  0.00    +0.000 NA
ATOM      4  N   UNL     1       2.078   9.314  17.560  0.00  0.00    +0.000 NA
ATOM      5  C   UNL     1       1.359   9.525  18.653  0.00  0.00    +0.000 A 
ENDROOT
BRANCH   5   6
ATOM      6  C   UNL     1       0.487  10.703  18.838  0.00  0.00    +0.000 A 
ATOM      7  C   UNL     1      -0.867  10.611  18.494  0.00  0.00    +0.000 A 
ATOM      8  C   UNL     1      -1.679  11.729  18.638  0.00  0.00    +0.000 A 
ATOM      9  N   UNL     1      -1.245  12.918  19.103  0.00  0.00    +0.000 NA
ATOM     10  C   UNL     1       0.065  12.998  19.406  0.00  0.00    +0.000 A 
ATOM     11  C   UNL     1       0.955  11.943  19.279  0.00  0.00    +0.000 A 
ENDBRANCH   5   6
BRANCH   1  13
ATOM     12  C   UNL     1       1.393   9.134  22.010  0.00  0.00    +0.000 C 
ATOM     13  C   UNL     1       0.936   8.311  20.816  0.00  0.00    +0.000 C 
ENDBRANCH   1  13
BRANCH   2  14
ATOM     14  S   UNL     1       3.022   6.087  19.400  0.00  0.00    +0.000 S 
BRANCH  14  15
ATOM     15  C   UNL     1       3.249   5.184  17.849  0.00  0.00    +0.000 C 
BRANCH  15  16
ATOM     16  C   UNL     1       4.678   5.296  17.350  0.00  0.00    +0.000 C 
ATOM     17  O   UNL     1       4.958   5.210  16.156  0.00  0.00    +0.000 OA
ATOM     18  N   UNL     1       5.611   5.486  18.350  0.00  0.00    +0.000 N 
ATOM     19  H   UNL     1       5.293   5.364  19.309  0.00  0.00    +0.000 HD
BRANCH  18  20
ATOM     20  C   UNL     1       7.056   5.653  18.137  0.00  0.00    +0.000 C 
ATOM     21  C   UNL     1       7.615   4.502  17.284  0.00  0.00    +0.000 C 
ATOM     22  C   UNL     1       7.277   6.971  17.373  0.00  0.00    +0.000 C 
ATOM     23  C   UNL     1       7.810   5.737  19.471  0.00  0.00    +0.000 C 
ENDBRANCH  18  20
ENDBRANCH  15  16
ENDBRANCH  14  15
ENDBRANCH   2  14
TORSDOF 6
ENDMDL
