MODEL 1
REMARK VINA RESULT:      -6.0      0.000      0.000
REMARK  Name = 
REMARK  10 active torsions:
REMARK  status: ('A' for Active; 'I' for Inactive)
REMARK    1  A    between atoms: C_1  and  C_2
REMARK    2  A    between atoms: C_2  and  C_3
REMARK    3  A    between atoms: C_3  and  C_4
REMARK    4  A    between atoms: C_3  and  N_12
REMARK    5  A    between atoms: C_7  and  O_8
REMARK    6  A    between atoms: O_8  and  C_9
REMARK    7  A    between atoms: N_12  and  C_13
REMARK    8  A    between atoms: N_12  and  C_14
REMARK    9  A    between atoms: C_14  and  C_15
REMARK   10  A    between atoms: C_15  and  O_16
REMARK                            x       y       z     vdW  Elec       q    Type
REMARK                         _______ _______ _______ _____ _____    ______ ____
ROOT
ATOM      1  C   UNL     1       6.147   5.072  16.103  0.00  0.00    +0.000 C 
ENDROOT
BRANCH   1   2
ATOM      2  C   UNL     1       4.880   4.898  16.957  0.00  0.00    +0.000 A 
ATOM      3  C   UNL     1       4.391   3.632  17.316  0.00  0.00    +0.000 A 
ATOM      4  C   UNL     1       3.219   3.494  18.065  0.00  0.00    +0.000 A 
ATOM      5  C   UNL     1       2.485   4.611  18.455  0.00  0.00    +0.000 A 
ATOM      6  C   UNL     1       2.930   5.877  18.077  0.00  0.00    +0.000 A 
ATOM      7  C   UNL     1       4.122   6.019  17.346  0.00  0.00    +0.000 A 
BRANCH   5   8
ATOM      8  O   UNL     1       1.346   4.330  19.152  0.00  0.00    +0.000 OA
ATOM      9  C   UNL     1       1.515   3.939  20.508  0.00  0.00    +0.000 C 
ENDBRANCH   5   8
ENDBRANCH   1   2
BRANCH   1  11
ATOM     10  C   UNL     1       6.247   4.091  13.726  0.00  0.00    +0.000 C 
ATOM     11  C   UNL     1       6.415   3.821  15.221  0.00  0.00    +0.000 C 
ENDBRANCH   1  11
BRANCH   1  12
ATOM     12  N   UNL     1       7.328   5.566  16.883  0.00  0.00    +0.000 NA
ATOM     13  C   UNL     1       7.320   7.015  17.118  0.00  0.00    +0.000 C 
BRANCH  12  14
ATOM     14  C   UNL     1       7.509   4.894  18.201  0.00  0.00    +0.000 C 
BRANCH  14  15
ATOM     15  C   UNL     1       7.522   5.845  19.404  0.00  0.00    +0.000 C 
BRANCH  15  16
ATOM     16  O   UNL     1       8.169   5.226  20.511  0.00  0.00    +0.000 OA
ATOM     17  H   UNL     1       8.503   4.371  20.174  0.00  0.00    +0.000 HD
ENDBRANCH  15  16
ENDBRANCH  14  15
ENDBRANCH  12  14
ENDBRANCH   1  12
TORSDOF 7
ENDMDL
MODEL 2
REMARK VINA RESULT:      -6.0      2.563      5.325
REMARK  Name = 
REMARK  10 active torsions:
REMARK  status: ('A' for Active; 'I' for Inactive)
REMARK    1  A    between atoms: C_1  and  C_2
REMARK    2  A    between atoms: C_2  and  C_3
REMARK    3  A    between atoms: C_3  and  C_4
REMARK    4  A    between atoms: C_3  and  N_12
REMARK    5  A    between atoms: C_7  and  O_8
REMARK    6  A    between atoms: O_8  and  C_9
REMARK    7  A    between atoms: N_12  and  C_13
REMARK    8  A    between atoms: N_12  and  C_14
REMARK    9  A    between atoms: C_14  and  C_15
REMARK   10  A    between atoms: C_15  and  O_16
REMARK                            x       y       z     vdW  Elec       q    Type
REMARK                         _______ _______ _______ _____ _____    ______ ____
ROOT
ATOM      1  C   UNL     1       3.834   3.971  18.814  0.00  0.00    +0.000 C 
ENDROOT
BRANCH   1   2
ATOM      2  C   UNL     1       4.891   4.950  18.275  0.00  0.00    +0.000 A 
ATOM      3  C   UNL     1       6.151   5.091  18.877  0.00  0.00    +0.000 A 
ATOM      4  C   UNL     1       7.086   6.009  18.391  0.00  0.00    +0.000 A 
ATOM      5  C   UNL     1       6.784   6.833  17.310  0.00  0.00    +0.000 A 
ATOM      6  C   UNL     1       5.526   6.736  16.720  0.00  0.00    +0.000 A 
ATOM      7  C   UNL     1       4.593   5.796  17.190  0.00  0.00    +0.000 A 
BRANCH   5   8
ATOM      8  O   UNL     1       7.776   7.704  16.962  0.00  0.00    +0.000 OA
ATOM      9  C   UNL     1       8.041   8.759  17.876  0.00  0.00    +0.000 C 
ENDBRANCH   5   8
ENDBRANCH   1   2
BRANCH   1  11
ATOM     10  C   UNL     1       3.687   1.415  18.554  0.00  0.00    +0.000 C 
ATOM     11  C   UNL     1       3.626   2.771  17.851  0.00  0.00    +0.000 C 
ENDBRANCH   1  11
BRANCH   1  12
ATOM     12  N   UNL     1       2.577   4.646  19.273  0.00  0.00    +0.000 NA
ATOM     13  C   UNL     1       1.362   4.151  18.614  0.00  0.00    +0.000 C 
BRANCH  12  14
ATOM     14  C   UNL     1       2.355   4.579  20.745  0.00  0.00    +0.000 C 
BRANCH  14  15
ATOM     15  C   UNL     1       1.731   3.266  21.236  0.00  0.00    +0.000 C 
BRANCH  15  16
ATOM     16  O   UNL     1       2.659   2.558  22.050  0.00  0.00    +0.000 OA
ATOM     17  H   UNL     1       2.428   2.789  22.972  0.00  0.00    +0.000 HD
ENDBRANCH  15  16
ENDBRANCH  14  15
ENDBRANCH  12  14
ENDBRANCH   1  12
TORSDOF 7
ENDMDL
MODEL 3
REMARK VINA RESULT:      -5.8      0.969      1.064
REMARK  Name = 
REMARK  10 active torsions:
REMARK  status: ('A' for Active; 'I' for Inactive)
REMARK    1  A    between atoms: C_1  and  C_2
REMARK    2  A    between atoms: C_2  and  C_3
REMARK    3  A    between atoms: C_3  and  C_4
REMARK    4  A    between atoms: C_3  and  N_12
REMARK    5  A    between atoms: C_7  and  O_8
REMARK    6  A    between atoms: O_8  and  C_9
REMARK    7  A    between atoms: N_12  and  C_13
REMARK    8  A    between atoms: N_12  and  C_14
REMARK    9  A    between atoms: C_14  and  C_15
REMARK   10  A    between atoms: C_15  and  O_16
REMARK                            x       y       z     vdW  Elec       q    Type
REMARK                         _______ _______ _______ _____ _____    ______ ____
ROOT
ATOM      1  C   UNL     1       5.564   6.140  16.404  0.00  0.00    +0.000 C 
ENDROOT
BRANCH   1   2
ATOM      2  C   UNL     1       4.387   5.559  17.206  0.00  0.00    +0.000 A 
ATOM      3  C   UNL     1       4.021   4.207  17.117  0.00  0.00    +0.000 A 
ATOM      4  C   UNL     1       2.928   3.705  17.829  0.00  0.00    +0.000 A 
ATOM      5  C   UNL     1       2.151   4.540  18.627  0.00  0.00    +0.000 A 
ATOM      6  C   UNL     1       2.472   5.894  18.700  0.00  0.00    +0.000 A 
ATOM      7  C   UNL     1       3.586   6.395  18.006  0.00  0.00    +0.000 A 
BRANCH   5   8
ATOM      8  O   UNL     1       1.096   3.925  19.238  0.00  0.00    +0.000 OA
ATOM      9  C   UNL     1       0.927   2.541  18.966  0.00  0.00    +0.000 C 
ENDBRANCH   5   8
ENDBRANCH   1   2
BRANCH   1  11
ATOM     10  C   UNL     1       7.011   4.617  14.918  0.00  0.00    +0.000 C 
ATOM     11  C   UNL     1       5.723   5.431  15.031  0.00  0.00    +0.000 C 
ENDBRANCH   1  11
BRANCH   1  12
ATOM     12  N   UNL     1       6.824   6.269  17.205  0.00  0.00    +0.000 NA
ATOM     13  C   UNL     1       7.273   7.655  17.389  0.00  0.00    +0.000 C 
BRANCH  12  14
ATOM     14  C   UNL     1       6.757   5.631  18.549  0.00  0.00    +0.000 C 
BRANCH  14  15
ATOM     15  C   UNL     1       8.111   5.481  19.252  0.00  0.00    +0.000 C 
BRANCH  15  16
ATOM     16  O   UNL     1       7.930   5.442  20.664  0.00  0.00    +0.000 OA
ATOM     17  H   UNL     1       7.315   6.174  20.868  0.00  0.00    +0.000 HD
ENDBRANCH  15  16
ENDBRANCH  14  15
ENDBRANCH  12  14
ENDBRANCH   1  12
TORSDOF 7
ENDMDL
MODEL 4
REMARK VINA RESULT:      -5.8      2.804      5.295
REMARK  Name = 
REMARK  10 active torsions:
REMARK  status: ('A' for Active; 'I' for Inactive)
REMARK    1  A    between atoms: C_1  and  C_2
REMARK    2  A    between atoms: C_2  and  C_3
REMARK    3  A    between atoms: C_3  and  C_4
REMARK    4  A    between atoms: C_3  and  N_12
REMARK    5  A    between atoms: C_7  and  O_8
REMARK    6  A    between atoms: O_8  and  C_9
REMARK    7  A    between atoms: N_12  and  C_13
REMARK    8  A    between atoms: N_12  and  C_14
REMARK    9  A    between atoms: C_14  and  C_15
REMARK   10  A    between atoms: C_15  and  O_16
REMARK                            x       y       z     vdW  Elec       q    Type
REMARK                         _______ _______ _______ _____ _____    ______ ____
ROOT
ATOM      1  C   UNL     1       3.376   4.521  18.771  0.00  0.00    +0.000 C 
ENDROOT
BRANCH   1   2
ATOM      2  C   UNL     1       4.578   5.394  18.369  0.00  0.00    +0.000 A 
ATOM      3  C   UNL     1       4.497   6.343  17.338  0.00  0.00    +0.000 A 
ATOM      4  C   UNL     1       5.609   7.104  16.966  0.00  0.00    +0.000 A 
ATOM      5  C   UNL     1       6.840   6.923  17.591  0.00  0.00    +0.000 A 
ATOM      6  C   UNL     1       6.953   5.960  18.592  0.00  0.00    +0.000 A 
ATOM      7  C   UNL     1       5.830   5.212  18.985  0.00  0.00    +0.000 A 
BRANCH   5   8
ATOM      8  O   UNL     1       7.847   7.708  17.107  0.00  0.00    +0.000 OA
ATOM      9  C   UNL     1       8.215   8.826  17.904  0.00  0.00    +0.000 C 
ENDBRANCH   5   8
ENDBRANCH   1   2
BRANCH   1  11
ATOM     10  C   UNL     1       1.235   3.954  17.461  0.00  0.00    +0.000 C 
ATOM     11  C   UNL     1       2.056   5.047  18.144  0.00  0.00    +0.000 C 
ENDBRANCH   1  11
BRANCH   1  12
ATOM     12  N   UNL     1       3.314   4.233  20.240  0.00  0.00    +0.000 NA
ATOM     13  C   UNL     1       2.175   4.862  20.921  0.00  0.00    +0.000 C 
BRANCH  12  14
ATOM     14  C   UNL     1       3.298   2.782  20.574  0.00  0.00    +0.000 C 
BRANCH  14  15
ATOM     15  C   UNL     1       4.009   1.885  19.553  0.00  0.00    +0.000 C 
BRANCH  15  16
ATOM     16  O   UNL     1       5.208   1.360  20.112  0.00  0.00    +0.000 OA
ATOM     17  H   UNL     1       5.814   1.229  19.356  0.00  0.00    +0.000 HD
ENDBRANCH  15  16
ENDBRANCH  14  15
ENDBRANCH  12  14
ENDBRANCH   1  12
TORSDOF 7
ENDMDL
MODEL 5
REMARK VINA RESULT:      -5.8      2.342      5.705
REMARK  Name = 
REMARK  10 active torsions:
REMARK  status: ('A' for Active; 'I' for Inactive)
REMARK    1  A    between atoms: C_1  and  C_2
REMARK    2  A    between atoms: C_2  and  C_3
REMARK    3  A    between atoms: C_3  and  C_4
REMARK    4  A    between atoms: C_3  and  N_12
REMARK    5  A    between atoms: C_7  and  O_8
REMARK    6  A    between atoms: O_8  and  C_9
REMARK    7  A    between atoms: N_12  and  C_13
REMARK    8  A    between atoms: N_12  and  C_14
REMARK    9  A    between atoms: C_14  and  C_15
REMARK   10  A    between atoms: C_15  and  O_16
REMARK                            x       y       z     vdW  Elec       q    Type
REMARK                         _______ _______ _______ _____ _____    ______ ____
ROOT
ATOM      1  C   UNL     1       3.486   4.559  18.350  0.00  0.00    +0.000 C 
ENDROOT
BRANCH   1   2
ATOM      2  C   UNL     1       4.634   4.826  17.362  0.00  0.00    +0.000 A 
ATOM      3  C   UNL     1       4.770   4.104  16.166  0.00  0.00    +0.000 A 
ATOM      4  C   UNL     1       5.838   4.339  15.296  0.00  0.00    +0.000 A 
ATOM      5  C   UNL     1       6.817   5.281  15.604  0.00  0.00    +0.000 A 
ATOM      6  C   UNL     1       6.723   5.983  16.804  0.00  0.00    +0.000 A 
ATOM      7  C   UNL     1       5.636   5.767  17.668  0.00  0.00    +0.000 A 
BRANCH   5   8
ATOM      8  O   UNL     1       7.819   5.385  14.683  0.00  0.00    +0.000 OA
ATOM      9  C   UNL     1       7.499   4.995  13.354  0.00  0.00    +0.000 C 
ENDBRANCH   5   8
ENDBRANCH   1   2
BRANCH   1  11
ATOM     10  C   UNL     1       2.506   6.648  19.490  0.00  0.00    +0.000 C 
ATOM     11  C   UNL     1       3.543   5.528  19.563  0.00  0.00    +0.000 C 
ENDBRANCH   1  11
BRANCH   1  12
ATOM     12  N   UNL     1       3.325   3.111  18.699  0.00  0.00    +0.000 NA
ATOM     13  C   UNL     1       3.993   2.722  19.947  0.00  0.00    +0.000 C 
BRANCH  12  14
ATOM     14  C   UNL     1       1.908   2.660  18.783  0.00  0.00    +0.000 C 
BRANCH  14  15
ATOM     15  C   UNL     1       1.343   2.598  20.207  0.00  0.00    +0.000 C 
BRANCH  15  16
ATOM     16  O   UNL     1       0.476   3.703  20.439  0.00  0.00    +0.000 OA
ATOM     17  H   UNL     1       0.272   4.066  19.555  0.00  0.00    +0.000 HD
ENDBRANCH  15  16
ENDBRANCH  14  15
ENDBRANCH  12  14
ENDBRANCH   1  12
TORSDOF 7
ENDMDL
MODEL 6
REMARK VINA RESULT:      -5.7      0.823      1.439
REMARK  Name = 
REMARK  10 active torsions:
REMARK  status: ('A' for Active; 'I' for Inactive)
REMARK    1  A    between atoms: C_1  and  C_2
REMARK    2  A    between atoms: C_2  and  C_3
REMARK    3  A    between atoms: C_3  and  C_4
REMARK    4  A    between atoms: C_3  and  N_12
REMARK    5  A    between atoms: C_7  and  O_8
REMARK    6  A    between atoms: O_8  and  C_9
REMARK    7  A    between atoms: N_12  and  C_13
REMARK    8  A    between atoms: N_12  and  C_14
REMARK    9  A    between atoms: C_14  and  C_15
REMARK   10  A    between atoms: C_15  and  O_16
REMARK                            x       y       z     vdW  Elec       q    Type
REMARK                         _______ _______ _______ _____ _____    ______ ____
ROOT
ATOM      1  C   UNL     1       5.837   5.838  15.954  0.00  0.00    +0.000 C 
ENDROOT
BRANCH   1   2
ATOM      2  C   UNL     1       4.707   5.553  16.959  0.00  0.00    +0.000 A 
ATOM      3  C   UNL     1       4.158   6.560  17.768  0.00  0.00    +0.000 A 
ATOM      4  C   UNL     1       3.154   6.274  18.698  0.00  0.00    +0.000 A 
ATOM      5  C   UNL     1       2.688   4.973  18.869  0.00  0.00    +0.000 A 
ATOM      6  C   UNL     1       3.245   3.951  18.102  0.00  0.00    +0.000 A 
ATOM      7  C   UNL     1       4.236   4.240  17.149  0.00  0.00    +0.000 A 
BRANCH   5   8
ATOM      8  O   UNL     1       1.731   4.832  19.832  0.00  0.00    +0.000 OA
ATOM      9  C   UNL     1       2.116   4.132  21.008  0.00  0.00    +0.000 C 
ENDBRANCH   5   8
ENDBRANCH   1   2
BRANCH   1  11
ATOM     10  C   UNL     1       7.132   4.658  14.070  0.00  0.00    +0.000 C 
ATOM     11  C   UNL     1       5.775   4.872  14.740  0.00  0.00    +0.000 C 
ENDBRANCH   1  11
BRANCH   1  12
ATOM     12  N   UNL     1       7.184   5.971  16.596  0.00  0.00    +0.000 NA
ATOM     13  C   UNL     1       7.451   7.306  17.147  0.00  0.00    +0.000 C 
BRANCH  12  14
ATOM     14  C   UNL     1       7.444   4.976  17.673  0.00  0.00    +0.000 C 
BRANCH  14  15
ATOM     15  C   UNL     1       7.803   5.587  19.034  0.00  0.00    +0.000 C 
BRANCH  15  16
ATOM     16  O   UNL     1       6.783   5.301  19.984  0.00  0.00    +0.000 OA
ATOM     17  H   UNL     1       7.092   4.511  20.470  0.00  0.00    +0.000 HD
ENDBRANCH  15  16
ENDBRANCH  14  15
ENDBRANCH  12  14
ENDBRANCH   1  12
TORSDOF 7
ENDMDL
MODEL 7
REMARK VINA RESULT:      -5.7      2.417      5.238
REMARK  Name = 
REMARK  10 active torsions:
REMARK  status: ('A' for Active; 'I' for Inactive)
REMARK    1  A    between atoms: C_1  and  C_2
REMARK    2  A    between atoms: C_2  and  C_3
REMARK    3  A    between atoms: C_3  and  C_4
REMARK    4  A    between atoms: C_3  and  N_12
REMARK    5  A    between atoms: C_7  and  O_8
REMARK    6  A    between atoms: O_8  and  C_9
REMARK    7  A    between atoms: N_12  and  C_13
REMARK    8  A    between atoms: N_12  and  C_14
REMARK    9  A    between atoms: C_14  and  C_15
REMARK   10  A    between atoms: C_15  and  O_16
REMARK                            x       y       z     vdW  Elec       q    Type
REMARK                         _______ _______ _______ _____ _____    ______ ____
ROOT
ATOM      1  C   UNL     1       3.084   5.405  18.521  0.00  0.00    +0.000 C 
ENDROOT
BRANCH   1   2
ATOM      2  C   UNL     1       4.310   5.406  17.592  0.00  0.00    +0.000 A 
ATOM      3  C   UNL     1       4.411   4.542  16.491  0.00  0.00    +0.000 A 
ATOM      4  C   UNL     1       5.548   4.535  15.678  0.00  0.00    +0.000 A 
ATOM      5  C   UNL     1       6.629   5.367  15.955  0.00  0.00    +0.000 A 
ATOM      6  C   UNL     1       6.567   6.207  17.065  0.00  0.00    +0.000 A 
ATOM      7  C   UNL     1       5.414   6.234  17.869  0.00  0.00    +0.000 A 
BRANCH   5   8
ATOM      8  O   UNL     1       7.685   5.234  15.100  0.00  0.00    +0.000 OA
ATOM      9  C   UNL     1       7.371   4.923  13.750  0.00  0.00    +0.000 C 
ENDBRANCH   5   8
ENDBRANCH   1   2
BRANCH   1  11
ATOM     10  C   UNL     1       2.207   7.756  17.947  0.00  0.00    +0.000 C 
ATOM     11  C   UNL     1       2.759   6.835  19.034  0.00  0.00    +0.000 C 
ENDBRANCH   1  11
BRANCH   1  12
ATOM     12  N   UNL     1       3.138   4.345  19.578  0.00  0.00    +0.000 NA
ATOM     13  C   UNL     1       2.394   4.683  20.797  0.00  0.00    +0.000 C 
BRANCH  12  14
ATOM     14  C   UNL     1       2.672   3.006  19.119  0.00  0.00    +0.000 C 
BRANCH  14  15
ATOM     15  C   UNL     1       3.757   1.922  19.109  0.00  0.00    +0.000 C 
BRANCH  15  16
ATOM     16  O   UNL     1       5.005   2.474  19.513  0.00  0.00    +0.000 OA
ATOM     17  H   UNL     1       5.318   1.906  20.244  0.00  0.00    +0.000 HD
ENDBRANCH  15  16
ENDBRANCH  14  15
ENDBRANCH  12  14
ENDBRANCH   1  12
TORSDOF 7
ENDMDL
MODEL 8
REMARK VINA RESULT:      -5.7      2.465      5.738
REMARK  Name = 
REMARK  10 active torsions:
REMARK  status: ('A' for Active; 'I' for Inactive)
REMARK    1  A    between atoms: C_1  and  C_2
REMARK    2  A    between atoms: C_2  and  C_3
REMARK    3  A    between atoms: C_3  and  C_4
REMARK    4  A    between atoms: C_3  and  N_12
REMARK    5  A    between atoms: C_7  and  O_8
REMARK    6  A    between atoms: O_8  and  C_9
REMARK    7  A    between atoms: N_12  and  C_13
REMARK    8  A    between atoms: N_12  and  C_14
REMARK    9  A    between atoms: C_14  and  C_15
REMARK   10  A    between atoms: C_15  and  O_16
REMARK                            x       y       z     vdW  Elec       q    Type
REMARK                         _______ _______ _______ _____ _____    ______ ____
ROOT
ATOM      1  C   UNL     1       3.675   4.251  18.931  0.00  0.00    +0.000 C 
ENDROOT
BRANCH   1   2
ATOM      2  C   UNL     1       4.771   5.167  18.358  0.00  0.00    +0.000 A 
ATOM      3  C   UNL     1       6.037   5.277  18.956  0.00  0.00    +0.000 A 
ATOM      4  C   UNL     1       7.008   6.139  18.440  0.00  0.00    +0.000 A 
ATOM      5  C   UNL     1       6.739   6.937  17.331  0.00  0.00    +0.000 A 
ATOM      6  C   UNL     1       5.476   6.872  16.744  0.00  0.00    +0.000 A 
ATOM      7  C   UNL     1       4.507   5.987  17.246  0.00  0.00    +0.000 A 
BRANCH   5   8
ATOM      8  O   UNL     1       7.765   7.755  16.954  0.00  0.00    +0.000 OA
ATOM      9  C   UNL     1       8.140   8.766  17.879  0.00  0.00    +0.000 C 
ENDBRANCH   5   8
ENDBRANCH   1   2
BRANCH   1  11
ATOM     10  C   UNL     1       1.855   5.429  20.317  0.00  0.00    +0.000 C 
ATOM     11  C   UNL     1       3.212   4.728  20.335  0.00  0.00    +0.000 C 
ENDBRANCH   1  11
BRANCH   1  12
ATOM     12  N   UNL     1       4.004   2.793  18.828  0.00  0.00    +0.000 NA
ATOM     13  C   UNL     1       4.307   2.160  20.118  0.00  0.00    +0.000 C 
BRANCH  12  14
ATOM     14  C   UNL     1       2.951   1.979  18.160  0.00  0.00    +0.000 C 
BRANCH  14  15
ATOM     15  C   UNL     1       1.633   1.878  18.938  0.00  0.00    +0.000 C 
BRANCH  15  16
ATOM     16  O   UNL     1       0.626   2.654  18.299  0.00  0.00    +0.000 OA
ATOM     17  H   UNL     1       0.262   3.235  18.996  0.00  0.00    +0.000 HD
ENDBRANCH  15  16
ENDBRANCH  14  15
ENDBRANCH  12  14
ENDBRANCH   1  12
TORSDOF 7
ENDMDL
MODEL 9
REMARK VINA RESULT:      -5.6      1.396      2.054
REMARK  Name = 
REMARK  10 active torsions:
REMARK  status: ('A' for Active; 'I' for Inactive)
REMARK    1  A    between atoms: C_1  and  C_2
REMARK    2  A    between atoms: C_2  and  C_3
REMARK    3  A    between atoms: C_3  and  C_4
REMARK    4  A    between atoms: C_3  and  N_12
REMARK    5  A    between atoms: C_7  and  O_8
REMARK    6  A    between atoms: O_8  and  C_9
REMARK    7  A    between atoms: N_12  and  C_13
REMARK    8  A    between atoms: N_12  and  C_14
REMARK    9  A    between atoms: C_14  and  C_15
REMARK   10  A    between atoms: C_15  and  O_16
REMARK                            x       y       z     vdW  Elec       q    Type
REMARK                         _______ _______ _______ _____ _____    ______ ____
ROOT
ATOM      1  C   UNL     1       4.782   4.782  16.329  0.00  0.00    +0.000 C 
ENDROOT
BRANCH   1   2
ATOM      2  C   UNL     1       3.773   4.131  17.291  0.00  0.00    +0.000 A 
ATOM      3  C   UNL     1       2.657   4.827  17.782  0.00  0.00    +0.000 A 
ATOM      4  C   UNL     1       1.769   4.229  18.681  0.00  0.00    +0.000 A 
ATOM      5  C   UNL     1       1.982   2.931  19.138  0.00  0.00    +0.000 A 
ATOM      6  C   UNL     1       3.104   2.234  18.693  0.00  0.00    +0.000 A 
ATOM      7  C   UNL     1       3.983   2.825  17.769  0.00  0.00    +0.000 A 
BRANCH   5   8
ATOM      8  O   UNL     1       1.056   2.484  20.036  0.00  0.00    +0.000 OA
ATOM      9  C   UNL     1       1.328   2.745  21.407  0.00  0.00    +0.000 C 
ENDBRANCH   5   8
ENDBRANCH   1   2
BRANCH   1  11
ATOM     10  C   UNL     1       6.073   4.115  14.205  0.00  0.00    +0.000 C 
ATOM     11  C   UNL     1       5.663   3.716  15.622  0.00  0.00    +0.000 C 
ENDBRANCH   1  11
BRANCH   1  12
ATOM     12  N   UNL     1       5.532   5.927  16.938  0.00  0.00    +0.000 NA
ATOM     13  C   UNL     1       4.759   7.173  17.010  0.00  0.00    +0.000 C 
BRANCH  12  14
ATOM     14  C   UNL     1       6.067   5.646  18.300  0.00  0.00    +0.000 C 
BRANCH  14  15
ATOM     15  C   UNL     1       7.595   5.532  18.373  0.00  0.00    +0.000 C 
BRANCH  15  16
ATOM     16  O   UNL     1       8.001   4.200  18.077  0.00  0.00    +0.000 OA
ATOM     17  H   UNL     1       7.174   3.691  17.973  0.00  0.00    +0.000 HD
ENDBRANCH  15  16
ENDBRANCH  14  15
ENDBRANCH  12  14
ENDBRANCH   1  12
TORSDOF 7
ENDMDL
