MODEL 1
REMARK VINA RESULT:      -9.1      0.000      0.000
REMARK  Name = 
REMARK  5 active torsions:
REMARK  status: ('A' for Active; 'I' for Inactive)
REMARK    1  A    between atoms: C_5  and  N_6
REMARK    2  A    between atoms: N_6  and  C_7
REMARK    3  A    between atoms: C_13  and  C_14
REMARK    4  A    between atoms: C_17  and  C_18
REMARK    5  A    between atoms: C_18  and  N_19
REMARK                            x       y       z     vdW  Elec       q    Type
REMARK                         _______ _______ _______ _____ _____    ______ ____
ROOT
ATOM      1  C   UNL     1       1.834   8.011  19.887  0.00  0.00    +0.000 A 
ATOM      2  C   UNL     1       2.126   8.251  18.544  0.00  0.00    +0.000 A 
ATOM      3  C   UNL     1       1.622   9.389  17.948  0.00  0.00    +0.000 A 
ATOM      4  N   UNL     1       0.865  10.298  18.589  0.00  0.00    +0.000 NA
ATOM      5  C   UNL     1       0.592  10.093  19.887  0.00  0.00    +0.000 A 
ATOM      6  C   UNL     1      -0.155  11.048  20.564  0.00  0.00    +0.000 A 
ATOM      7  C   UNL     1      -0.455  10.930  21.927  0.00  0.00    +0.000 A 
ATOM      8  C   UNL     1      -0.016   9.806  22.617  0.00  0.00    +0.000 A 
ATOM      9  C   UNL     1       0.738   8.835  21.966  0.00  0.00    +0.000 A 
ATOM     10  C   UNL     1       1.054   8.959  20.593  0.00  0.00    +0.000 A 
ENDROOT
BRANCH   7  11
ATOM     11  C   UNL     1      -1.161  11.978  22.638  0.00  0.00    +0.000 A 
ATOM     12  C   UNL     1      -0.863  13.280  22.982  0.00  0.00    +0.000 A 
ATOM     13  C   UNL     1      -2.037  13.821  23.562  0.00  0.00    +0.000 A 
ATOM     14  C   UNL     1      -2.979  12.814  23.543  0.00  0.00    +0.000 A 
ATOM     15  O   UNL     1      -2.442  11.684  23.000  0.00  0.00    +0.000 OA
BRANCH  14  16
ATOM     16  C   UNL     1      -4.392  12.709  24.005  0.00  0.00    +0.000 C 
BRANCH  16  17
ATOM     17  N   UNL     1      -5.292  13.725  23.426  0.00  0.00    +0.000 NA
ATOM     18  C   UNL     1      -6.668  13.547  23.950  0.00  0.00    +0.000 C 
ATOM     19  C   UNL     1      -7.411  12.323  23.378  0.00  0.00    +0.000 C 
ATOM     20  O   UNL     1      -7.432  12.333  21.947  0.00  0.00    +0.000 OA
ATOM     21  C   UNL     1      -6.108  12.430  21.404  0.00  0.00    +0.000 C 
ATOM     22  C   UNL     1      -5.374  13.667  21.947  0.00  0.00    +0.000 C 
ENDBRANCH  16  17
ENDBRANCH  14  16
ENDBRANCH   7  11
BRANCH   1  23
ATOM     23  N   UNL     1       2.324   6.860  20.562  0.00  0.00    +0.000 N 
ATOM     24  H   UNL     1       2.312   6.990  21.573  0.00  0.00    +0.000 HD
BRANCH  23  29
ATOM     25  F   UNL     1       1.935   1.481  19.277  0.00  0.00    +0.000 F 
ATOM     26  C   UNL     1       2.026   2.785  19.570  0.00  0.00    +0.000 A 
ATOM     27  C   UNL     1       0.947   3.427  20.164  0.00  0.00    +0.000 A 
ATOM     28  C   UNL     1       1.040   4.780  20.477  0.00  0.00    +0.000 A 
ATOM     29  C   UNL     1       2.214   5.499  20.204  0.00  0.00    +0.000 A 
ATOM     30  C   UNL     1       3.285   4.825  19.583  0.00  0.00    +0.000 A 
ATOM     31 CL   UNL     1       4.753   5.662  19.209  0.00  0.00    +0.000 Cl
ATOM     32  C   UNL     1       3.195   3.471  19.268  0.00  0.00    +0.000 A 
ENDBRANCH  23  29
ENDBRANCH   1  23
TORSDOF 5
ENDMDL
MODEL 2
REMARK VINA RESULT:      -8.9      0.773      1.139
REMARK  Name = 
REMARK  5 active torsions:
REMARK  status: ('A' for Active; 'I' for Inactive)
REMARK    1  A    between atoms: C_5  and  N_6
REMARK    2  A    between atoms: N_6  and  C_7
REMARK    3  A    between atoms: C_13  and  C_14
REMARK    4  A    between atoms: C_17  and  C_18
REMARK    5  A    between atoms: C_18  and  N_19
REMARK                            x       y       z     vdW  Elec       q    Type
REMARK                         _______ _______ _______ _____ _____    ______ ____
ROOT
ATOM      1  C   UNL     1       1.885   7.830  19.927  0.00  0.00    +0.000 A 
ATOM      2  C   UNL     1       2.250   8.051  18.599  0.00  0.00    +0.000 A 
ATOM      3  C   UNL     1       1.825   9.207  17.976  0.00  0.00    +0.000 A 
ATOM      4  N   UNL     1       1.079  10.151  18.577  0.00  0.00    +0.000 NA
ATOM      5  C   UNL     1       0.736   9.965  19.862  0.00  0.00    +0.000 A 
ATOM      6  C   UNL     1       0.000  10.955  20.500  0.00  0.00    +0.000 A 
ATOM      7  C   UNL     1      -0.368  10.856  21.849  0.00  0.00    +0.000 A 
ATOM      8  C   UNL     1      -0.011   9.717  22.562  0.00  0.00    +0.000 A 
ATOM      9  C   UNL     1       0.730   8.712  21.949  0.00  0.00    +0.000 A 
ATOM     10  C   UNL     1       1.115   8.816  20.592  0.00  0.00    +0.000 A 
ENDROOT
BRANCH   7  11
ATOM     11  C   UNL     1      -1.060  11.937  22.523  0.00  0.00    +0.000 A 
ATOM     12  C   UNL     1      -0.727  13.232  22.862  0.00  0.00    +0.000 A 
ATOM     13  C   UNL     1      -1.900  13.821  23.394  0.00  0.00    +0.000 A 
ATOM     14  C   UNL     1      -2.877  12.849  23.353  0.00  0.00    +0.000 A 
ATOM     15  O   UNL     1      -2.362  11.694  22.841  0.00  0.00    +0.000 OA
BRANCH  14  16
ATOM     16  C   UNL     1      -4.309  12.800  23.765  0.00  0.00    +0.000 C 
BRANCH  16  17
ATOM     17  N   UNL     1      -5.251  13.252  22.724  0.00  0.00    +0.000 NA
ATOM     18  C   UNL     1      -5.352  14.732  22.733  0.00  0.00    +0.000 C 
ATOM     19  C   UNL     1      -6.138  15.306  23.928  0.00  0.00    +0.000 C 
ATOM     20  O   UNL     1      -7.444  14.727  24.034  0.00  0.00    +0.000 OA
ATOM     21  C   UNL     1      -7.379  13.296  24.102  0.00  0.00    +0.000 C 
ATOM     22  C   UNL     1      -6.622  12.717  22.895  0.00  0.00    +0.000 C 
ENDBRANCH  16  17
ENDBRANCH  14  16
ENDBRANCH   7  11
BRANCH   1  23
ATOM     23  N   UNL     1       2.292   6.663  20.628  0.00  0.00    +0.000 N 
ATOM     24  H   UNL     1       2.184   6.778  21.635  0.00  0.00    +0.000 HD
BRANCH  23  29
ATOM     25  F   UNL     1       1.968   1.310  19.223  0.00  0.00    +0.000 F 
ATOM     26  C   UNL     1       2.045   2.608  19.544  0.00  0.00    +0.000 A 
ATOM     27  C   UNL     1       0.935   3.241  20.091  0.00  0.00    +0.000 A 
ATOM     28  C   UNL     1       1.013   4.588  20.434  0.00  0.00    +0.000 A 
ATOM     29  C   UNL     1       2.200   5.310  20.239  0.00  0.00    +0.000 A 
ATOM     30  C   UNL     1       3.303   4.645  19.664  0.00  0.00    +0.000 A 
ATOM     31 CL   UNL     1       4.790   5.485  19.387  0.00  0.00    +0.000 Cl
ATOM     32  C   UNL     1       3.229   3.297  19.319  0.00  0.00    +0.000 A 
ENDBRANCH  23  29
ENDBRANCH   1  23
TORSDOF 5
ENDMDL
MODEL 3
REMARK VINA RESULT:      -8.6      4.881      9.985
REMARK  Name = 
REMARK  5 active torsions:
REMARK  status: ('A' for Active; 'I' for Inactive)
REMARK    1  A    between atoms: C_5  and  N_6
REMARK    2  A    between atoms: N_6  and  C_7
REMARK    3  A    between atoms: C_13  and  C_14
REMARK    4  A    between atoms: C_17  and  C_18
REMARK    5  A    between atoms: C_18  and  N_19
REMARK                            x       y       z     vdW  Elec       q    Type
REMARK                         _______ _______ _______ _____ _____    ______ ____
ROOT
ATOM      1  C   UNL     1      -0.510  10.882  20.435  0.00  0.00    +0.000 A 
ATOM      2  C   UNL     1      -0.640  10.812  21.821  0.00  0.00    +0.000 A 
ATOM      3  C   UNL     1       0.036   9.820  22.503  0.00  0.00    +0.000 A 
ATOM      4  N   UNL     1       0.830   8.910  21.909  0.00  0.00    +0.000 NA
ATOM      5  C   UNL     1       0.984   8.977  20.577  0.00  0.00    +0.000 A 
ATOM      6  C   UNL     1       1.833   8.066  19.963  0.00  0.00    +0.000 A 
ATOM      7  C   UNL     1       2.077   8.088  18.584  0.00  0.00    +0.000 A 
ATOM      8  C   UNL     1       1.424   9.032  17.800  0.00  0.00    +0.000 A 
ATOM      9  C   UNL     1       0.571   9.960  18.389  0.00  0.00    +0.000 A 
ATOM     10  C   UNL     1       0.334   9.949  19.783  0.00  0.00    +0.000 A 
ENDROOT
BRANCH   7  11
ATOM     11  C   UNL     1       3.034   7.186  17.972  0.00  0.00    +0.000 A 
ATOM     12  C   UNL     1       4.325   7.322  17.505  0.00  0.00    +0.000 A 
ATOM     13  C   UNL     1       4.759   6.023  17.143  0.00  0.00    +0.000 A 
ATOM     14  C   UNL     1       3.706   5.174  17.406  0.00  0.00    +0.000 A 
ATOM     15  O   UNL     1       2.646   5.883  17.892  0.00  0.00    +0.000 OA
BRANCH  14  16
ATOM     16  C   UNL     1       3.491   3.708  17.244  0.00  0.00    +0.000 C 
BRANCH  16  17
ATOM     17  N   UNL     1       4.106   2.888  18.306  0.00  0.00    +0.000 NA
ATOM     18  C   UNL     1       3.377   1.604  18.448  0.00  0.00    +0.000 C 
ATOM     19  C   UNL     1       1.993   1.732  19.117  0.00  0.00    +0.000 C 
ATOM     20  O   UNL     1       2.074   2.390  20.386  0.00  0.00    +0.000 OA
ATOM     21  C   UNL     1       2.710   3.671  20.272  0.00  0.00    +0.000 C 
ATOM     22  C   UNL     1       4.103   3.544  19.635  0.00  0.00    +0.000 C 
ENDBRANCH  16  17
ENDBRANCH  14  16
ENDBRANCH   7  11
BRANCH   1  23
ATOM     23  N   UNL     1      -1.176  11.880  19.673  0.00  0.00    +0.000 N 
ATOM     24  H   UNL     1      -0.517  12.425  19.118  0.00  0.00    +0.000 HD
BRANCH  23  29
ATOM     25  F   UNL     1      -6.194  11.874  17.316  0.00  0.00    +0.000 F 
ATOM     26  C   UNL     1      -4.987  11.861  17.895  0.00  0.00    +0.000 A 
ATOM     27  C   UNL     1      -3.899  11.360  17.191  0.00  0.00    +0.000 A 
ATOM     28  C   UNL     1      -2.640  11.351  17.787  0.00  0.00    +0.000 A 
ATOM     29  C   UNL     1      -2.459  11.848  19.087  0.00  0.00    +0.000 A 
ATOM     30  C   UNL     1      -3.586  12.333  19.783  0.00  0.00    +0.000 A 
ATOM     31 CL   UNL     1      -3.428  12.946  21.393  0.00  0.00    +0.000 Cl
ATOM     32  C   UNL     1      -4.847  12.343  19.190  0.00  0.00    +0.000 A 
ENDBRANCH  23  29
ENDBRANCH   1  23
TORSDOF 5
ENDMDL
MODEL 4
REMARK VINA RESULT:      -8.5      3.764      6.253
REMARK  Name = 
REMARK  5 active torsions:
REMARK  status: ('A' for Active; 'I' for Inactive)
REMARK    1  A    between atoms: C_5  and  N_6
REMARK    2  A    between atoms: N_6  and  C_7
REMARK    3  A    between atoms: C_13  and  C_14
REMARK    4  A    between atoms: C_17  and  C_18
REMARK    5  A    between atoms: C_18  and  N_19
REMARK                            x       y       z     vdW  Elec       q    Type
REMARK                         _______ _______ _______ _____ _____    ______ ____
ROOT
ATOM      1  C   UNL     1       3.925   3.490  17.580  0.00  0.00    +0.000 A 
ATOM      2  C   UNL     1       3.052   2.416  17.750  0.00  0.00    +0.000 A 
ATOM      3  C   UNL     1       1.775   2.664  18.214  0.00  0.00    +0.000 A 
ATOM      4  N   UNL     1       1.311   3.893  18.509  0.00  0.00    +0.000 NA
ATOM      5  C   UNL     1       2.132   4.940  18.331  0.00  0.00    +0.000 A 
ATOM      6  C   UNL     1       1.646   6.214  18.595  0.00  0.00    +0.000 A 
ATOM      7  C   UNL     1       2.424   7.362  18.402  0.00  0.00    +0.000 A 
ATOM      8  C   UNL     1       3.735   7.221  17.961  0.00  0.00    +0.000 A 
ATOM      9  C   UNL     1       4.247   5.957  17.684  0.00  0.00    +0.000 A 
ATOM     10  C   UNL     1       3.459   4.797  17.865  0.00  0.00    +0.000 A 
ENDROOT
BRANCH   7  11
ATOM     11  C   UNL     1       1.873   8.689  18.599  0.00  0.00    +0.000 A 
ATOM     12  C   UNL     1       1.966   9.883  17.915  0.00  0.00    +0.000 A 
ATOM     13  C   UNL     1       1.076  10.781  18.552  0.00  0.00    +0.000 A 
ATOM     14  C   UNL     1       0.497  10.083  19.591  0.00  0.00    +0.000 A 
ATOM     15  O   UNL     1       0.996   8.814  19.634  0.00  0.00    +0.000 OA
BRANCH  14  16
ATOM     16  C   UNL     1      -0.497  10.430  20.647  0.00  0.00    +0.000 C 
BRANCH  16  17
ATOM     17  N   UNL     1       0.078  11.149  21.800  0.00  0.00    +0.000 NA
ATOM     18  C   UNL     1      -0.796  10.990  22.988  0.00  0.00    +0.000 C 
ATOM     19  C   UNL     1      -2.107  11.800  22.924  0.00  0.00    +0.000 C 
ATOM     20  O   UNL     1      -1.863  13.189  22.681  0.00  0.00    +0.000 OA
ATOM     21  C   UNL     1      -1.080  13.384  21.495  0.00  0.00    +0.000 C 
ATOM     22  C   UNL     1       0.242  12.603  21.568  0.00  0.00    +0.000 C 
ENDBRANCH  16  17
ENDBRANCH  14  16
ENDBRANCH   7  11
BRANCH   1  23
ATOM     23  N   UNL     1       5.251   3.304  17.103  0.00  0.00    +0.000 N 
ATOM     24  H   UNL     1       5.593   2.367  17.313  0.00  0.00    +0.000 HD
BRANCH  23  29
ATOM     25  F   UNL     1       7.771   5.334  12.601  0.00  0.00    +0.000 F 
ATOM     26  C   UNL     1       7.155   4.860  13.692  0.00  0.00    +0.000 A 
ATOM     27  C   UNL     1       6.009   4.088  13.546  0.00  0.00    +0.000 A 
ATOM     28  C   UNL     1       5.370   3.587  14.677  0.00  0.00    +0.000 A 
ATOM     29  C   UNL     1       5.874   3.849  15.960  0.00  0.00    +0.000 A 
ATOM     30  C   UNL     1       7.027   4.651  16.077  0.00  0.00    +0.000 A 
ATOM     31 CL   UNL     1       7.689   5.019  17.633  0.00  0.00    +0.000 Cl
ATOM     32  C   UNL     1       7.670   5.155  14.948  0.00  0.00    +0.000 A 
ENDBRANCH  23  29
ENDBRANCH   1  23
TORSDOF 5
ENDMDL
MODEL 5
REMARK VINA RESULT:      -8.5      2.315      3.384
REMARK  Name = 
REMARK  5 active torsions:
REMARK  status: ('A' for Active; 'I' for Inactive)
REMARK    1  A    between atoms: C_5  and  N_6
REMARK    2  A    between atoms: N_6  and  C_7
REMARK    3  A    between atoms: C_13  and  C_14
REMARK    4  A    between atoms: C_17  and  C_18
REMARK    5  A    between atoms: C_18  and  N_19
REMARK                            x       y       z     vdW  Elec       q    Type
REMARK                         _______ _______ _______ _____ _____    ______ ____
ROOT
ATOM      1  C   UNL     1       1.963   7.817  19.816  0.00  0.00    +0.000 A 
ATOM      2  C   UNL     1       2.299   8.036  18.480  0.00  0.00    +0.000 A 
ATOM      3  C   UNL     1       1.814   9.165  17.850  0.00  0.00    +0.000 A 
ATOM      4  N   UNL     1       1.035  10.083  18.451  0.00  0.00    +0.000 NA
ATOM      5  C   UNL     1       0.719   9.898  19.743  0.00  0.00    +0.000 A 
ATOM      6  C   UNL     1      -0.051  10.862  20.380  0.00  0.00    +0.000 A 
ATOM      7  C   UNL     1      -0.395  10.764  21.734  0.00  0.00    +0.000 A 
ATOM      8  C   UNL     1       0.022   9.651  22.456  0.00  0.00    +0.000 A 
ATOM      9  C   UNL     1       0.798   8.672  21.844  0.00  0.00    +0.000 A 
ATOM     10  C   UNL     1       1.159   8.775  20.481  0.00  0.00    +0.000 A 
ENDROOT
BRANCH   7  11
ATOM     11  C   UNL     1      -1.125  11.822  22.406  0.00  0.00    +0.000 A 
ATOM     12  C   UNL     1      -2.285  11.871  23.149  0.00  0.00    +0.000 A 
ATOM     13  C   UNL     1      -2.390  13.195  23.642  0.00  0.00    +0.000 A 
ATOM     14  C   UNL     1      -1.291  13.876  23.164  0.00  0.00    +0.000 A 
ATOM     15  O   UNL     1      -0.529  13.047  22.394  0.00  0.00    +0.000 OA
BRANCH  14  16
ATOM     16  C   UNL     1      -0.806  15.280  23.290  0.00  0.00    +0.000 C 
BRANCH  16  17
ATOM     17  N   UNL     1      -0.289  15.621  24.629  0.00  0.00    +0.000 NA
ATOM     18  C   UNL     1      -1.395  15.631  25.617  0.00  0.00    +0.000 C 
ATOM     19  C   UNL     1      -2.344  16.840  25.492  0.00  0.00    +0.000 C 
ATOM     20  O   UNL     1      -1.634  18.082  25.543  0.00  0.00    +0.000 OA
ATOM     21  C   UNL     1      -0.601  18.135  24.549  0.00  0.00    +0.000 C 
ATOM     22  C   UNL     1       0.366  16.949  24.689  0.00  0.00    +0.000 C 
ENDBRANCH  16  17
ENDBRANCH  14  16
ENDBRANCH   7  11
BRANCH   1  23
ATOM     23  N   UNL     1       2.431   6.678  20.525  0.00  0.00    +0.000 N 
ATOM     24  H   UNL     1       2.421   6.837  21.532  0.00  0.00    +0.000 HD
BRANCH  23  29
ATOM     25  F   UNL     1       1.937   1.272  19.397  0.00  0.00    +0.000 F 
ATOM     26  C   UNL     1       2.055   2.581  19.651  0.00  0.00    +0.000 A 
ATOM     27  C   UNL     1       0.966   3.277  20.163  0.00  0.00    +0.000 A 
ATOM     28  C   UNL     1       1.086   4.637  20.436  0.00  0.00    +0.000 A 
ATOM     29  C   UNL     1       2.296   5.309  20.206  0.00  0.00    +0.000 A 
ATOM     30  C   UNL     1       3.378   4.581  19.669  0.00  0.00    +0.000 A 
ATOM     31 CL   UNL     1       4.891   5.359  19.352  0.00  0.00    +0.000 Cl
ATOM     32  C   UNL     1       3.261   3.220  19.394  0.00  0.00    +0.000 A 
ENDBRANCH  23  29
ENDBRANCH   1  23
TORSDOF 5
ENDMDL
MODEL 6
REMARK VINA RESULT:      -8.4      5.499     10.740
REMARK  Name = 
REMARK  5 active torsions:
REMARK  status: ('A' for Active; 'I' for Inactive)
REMARK    1  A    between atoms: C_5  and  N_6
REMARK    2  A    between atoms: N_6  and  C_7
REMARK    3  A    between atoms: C_13  and  C_14
REMARK    4  A    between atoms: C_17  and  C_18
REMARK    5  A    between atoms: C_18  and  N_19
REMARK                            x       y       z     vdW  Elec       q    Type
REMARK                         _______ _______ _______ _____ _____    ______ ____
ROOT
ATOM      1  C   UNL     1       0.225  11.796  19.999  0.00  0.00    +0.000 A 
ATOM      2  C   UNL     1      -0.330  12.204  21.212  0.00  0.00    +0.000 A 
ATOM      3  C   UNL     1      -0.394  11.297  22.251  0.00  0.00    +0.000 A 
ATOM      4  N   UNL     1       0.058  10.032  22.171  0.00  0.00    +0.000 NA
ATOM      5  C   UNL     1       0.614   9.630  21.017  0.00  0.00    +0.000 A 
ATOM      6  C   UNL     1       1.119   8.339  20.942  0.00  0.00    +0.000 A 
ATOM      7  C   UNL     1       1.746   7.850  19.789  0.00  0.00    +0.000 A 
ATOM      8  C   UNL     1       1.840   8.676  18.674  0.00  0.00    +0.000 A 
ATOM      9  C   UNL     1       1.347   9.976  18.722  0.00  0.00    +0.000 A 
ATOM     10  C   UNL     1       0.726  10.475  19.890  0.00  0.00    +0.000 A 
ENDROOT
BRANCH   7  11
ATOM     11  C   UNL     1       2.345   6.530  19.756  0.00  0.00    +0.000 A 
ATOM     12  C   UNL     1       2.228   5.399  20.536  0.00  0.00    +0.000 A 
ATOM     13  C   UNL     1       2.985   4.389  19.894  0.00  0.00    +0.000 A 
ATOM     14  C   UNL     1       3.524   4.966  18.764  0.00  0.00    +0.000 A 
ATOM     15  O   UNL     1       3.153   6.277  18.689  0.00  0.00    +0.000 OA
BRANCH  14  16
ATOM     16  C   UNL     1       4.416   4.477  17.675  0.00  0.00    +0.000 C 
BRANCH  16  17
ATOM     17  N   UNL     1       5.206   5.538  17.021  0.00  0.00    +0.000 NA
ATOM     18  C   UNL     1       5.545   5.140  15.632  0.00  0.00    +0.000 C 
ATOM     19  C   UNL     1       6.626   4.045  15.534  0.00  0.00    +0.000 C 
ATOM     20  O   UNL     1       7.816   4.405  16.243  0.00  0.00    +0.000 OA
ATOM     21  C   UNL     1       7.534   4.725  17.612  0.00  0.00    +0.000 C 
ATOM     22  C   UNL     1       6.480   5.839  17.715  0.00  0.00    +0.000 C 
ENDBRANCH  16  17
ENDBRANCH  14  16
ENDBRANCH   7  11
BRANCH   1  23
ATOM     23  N   UNL     1       0.324  12.679  18.890  0.00  0.00    +0.000 N 
ATOM     24  H   UNL     1      -0.593  12.887  18.497  0.00  0.00    +0.000 HD
BRANCH  23  29
ATOM     25  F   UNL     1       3.986  16.769  18.111  0.00  0.00    +0.000 F 
ATOM     26  C   UNL     1       3.092  15.786  18.284  0.00  0.00    +0.000 A 
ATOM     27  C   UNL     1       3.458  14.476  18.000  0.00  0.00    +0.000 A 
ATOM     28  C   UNL     1       2.536  13.450  18.186  0.00  0.00    +0.000 A 
ATOM     29  C   UNL     1       1.244  13.725  18.660  0.00  0.00    +0.000 A 
ATOM     30  C   UNL     1       0.896  15.066  18.921  0.00  0.00    +0.000 A 
ATOM     31 CL   UNL     1      -0.685  15.469  19.496  0.00  0.00    +0.000 Cl
ATOM     32  C   UNL     1       1.817  16.096  18.737  0.00  0.00    +0.000 A 
ENDBRANCH  23  29
ENDBRANCH   1  23
TORSDOF 5
ENDMDL
MODEL 7
REMARK VINA RESULT:      -8.4      3.178      5.788
REMARK  Name = 
REMARK  5 active torsions:
REMARK  status: ('A' for Active; 'I' for Inactive)
REMARK    1  A    between atoms: C_5  and  N_6
REMARK    2  A    between atoms: N_6  and  C_7
REMARK    3  A    between atoms: C_13  and  C_14
REMARK    4  A    between atoms: C_17  and  C_18
REMARK    5  A    between atoms: C_18  and  N_19
REMARK                            x       y       z     vdW  Elec       q    Type
REMARK                         _______ _______ _______ _____ _____    ______ ____
ROOT
ATOM      1  C   UNL     1       4.320   3.721  19.389  0.00  0.00    +0.000 A 
ATOM      2  C   UNL     1       3.742   2.760  20.218  0.00  0.00    +0.000 A 
ATOM      3  C   UNL     1       2.610   3.094  20.934  0.00  0.00    +0.000 A 
ATOM      4  N   UNL     1       2.015   4.299  20.876  0.00  0.00    +0.000 NA
ATOM      5  C   UNL     1       2.546   5.230  20.066  0.00  0.00    +0.000 A 
ATOM      6  C   UNL     1       1.913   6.462  19.972  0.00  0.00    +0.000 A 
ATOM      7  C   UNL     1       2.380   7.475  19.124  0.00  0.00    +0.000 A 
ATOM      8  C   UNL     1       3.531   7.251  18.377  0.00  0.00    +0.000 A 
ATOM      9  C   UNL     1       4.183   6.023  18.449  0.00  0.00    +0.000 A 
ATOM     10  C   UNL     1       3.705   4.994  19.293  0.00  0.00    +0.000 A 
ENDROOT
BRANCH   7  11
ATOM     11  C   UNL     1       1.658   8.724  18.972  0.00  0.00    +0.000 A 
ATOM     12  C   UNL     1       1.527   9.643  17.952  0.00  0.00    +0.000 A 
ATOM     13  C   UNL     1       0.565  10.588  18.386  0.00  0.00    +0.000 A 
ATOM     14  C   UNL     1       0.171  10.192  19.647  0.00  0.00    +0.000 A 
ATOM     15  O   UNL     1       0.851   9.068  20.014  0.00  0.00    +0.000 OA
BRANCH  14  16
ATOM     16  C   UNL     1      -0.781  10.738  20.655  0.00  0.00    +0.000 C 
BRANCH  16  17
ATOM     17  N   UNL     1      -0.129  11.331  21.839  0.00  0.00    +0.000 NA
ATOM     18  C   UNL     1      -0.921  11.036  23.059  0.00  0.00    +0.000 C 
ATOM     19  C   UNL     1      -2.232  11.840  23.172  0.00  0.00    +0.000 C 
ATOM     20  O   UNL     1      -2.004  13.249  23.066  0.00  0.00    +0.000 OA
ATOM     21  C   UNL     1      -1.304  13.578  21.859  0.00  0.00    +0.000 C 
ATOM     22  C   UNL     1       0.020  12.803  21.757  0.00  0.00    +0.000 C 
ENDBRANCH  16  17
ENDBRANCH  14  16
ENDBRANCH   7  11
BRANCH   1  23
ATOM     23  N   UNL     1       5.483   3.442  18.622  0.00  0.00    +0.000 N 
ATOM     24  H   UNL     1       5.796   2.481  18.758  0.00  0.00    +0.000 HD
BRANCH  23  29
ATOM     25  F   UNL     1       7.056   5.316  13.647  0.00  0.00    +0.000 F 
ATOM     26  C   UNL     1       6.668   4.880  14.852  0.00  0.00    +0.000 A 
ATOM     27  C   UNL     1       5.568   4.037  14.950  0.00  0.00    +0.000 A 
ATOM     28  C   UNL     1       5.166   3.575  16.201  0.00  0.00    +0.000 A 
ATOM     29  C   UNL     1       5.864   3.947  17.360  0.00  0.00    +0.000 A 
ATOM     30  C   UNL     1       6.965   4.818  17.230  0.00  0.00    +0.000 A 
ATOM     31 CL   UNL     1       7.857   5.322  18.625  0.00  0.00    +0.000 Cl
ATOM     32  C   UNL     1       7.370   5.283  15.981  0.00  0.00    +0.000 A 
ENDBRANCH  23  29
ENDBRANCH   1  23
TORSDOF 5
ENDMDL
MODEL 8
REMARK VINA RESULT:      -8.3      5.364     10.790
REMARK  Name = 
REMARK  5 active torsions:
REMARK  status: ('A' for Active; 'I' for Inactive)
REMARK    1  A    between atoms: C_5  and  N_6
REMARK    2  A    between atoms: N_6  and  C_7
REMARK    3  A    between atoms: C_13  and  C_14
REMARK    4  A    between atoms: C_17  and  C_18
REMARK    5  A    between atoms: C_18  and  N_19
REMARK                            x       y       z     vdW  Elec       q    Type
REMARK                         _______ _______ _______ _____ _____    ______ ____
ROOT
ATOM      1  C   UNL     1       0.055  11.633  20.102  0.00  0.00    +0.000 A 
ATOM      2  C   UNL     1      -0.448  11.991  21.353  0.00  0.00    +0.000 A 
ATOM      3  C   UNL     1      -0.413  11.063  22.374  0.00  0.00    +0.000 A 
ATOM      4  N   UNL     1       0.091   9.822  22.241  0.00  0.00    +0.000 NA
ATOM      5  C   UNL     1       0.599   9.468  21.050  0.00  0.00    +0.000 A 
ATOM      6  C   UNL     1       1.156   8.203  20.918  0.00  0.00    +0.000 A 
ATOM      7  C   UNL     1       1.739   7.767  19.721  0.00  0.00    +0.000 A 
ATOM      8  C   UNL     1       1.732   8.618  18.621  0.00  0.00    +0.000 A 
ATOM      9  C   UNL     1       1.184   9.892  18.725  0.00  0.00    +0.000 A 
ATOM     10  C   UNL     1       0.608  10.340  19.937  0.00  0.00    +0.000 A 
ENDROOT
BRANCH   7  11
ATOM     11  C   UNL     1       2.394   6.477  19.626  0.00  0.00    +0.000 A 
ATOM     12  C   UNL     1       2.393   5.336  20.401  0.00  0.00    +0.000 A 
ATOM     13  C   UNL     1       3.142   4.367  19.689  0.00  0.00    +0.000 A 
ATOM     14  C   UNL     1       3.560   4.978  18.525  0.00  0.00    +0.000 A 
ATOM     15  O   UNL     1       3.123   6.270  18.494  0.00  0.00    +0.000 OA
BRANCH  14  16
ATOM     16  C   UNL     1       4.383   4.538  17.362  0.00  0.00    +0.000 C 
BRANCH  16  17
ATOM     17  N   UNL     1       5.194   5.613  16.759  0.00  0.00    +0.000 NA
ATOM     18  C   UNL     1       5.606   5.233  15.385  0.00  0.00    +0.000 C 
ATOM     19  C   UNL     1       6.699   4.148  15.329  0.00  0.00    +0.000 C 
ATOM     20  O   UNL     1       7.850   4.510  16.100  0.00  0.00    +0.000 OA
ATOM     21  C   UNL     1       7.497   4.814  17.457  0.00  0.00    +0.000 C 
ATOM     22  C   UNL     1       6.430   5.918  17.519  0.00  0.00    +0.000 C 
ENDBRANCH  16  17
ENDBRANCH  14  16
ENDBRANCH   7  11
BRANCH   1  23
ATOM     23  N   UNL     1       0.051  12.542  19.009  0.00  0.00    +0.000 N 
ATOM     24  H   UNL     1      -0.730  12.361  18.379  0.00  0.00    +0.000 HD
BRANCH  23  29
ATOM     25  F   UNL     1       1.619  17.852  18.722  0.00  0.00    +0.000 F 
ATOM     26  C   UNL     1       1.249  16.568  18.807  0.00  0.00    +0.000 A 
ATOM     27  C   UNL     1      -0.055  16.257  19.173  0.00  0.00    +0.000 A 
ATOM     28  C   UNL     1      -0.446  14.923  19.256  0.00  0.00    +0.000 A 
ATOM     29  C   UNL     1       0.460  13.892  18.969  0.00  0.00    +0.000 A 
ATOM     30  C   UNL     1       1.782  14.238  18.619  0.00  0.00    +0.000 A 
ATOM     31 CL   UNL     1       2.948  13.009  18.266  0.00  0.00    +0.000 Cl
ATOM     32  C   UNL     1       2.177  15.571  18.535  0.00  0.00    +0.000 A 
ENDBRANCH  23  29
ENDBRANCH   1  23
TORSDOF 5
ENDMDL
MODEL 9
REMARK VINA RESULT:      -8.3      4.711      9.880
REMARK  Name = 
REMARK  5 active torsions:
REMARK  status: ('A' for Active; 'I' for Inactive)
REMARK    1  A    between atoms: C_5  and  N_6
REMARK    2  A    between atoms: N_6  and  C_7
REMARK    3  A    between atoms: C_13  and  C_14
REMARK    4  A    between atoms: C_17  and  C_18
REMARK    5  A    between atoms: C_18  and  N_19
REMARK                            x       y       z     vdW  Elec       q    Type
REMARK                         _______ _______ _______ _____ _____    ______ ____
ROOT
ATOM      1  C   UNL     1      -0.945  11.187  20.116  0.00  0.00    +0.000 A 
ATOM      2  C   UNL     1      -1.078  11.342  21.496  0.00  0.00    +0.000 A 
ATOM      3  C   UNL     1      -0.333  10.532  22.330  0.00  0.00    +0.000 A 
ATOM      4  N   UNL     1       0.530   9.598  21.893  0.00  0.00    +0.000 NA
ATOM      5  C   UNL     1       0.686   9.450  20.567  0.00  0.00    +0.000 A 
ATOM      6  C   UNL     1       1.605   8.515  20.110  0.00  0.00    +0.000 A 
ATOM      7  C   UNL     1       1.855   8.322  18.745  0.00  0.00    +0.000 A 
ATOM      8  C   UNL     1       1.138   9.070  17.818  0.00  0.00    +0.000 A 
ATOM      9  C   UNL     1       0.214  10.017  18.248  0.00  0.00    +0.000 A 
ATOM     10  C   UNL     1      -0.030  10.224  19.625  0.00  0.00    +0.000 A 
ENDROOT
BRANCH   7  11
ATOM     11  C   UNL     1       2.880   7.404  18.288  0.00  0.00    +0.000 A 
ATOM     12  C   UNL     1       3.934   7.499  17.403  0.00  0.00    +0.000 A 
ATOM     13  C   UNL     1       4.649   6.280  17.499  0.00  0.00    +0.000 A 
ATOM     14  C   UNL     1       3.985   5.512  18.432  0.00  0.00    +0.000 A 
ATOM     15  O   UNL     1       2.895   6.187  18.899  0.00  0.00    +0.000 OA
BRANCH  14  16
ATOM     16  C   UNL     1       4.192   4.144  18.985  0.00  0.00    +0.000 C 
BRANCH  16  17
ATOM     17  N   UNL     1       3.840   3.058  18.050  0.00  0.00    +0.000 NA
ATOM     18  C   UNL     1       2.637   3.428  17.266  0.00  0.00    +0.000 C 
ATOM     19  C   UNL     1       1.321   3.389  18.068  0.00  0.00    +0.000 C 
ATOM     20  O   UNL     1       1.120   2.120  18.700  0.00  0.00    +0.000 OA
ATOM     21  C   UNL     1       2.236   1.764  19.527  0.00  0.00    +0.000 C 
ATOM     22  C   UNL     1       3.547   1.771  18.723  0.00  0.00    +0.000 C 
ENDBRANCH  16  17
ENDBRANCH  14  16
ENDBRANCH   7  11
BRANCH   1  23
ATOM     23  N   UNL     1      -1.679  11.990  19.202  0.00  0.00    +0.000 N 
ATOM     24  H   UNL     1      -1.108  12.258  18.401  0.00  0.00    +0.000 HD
BRANCH  23  29
ATOM     25  F   UNL     1      -7.081  11.701  17.988  0.00  0.00    +0.000 F 
ATOM     26  C   UNL     1      -5.775  11.786  18.270  0.00  0.00    +0.000 A 
ATOM     27  C   UNL     1      -5.374  12.318  19.489  0.00  0.00    +0.000 A 
ATOM     28  C   UNL     1      -4.017  12.401  19.790  0.00  0.00    +0.000 A 
ATOM     29  C   UNL     1      -3.052  11.947  18.878  0.00  0.00    +0.000 A 
ATOM     30  C   UNL     1      -3.489  11.429  17.641  0.00  0.00    +0.000 A 
ATOM     31 CL   UNL     1      -2.346  10.865  16.471  0.00  0.00    +0.000 Cl
ATOM     32  C   UNL     1      -4.846  11.345  17.337  0.00  0.00    +0.000 A 
ENDBRANCH  23  29
ENDBRANCH   1  23
TORSDOF 5
ENDMDL
