MODEL 1
REMARK VINA RESULT:      -3.4      0.000      0.000
REMARK  Name = 
REMARK  1 active torsions:
REMARK  status: ('A' for Active; 'I' for Inactive)
REMARK    1  A    between atoms: C_2  and  C_3
REMARK                            x       y       z     vdW  Elec       q    Type
REMARK                         _______ _______ _______ _____ _____    ______ ____
ROOT
ATOM      1  C   UNL     1       5.446   2.855  11.750  0.00  0.00    +0.000 C 
ATOM      2  C   UNL     1       6.338   3.578  12.440  0.00  0.00    +0.000 C 
ATOM      3 CL   UNL     1       5.914   1.286  11.173  0.00  0.00    +0.000 Cl
ENDROOT
BRANCH   1   5
ATOM      4  C   UNL     1       3.558   3.620  10.331  0.00  0.00    +0.000 C 
ATOM      5  C   UNL     1       4.073   3.238  11.507  0.00  0.00    +0.000 C 
ENDBRANCH   1   5
TORSDOF 1
ENDMDL
MODEL 2
REMARK VINA RESULT:      -3.4      0.694      2.486
REMARK  Name = 
REMARK  1 active torsions:
REMARK  status: ('A' for Active; 'I' for Inactive)
REMARK    1  A    between atoms: C_2  and  C_3
REMARK                            x       y       z     vdW  Elec       q    Type
REMARK                         _______ _______ _______ _____ _____    ______ ____
ROOT
ATOM      1  C   UNL     1       5.439   2.790  11.764  0.00  0.00    +0.000 C 
ATOM      2  C   UNL     1       4.228   3.183  11.348  0.00  0.00    +0.000 C 
ATOM      3 CL   UNL     1       6.080   1.293  11.162  0.00  0.00    +0.000 Cl
ENDROOT
BRANCH   1   5
ATOM      4  C   UNL     1       6.026   3.973  13.865  0.00  0.00    +0.000 C 
ATOM      5  C   UNL     1       6.312   3.556  12.625  0.00  0.00    +0.000 C 
ENDBRANCH   1   5
TORSDOF 1
ENDMDL
MODEL 3
REMARK VINA RESULT:      -3.3      1.835      2.742
REMARK  Name = 
REMARK  1 active torsions:
REMARK  status: ('A' for Active; 'I' for Inactive)
REMARK    1  A    between atoms: C_2  and  C_3
REMARK                            x       y       z     vdW  Elec       q    Type
REMARK                         _______ _______ _______ _____ _____    ______ ____
ROOT
ATOM      1  C   UNL     1       5.593   2.635  11.681  0.00  0.00    +0.000 C 
ATOM      2  C   UNL     1       6.010   1.415  11.315  0.00  0.00    +0.000 C 
ATOM      3 CL   UNL     1       3.997   3.142  11.226  0.00  0.00    +0.000 Cl
ENDROOT
BRANCH   1   5
ATOM      4  C   UNL     1       6.046   3.899  13.769  0.00  0.00    +0.000 C 
ATOM      5  C   UNL     1       6.342   3.555  12.508  0.00  0.00    +0.000 C 
ENDBRANCH   1   5
TORSDOF 1
ENDMDL
MODEL 4
REMARK VINA RESULT:      -3.2      1.450      1.685
REMARK  Name = 
REMARK  1 active torsions:
REMARK  status: ('A' for Active; 'I' for Inactive)
REMARK    1  A    between atoms: C_2  and  C_3
REMARK                            x       y       z     vdW  Elec       q    Type
REMARK                         _______ _______ _______ _____ _____    ______ ____
ROOT
ATOM      1  C   UNL     1       5.423   2.735  11.707  0.00  0.00    +0.000 C 
ATOM      2  C   UNL     1       5.827   1.533  11.274  0.00  0.00    +0.000 C 
ATOM      3 CL   UNL     1       6.583   3.778  12.467  0.00  0.00    +0.000 Cl
ENDROOT
BRANCH   1   5
ATOM      4  C   UNL     1       3.474   3.451  10.347  0.00  0.00    +0.000 C 
ATOM      5  C   UNL     1       4.099   3.285  11.520  0.00  0.00    +0.000 C 
ENDBRANCH   1   5
TORSDOF 1
ENDMDL
MODEL 5
REMARK VINA RESULT:      -3.2      1.825      2.109
REMARK  Name = 
REMARK  1 active torsions:
REMARK  status: ('A' for Active; 'I' for Inactive)
REMARK    1  A    between atoms: C_2  and  C_3
REMARK                            x       y       z     vdW  Elec       q    Type
REMARK                         _______ _______ _______ _____ _____    ______ ____
ROOT
ATOM      1  C   UNL     1       6.184   3.723  12.727  0.00  0.00    +0.000 C 
ATOM      2  C   UNL     1       6.087   3.847  14.058  0.00  0.00    +0.000 C 
ATOM      3 CL   UNL     1       7.455   4.570  11.903  0.00  0.00    +0.000 Cl
ENDROOT
BRANCH   1   5
ATOM      4  C   UNL     1       4.197   3.205  11.333  0.00  0.00    +0.000 C 
ATOM      5  C   UNL     1       5.357   2.864  11.909  0.00  0.00    +0.000 C 
ENDBRANCH   1   5
TORSDOF 1
ENDMDL
MODEL 6
REMARK VINA RESULT:      -3.2      2.004      2.531
REMARK  Name = 
REMARK  1 active torsions:
REMARK  status: ('A' for Active; 'I' for Inactive)
REMARK    1  A    between atoms: C_2  and  C_3
REMARK                            x       y       z     vdW  Elec       q    Type
REMARK                         _______ _______ _______ _____ _____    ______ ____
ROOT
ATOM      1  C   UNL     1       5.818   3.089  12.156  0.00  0.00    +0.000 C 
ATOM      2  C   UNL     1       6.122   3.782  13.262  0.00  0.00    +0.000 C 
ATOM      3 CL   UNL     1       4.252   3.309  11.440  0.00  0.00    +0.000 Cl
ENDROOT
BRANCH   1   5
ATOM      4  C   UNL     1       6.457   0.974  11.025  0.00  0.00    +0.000 C 
ATOM      5  C   UNL     1       6.726   2.217  11.445  0.00  0.00    +0.000 C 
ENDBRANCH   1   5
TORSDOF 1
ENDMDL
MODEL 7
REMARK VINA RESULT:      -3.2      8.964      9.391
REMARK  Name = 
REMARK  1 active torsions:
REMARK  status: ('A' for Active; 'I' for Inactive)
REMARK    1  A    between atoms: C_2  and  C_3
REMARK                            x       y       z     vdW  Elec       q    Type
REMARK                         _______ _______ _______ _____ _____    ______ ____
ROOT
ATOM      1  C   UNL     1       1.264   3.446  19.171  0.00  0.00    +0.000 C 
ATOM      2  C   UNL     1       0.828   2.270  18.702  0.00  0.00    +0.000 C 
ATOM      3 CL   UNL     1       1.737   4.671  18.037  0.00  0.00    +0.000 Cl
ENDROOT
BRANCH   1   5
ATOM      4  C   UNL     1       1.663   3.033  21.586  0.00  0.00    +0.000 C 
ATOM      5  C   UNL     1       1.300   3.823  20.567  0.00  0.00    +0.000 C 
ENDBRANCH   1   5
TORSDOF 1
ENDMDL
MODEL 8
REMARK VINA RESULT:      -3.1      1.832      2.825
REMARK  Name = 
REMARK  1 active torsions:
REMARK  status: ('A' for Active; 'I' for Inactive)
REMARK    1  A    between atoms: C_2  and  C_3
REMARK                            x       y       z     vdW  Elec       q    Type
REMARK                         _______ _______ _______ _____ _____    ______ ____
ROOT
ATOM      1  C   UNL     1       5.198   2.856  11.792  0.00  0.00    +0.000 C 
ATOM      2  C   UNL     1       4.046   3.305  11.277  0.00  0.00    +0.000 C 
ATOM      3 CL   UNL     1       5.898   3.707  13.133  0.00  0.00    +0.000 Cl
ENDROOT
BRANCH   1   5
ATOM      4  C   UNL     1       7.165   1.570  10.991  0.00  0.00    +0.000 C 
ATOM      5  C   UNL     1       5.884   1.654  11.374  0.00  0.00    +0.000 C 
ENDBRANCH   1   5
TORSDOF 1
ENDMDL
MODEL 9
REMARK VINA RESULT:      -3.1      9.389      9.597
REMARK  Name = 
REMARK  1 active torsions:
REMARK  status: ('A' for Active; 'I' for Inactive)
REMARK    1  A    between atoms: C_2  and  C_3
REMARK                            x       y       z     vdW  Elec       q    Type
REMARK                         _______ _______ _______ _____ _____    ______ ____
ROOT
ATOM      1  C   UNL     1       1.314   3.508  20.526  0.00  0.00    +0.000 C 
ATOM      2  C   UNL     1       1.482   2.717  21.594  0.00  0.00    +0.000 C 
ATOM      3 CL   UNL     1       1.537   5.219  20.714  0.00  0.00    +0.000 Cl
ENDROOT
BRANCH   1   5
ATOM      4  C   UNL     1       1.460   3.620  18.050  0.00  0.00    +0.000 C 
ATOM      5  C   UNL     1       1.035   3.047  19.184  0.00  0.00    +0.000 C 
ENDBRANCH   1   5
TORSDOF 1
ENDMDL
