MODEL 1
REMARK VINA RESULT:      -7.7      0.000      0.000
REMARK  Name = 
REMARK  7 active torsions:
REMARK  status: ('A' for Active; 'I' for Inactive)
REMARK    1  A    between atoms: C_1  and  C_2
REMARK    2  A    between atoms: C_2  and  C_3
REMARK    3  A    between atoms: C_3  and  C_4
REMARK    4  A    between atoms: C_4  and  O_5
REMARK    5  A    between atoms: O_5  and  C_6
REMARK    6  A    between atoms: C_13  and  C_15
REMARK    7  A    between atoms: C_18  and  N_19
REMARK                            x       y       z     vdW  Elec       q    Type
REMARK                         _______ _______ _______ _____ _____    ______ ____
ROOT
ATOM      1  C   UNL     1       5.860   5.033  15.466  0.00  0.00    +0.000 A 
ATOM      2  C   UNL     1       5.439   3.860  16.085  0.00  0.00    +0.000 A 
ATOM      3  C   UNL     1       4.487   3.881  17.098  0.00  0.00    +0.000 A 
ATOM      4  C   UNL     1       3.966   5.120  17.493  0.00  0.00    +0.000 A 
ATOM      5  S   UNL     1       2.800   5.434  18.707  0.00  0.00    +0.000 S 
ATOM      6  C   UNL     1       2.908   7.109  18.405  0.00  0.00    +0.000 A 
ATOM      7  N   UNL     1       2.143   8.009  19.116  0.00  0.00    +0.000 N 
ATOM      8  C   UNL     1       1.564   7.763  20.340  0.00  0.00    +0.000 C 
ATOM      9  O   UNL     1       1.631   6.713  20.981  0.00  0.00    +0.000 OA
ATOM     10  N   UNL     1       3.709   7.455  17.422  0.00  0.00    +0.000 NA
ATOM     11  C   UNL     1       4.351   6.322  16.903  0.00  0.00    +0.000 A 
ATOM     12  C   UNL     1       5.324   6.270  15.873  0.00  0.00    +0.000 A 
ATOM     13  H   UNL     1       2.108   8.952  18.754  0.00  0.00    +0.000 HD
ENDROOT
BRANCH   8  14
ATOM     14  C   UNL     1       0.825   8.907  20.913  0.00  0.00    +0.000 A 
ATOM     15  C   UNL     1       0.468   8.953  22.252  0.00  0.00    +0.000 A 
ATOM     16  S   UNL     1      -0.444  10.354  22.580  0.00  0.00    +0.000 S 
ATOM     17  C   UNL     1      -0.335  10.821  20.918  0.00  0.00    +0.000 A 
ATOM     18  N   UNL     1       0.407  10.016  20.168  0.00  0.00    +0.000 NA
BRANCH  17  19
ATOM     19  N   UNL     1      -1.069  11.898  20.536  0.00  0.00    +0.000 NA
ATOM     20  C   UNL     1      -1.838  11.799  19.502  0.00  0.00    +0.000 C 
ATOM     21  N   UNL     1      -1.979  10.771  18.635  0.00  0.00    +0.000 N 
ATOM     22  N   UNL     1      -2.648  12.824  19.145  0.00  0.00    +0.000 N 
ATOM     23  H   UNL     1      -1.602   9.902  19.012  0.00  0.00    +0.000 HD
ATOM     24  H   UNL     1      -2.927  10.642  18.303  0.00  0.00    +0.000 HD
ATOM     25  H   UNL     1      -2.383  13.705  19.570  0.00  0.00    +0.000 HD
ATOM     26  H   UNL     1      -2.837  12.909  18.154  0.00  0.00    +0.000 HD
ENDBRANCH  17  19
ENDBRANCH   8  14
BRANCH   1  27
ATOM     27  O   UNL     1       6.803   5.072  14.467  0.00  0.00    +0.000 OA
BRANCH  27  28
ATOM     28  C   UNL     1       6.698   4.039  13.478  0.00  0.00    +0.000 C 
BRANCH  28  29
ATOM     29  C   UNL     1       5.276   4.008  12.930  0.00  0.00    +0.000 C 
BRANCH  29  31
ATOM     30  C   UNL     1       3.865   3.207  11.000  0.00  0.00    +0.000 C 
ATOM     31  C   UNL     1       5.130   2.975  11.812  0.00  0.00    +0.000 C 
ENDBRANCH  29  31
ENDBRANCH  28  29
ENDBRANCH  27  28
ENDBRANCH   1  27
TORSDOF 6
ENDMDL
MODEL 2
REMARK VINA RESULT:      -7.7      1.565      1.934
REMARK  Name = 
REMARK  7 active torsions:
REMARK  status: ('A' for Active; 'I' for Inactive)
REMARK    1  A    between atoms: C_1  and  C_2
REMARK    2  A    between atoms: C_2  and  C_3
REMARK    3  A    between atoms: C_3  and  C_4
REMARK    4  A    between atoms: C_4  and  O_5
REMARK    5  A    between atoms: O_5  and  C_6
REMARK    6  A    between atoms: C_13  and  C_15
REMARK    7  A    between atoms: C_18  and  N_19
REMARK                            x       y       z     vdW  Elec       q    Type
REMARK                         _______ _______ _______ _____ _____    ______ ____
ROOT
ATOM      1  C   UNL     1       5.921   4.787  16.932  0.00  0.00    +0.000 A 
ATOM      2  C   UNL     1       5.545   4.055  18.055  0.00  0.00    +0.000 A 
ATOM      3  C   UNL     1       4.532   4.495  18.898  0.00  0.00    +0.000 A 
ATOM      4  C   UNL     1       3.900   5.709  18.598  0.00  0.00    +0.000 A 
ATOM      5  S   UNL     1       2.640   6.482  19.462  0.00  0.00    +0.000 S 
ATOM      6  C   UNL     1       2.647   7.777  18.351  0.00  0.00    +0.000 A 
ATOM      7  N   UNL     1       1.776   8.836  18.491  0.00  0.00    +0.000 N 
ATOM      8  C   UNL     1       1.140   9.189  19.658  0.00  0.00    +0.000 C 
ATOM      9  O   UNL     1       1.241   8.619  20.746  0.00  0.00    +0.000 OA
ATOM     10  N   UNL     1       3.482   7.652  17.343  0.00  0.00    +0.000 NA
ATOM     11  C   UNL     1       4.235   6.478  17.486  0.00  0.00    +0.000 A 
ATOM     12  C   UNL     1       5.273   6.003  16.643  0.00  0.00    +0.000 A 
ATOM     13  H   UNL     1       1.697   9.459  17.698  0.00  0.00    +0.000 HD
ENDROOT
BRANCH   8  14
ATOM     14  C   UNL     1       0.286  10.390  19.556  0.00  0.00    +0.000 A 
ATOM     15  C   UNL     1       0.774  11.662  19.817  0.00  0.00    +0.000 A 
ATOM     16  S   UNL     1      -0.472  12.818  19.695  0.00  0.00    +0.000 S 
ATOM     17  C   UNL     1      -1.604  11.565  19.318  0.00  0.00    +0.000 A 
ATOM     18  N   UNL     1      -1.070  10.355  19.212  0.00  0.00    +0.000 NA
BRANCH  17  19
ATOM     19  N   UNL     1      -2.912  11.925  19.247  0.00  0.00    +0.000 NA
ATOM     20  C   UNL     1      -3.504  11.912  18.098  0.00  0.00    +0.000 C 
ATOM     21  N   UNL     1      -2.989  11.671  16.871  0.00  0.00    +0.000 N 
ATOM     22  N   UNL     1      -4.828  12.180  18.003  0.00  0.00    +0.000 N 
ATOM     23  H   UNL     1      -2.081  11.210  16.926  0.00  0.00    +0.000 HD
ATOM     24  H   UNL     1      -3.616  11.168  16.256  0.00  0.00    +0.000 HD
ATOM     25  H   UNL     1      -5.199  12.641  18.825  0.00  0.00    +0.000 HD
ATOM     26  H   UNL     1      -5.126  12.619  17.140  0.00  0.00    +0.000 HD
ENDBRANCH  17  19
ENDBRANCH   8  14
BRANCH   1  27
ATOM     27  O   UNL     1       6.920   4.405  16.071  0.00  0.00    +0.000 OA
BRANCH  27  28
ATOM     28  C   UNL     1       6.765   4.842  14.713  0.00  0.00    +0.000 C 
BRANCH  28  29
ATOM     29  C   UNL     1       5.947   3.813  13.942  0.00  0.00    +0.000 C 
BRANCH  29  31
ATOM     30  C   UNL     1       5.687   2.587  11.754  0.00  0.00    +0.000 C 
ATOM     31  C   UNL     1       6.412   3.703  12.489  0.00  0.00    +0.000 C 
ENDBRANCH  29  31
ENDBRANCH  28  29
ENDBRANCH  27  28
ENDBRANCH   1  27
TORSDOF 6
ENDMDL
MODEL 3
REMARK VINA RESULT:      -7.4      1.805      2.227
REMARK  Name = 
REMARK  7 active torsions:
REMARK  status: ('A' for Active; 'I' for Inactive)
REMARK    1  A    between atoms: C_1  and  C_2
REMARK    2  A    between atoms: C_2  and  C_3
REMARK    3  A    between atoms: C_3  and  C_4
REMARK    4  A    between atoms: C_4  and  O_5
REMARK    5  A    between atoms: O_5  and  C_6
REMARK    6  A    between atoms: C_13  and  C_15
REMARK    7  A    between atoms: C_18  and  N_19
REMARK                            x       y       z     vdW  Elec       q    Type
REMARK                         _______ _______ _______ _____ _____    ______ ____
ROOT
ATOM      1  C   UNL     1       5.482   4.873  16.462  0.00  0.00    +0.000 A 
ATOM      2  C   UNL     1       5.100   3.930  17.411  0.00  0.00    +0.000 A 
ATOM      3  C   UNL     1       4.162   4.231  18.392  0.00  0.00    +0.000 A 
ATOM      4  C   UNL     1       3.615   5.521  18.412  0.00  0.00    +0.000 A 
ATOM      5  S   UNL     1       2.458   6.157  19.503  0.00  0.00    +0.000 S 
ATOM      6  C   UNL     1       2.519   7.669  18.715  0.00  0.00    +0.000 A 
ATOM      7  N   UNL     1       1.742   8.724  19.142  0.00  0.00    +0.000 N 
ATOM      8  C   UNL     1       1.187   8.841  20.396  0.00  0.00    +0.000 C 
ATOM      9  O   UNL     1       1.290   8.031  21.318  0.00  0.00    +0.000 OA
ATOM     10  N   UNL     1       3.297   7.723  17.656  0.00  0.00    +0.000 NA
ATOM     11  C   UNL     1       3.961   6.501  17.484  0.00  0.00    +0.000 A 
ATOM     12  C   UNL     1       4.920   6.164  16.495  0.00  0.00    +0.000 A 
ATOM     13  H   UNL     1       1.677   9.516  18.517  0.00  0.00    +0.000 HD
ENDROOT
BRANCH   8  14
ATOM     14  C   UNL     1       0.427  10.088  20.619  0.00  0.00    +0.000 A 
ATOM     15  C   UNL     1      -0.734  10.376  19.915  0.00  0.00    +0.000 A 
ATOM     16  S   UNL     1      -1.323  11.918  20.339  0.00  0.00    +0.000 S 
ATOM     17  C   UNL     1       0.007  12.134  21.423  0.00  0.00    +0.000 A 
ATOM     18  N   UNL     1       0.810  11.082  21.526  0.00  0.00    +0.000 NA
BRANCH  17  19
ATOM     19  N   UNL     1       0.139  13.361  21.992  0.00  0.00    +0.000 NA
ATOM     20  C   UNL     1       1.129  14.113  21.637  0.00  0.00    +0.000 C 
ATOM     21  N   UNL     1       2.162  13.836  20.810  0.00  0.00    +0.000 N 
ATOM     22  N   UNL     1       1.243  15.374  22.117  0.00  0.00    +0.000 N 
ATOM     23  H   UNL     1       1.975  13.018  20.230  0.00  0.00    +0.000 HD
ATOM     24  H   UNL     1       2.458  14.622  20.246  0.00  0.00    +0.000 HD
ATOM     25  H   UNL     1       0.677  15.536  22.942  0.00  0.00    +0.000 HD
ATOM     26  H   UNL     1       2.188  15.722  22.217  0.00  0.00    +0.000 HD
ENDBRANCH  17  19
ENDBRANCH   8  14
BRANCH   1  27
ATOM     27  O   UNL     1       6.410   4.633  15.478  0.00  0.00    +0.000 OA
BRANCH  27  28
ATOM     28  C   UNL     1       6.059   3.610  14.536  0.00  0.00    +0.000 C 
BRANCH  28  29
ATOM     29  C   UNL     1       6.260   4.136  13.120  0.00  0.00    +0.000 C 
BRANCH  29  31
ATOM     30  C   UNL     1       4.510   3.273  11.523  0.00  0.00    +0.000 C 
ATOM     31  C   UNL     1       5.913   3.076  12.074  0.00  0.00    +0.000 C 
ENDBRANCH  29  31
ENDBRANCH  28  29
ENDBRANCH  27  28
ENDBRANCH   1  27
TORSDOF 6
ENDMDL
MODEL 4
REMARK VINA RESULT:      -7.3      1.790      2.209
REMARK  Name = 
REMARK  7 active torsions:
REMARK  status: ('A' for Active; 'I' for Inactive)
REMARK    1  A    between atoms: C_1  and  C_2
REMARK    2  A    between atoms: C_2  and  C_3
REMARK    3  A    between atoms: C_3  and  C_4
REMARK    4  A    between atoms: C_4  and  O_5
REMARK    5  A    between atoms: O_5  and  C_6
REMARK    6  A    between atoms: C_13  and  C_15
REMARK    7  A    between atoms: C_18  and  N_19
REMARK                            x       y       z     vdW  Elec       q    Type
REMARK                         _______ _______ _______ _____ _____    ______ ____
ROOT
ATOM      1  C   UNL     1       5.919   5.063  16.955  0.00  0.00    +0.000 A 
ATOM      2  C   UNL     1       5.588   4.196  17.992  0.00  0.00    +0.000 A 
ATOM      3  C   UNL     1       4.563   4.493  18.883  0.00  0.00    +0.000 A 
ATOM      4  C   UNL     1       3.874   5.702  18.721  0.00  0.00    +0.000 A 
ATOM      5  S   UNL     1       2.587   6.316  19.670  0.00  0.00    +0.000 S 
ATOM      6  C   UNL     1       2.526   7.725  18.708  0.00  0.00    +0.000 A 
ATOM      7  N   UNL     1       1.609   8.720  18.967  0.00  0.00    +0.000 N 
ATOM      8  C   UNL     1       0.968   8.914  20.169  0.00  0.00    +0.000 C 
ATOM      9  O   UNL     1       1.104   8.232  21.186  0.00  0.00    +0.000 OA
ATOM     10  N   UNL     1       3.357   7.750  17.689  0.00  0.00    +0.000 NA
ATOM     11  C   UNL     1       4.163   6.603  17.699  0.00  0.00    +0.000 A 
ATOM     12  C   UNL     1       5.214   6.273  16.805  0.00  0.00    +0.000 A 
ATOM     13  H   UNL     1       1.494   9.422  18.248  0.00  0.00    +0.000 HD
ENDROOT
BRANCH   8  14
ATOM     14  C   UNL     1       0.059  10.078  20.203  0.00  0.00    +0.000 A 
ATOM     15  C   UNL     1      -0.680  10.464  19.094  0.00  0.00    +0.000 A 
ATOM     16  S   UNL     1      -1.560  11.885  19.428  0.00  0.00    +0.000 S 
ATOM     17  C   UNL     1      -0.898  11.926  21.026  0.00  0.00    +0.000 A 
ATOM     18  N   UNL     1      -0.120  10.893  21.326  0.00  0.00    +0.000 NA
BRANCH  17  19
ATOM     19  N   UNL     1      -1.171  13.028  21.772  0.00  0.00    +0.000 NA
ATOM     20  C   UNL     1      -1.842  12.892  22.869  0.00  0.00    +0.000 C 
ATOM     21  N   UNL     1      -2.425  11.786  23.385  0.00  0.00    +0.000 N 
ATOM     22  N   UNL     1      -2.057  13.954  23.681  0.00  0.00    +0.000 N 
ATOM     23  H   UNL     1      -2.066  10.933  22.956  0.00  0.00    +0.000 HD
ATOM     24  H   UNL     1      -2.380  11.733  24.394  0.00  0.00    +0.000 HD
ATOM     25  H   UNL     1      -1.900  14.843  23.220  0.00  0.00    +0.000 HD
ATOM     26  H   UNL     1      -2.919  13.934  24.210  0.00  0.00    +0.000 HD
ENDBRANCH  17  19
ENDBRANCH   8  14
BRANCH   1  27
ATOM     27  O   UNL     1       6.927   4.825  16.053  0.00  0.00    +0.000 OA
BRANCH  27  28
ATOM     28  C   UNL     1       6.588   5.046  14.676  0.00  0.00    +0.000 C 
BRANCH  28  29
ATOM     29  C   UNL     1       5.892   3.808  14.123  0.00  0.00    +0.000 C 
BRANCH  29  31
ATOM     30  C   UNL     1       4.987   3.217  11.845  0.00  0.00    +0.000 C 
ATOM     31  C   UNL     1       6.224   3.594  12.646  0.00  0.00    +0.000 C 
ENDBRANCH  29  31
ENDBRANCH  28  29
ENDBRANCH  27  28
ENDBRANCH   1  27
TORSDOF 6
ENDMDL
MODEL 5
REMARK VINA RESULT:      -7.3      3.111      4.635
REMARK  Name = 
REMARK  7 active torsions:
REMARK  status: ('A' for Active; 'I' for Inactive)
REMARK    1  A    between atoms: C_1  and  C_2
REMARK    2  A    between atoms: C_2  and  C_3
REMARK    3  A    between atoms: C_3  and  C_4
REMARK    4  A    between atoms: C_4  and  O_5
REMARK    5  A    between atoms: O_5  and  C_6
REMARK    6  A    between atoms: C_13  and  C_15
REMARK    7  A    between atoms: C_18  and  N_19
REMARK                            x       y       z     vdW  Elec       q    Type
REMARK                         _______ _______ _______ _____ _____    ______ ____
ROOT
ATOM      1  C   UNL     1       3.198   6.722  18.184  0.00  0.00    +0.000 A 
ATOM      2  C   UNL     1       3.092   5.908  19.308  0.00  0.00    +0.000 A 
ATOM      3  C   UNL     1       2.339   6.295  20.411  0.00  0.00    +0.000 A 
ATOM      4  C   UNL     1       1.696   7.539  20.371  0.00  0.00    +0.000 A 
ATOM      5  S   UNL     1       0.721   8.260  21.581  0.00  0.00    +0.000 S 
ATOM      6  C   UNL     1       0.495   9.639  20.602  0.00  0.00    +0.000 A 
ATOM      7  N   UNL     1      -0.274  10.697  21.036  0.00  0.00    +0.000 N 
ATOM      8  C   UNL     1      -0.583  10.966  22.349  0.00  0.00    +0.000 C 
ATOM      9  O   UNL     1      -0.233  10.309  23.331  0.00  0.00    +0.000 OA
ATOM     10  N   UNL     1       1.046   9.582  19.410  0.00  0.00    +0.000 NA
ATOM     11  C   UNL     1       1.768   8.389  19.270  0.00  0.00    +0.000 A 
ATOM     12  C   UNL     1       2.542   7.968  18.159  0.00  0.00    +0.000 A 
ATOM     13  H   UNL     1      -0.527  11.383  20.338  0.00  0.00    +0.000 HD
ENDROOT
BRANCH   8  14
ATOM     14  C   UNL     1      -1.392  12.185  22.555  0.00  0.00    +0.000 A 
ATOM     15  C   UNL     1      -0.809  13.427  22.760  0.00  0.00    +0.000 A 
ATOM     16  S   UNL     1      -2.003  14.608  23.048  0.00  0.00    +0.000 S 
ATOM     17  C   UNL     1      -3.236  13.404  22.905  0.00  0.00    +0.000 A 
ATOM     18  N   UNL     1      -2.791  12.196  22.583  0.00  0.00    +0.000 NA
BRANCH  17  19
ATOM     19  N   UNL     1      -4.504  13.788  23.208  0.00  0.00    +0.000 NA
ATOM     20  C   UNL     1      -5.188  13.086  24.050  0.00  0.00    +0.000 C 
ATOM     21  N   UNL     1      -4.867  11.919  24.652  0.00  0.00    +0.000 N 
ATOM     22  N   UNL     1      -6.421  13.488  24.440  0.00  0.00    +0.000 N 
ATOM     23  H   UNL     1      -3.867  11.727  24.599  0.00  0.00    +0.000 HD
ATOM     24  H   UNL     1      -5.203  11.843  25.604  0.00  0.00    +0.000 HD
ATOM     25  H   UNL     1      -6.826  14.181  23.822  0.00  0.00    +0.000 HD
ATOM     26  H   UNL     1      -7.070  12.747  24.675  0.00  0.00    +0.000 HD
ENDBRANCH  17  19
ENDBRANCH   8  14
BRANCH   1  27
ATOM     27  O   UNL     1       3.935   6.394  17.072  0.00  0.00    +0.000 OA
BRANCH  27  28
ATOM     28  C   UNL     1       5.284   6.881  17.060  0.00  0.00    +0.000 C 
BRANCH  28  29
ATOM     29  C   UNL     1       6.184   5.861  16.372  0.00  0.00    +0.000 C 
BRANCH  29  31
ATOM     30  C   UNL     1       6.325   4.131  14.543  0.00  0.00    +0.000 C 
ATOM     31  C   UNL     1       5.525   5.291  15.116  0.00  0.00    +0.000 C 
ENDBRANCH  29  31
ENDBRANCH  28  29
ENDBRANCH  27  28
ENDBRANCH   1  27
TORSDOF 6
ENDMDL
MODEL 6
REMARK VINA RESULT:      -7.3      3.220      4.894
REMARK  Name = 
REMARK  7 active torsions:
REMARK  status: ('A' for Active; 'I' for Inactive)
REMARK    1  A    between atoms: C_1  and  C_2
REMARK    2  A    between atoms: C_2  and  C_3
REMARK    3  A    between atoms: C_3  and  C_4
REMARK    4  A    between atoms: C_4  and  O_5
REMARK    5  A    between atoms: O_5  and  C_6
REMARK    6  A    between atoms: C_13  and  C_15
REMARK    7  A    between atoms: C_18  and  N_19
REMARK                            x       y       z     vdW  Elec       q    Type
REMARK                         _______ _______ _______ _____ _____    ______ ____
ROOT
ATOM      1  C   UNL     1       3.337   6.556  18.172  0.00  0.00    +0.000 A 
ATOM      2  C   UNL     1       3.210   5.700  19.263  0.00  0.00    +0.000 A 
ATOM      3  C   UNL     1       2.452   6.054  20.373  0.00  0.00    +0.000 A 
ATOM      4  C   UNL     1       1.824   7.306  20.375  0.00  0.00    +0.000 A 
ATOM      5  S   UNL     1       0.847   7.992  21.603  0.00  0.00    +0.000 S 
ATOM      6  C   UNL     1       0.646   9.411  20.677  0.00  0.00    +0.000 A 
ATOM      7  N   UNL     1      -0.115  10.460  21.144  0.00  0.00    +0.000 N 
ATOM      8  C   UNL     1      -0.434  10.682  22.464  0.00  0.00    +0.000 C 
ATOM      9  O   UNL     1      -0.100   9.984  23.422  0.00  0.00    +0.000 OA
ATOM     10  N   UNL     1       1.206   9.393  19.487  0.00  0.00    +0.000 NA
ATOM     11  C   UNL     1       1.915   8.197  19.308  0.00  0.00    +0.000 A 
ATOM     12  C   UNL     1       2.695   7.809  18.189  0.00  0.00    +0.000 A 
ATOM     13  H   UNL     1      -0.354  11.175  20.470  0.00  0.00    +0.000 HD
ENDROOT
BRANCH   8  14
ATOM     14  C   UNL     1      -1.230  11.902  22.709  0.00  0.00    +0.000 A 
ATOM     15  C   UNL     1      -0.740  13.168  22.424  0.00  0.00    +0.000 A 
ATOM     16  S   UNL     1      -1.860  14.362  22.897  0.00  0.00    +0.000 S 
ATOM     17  C   UNL     1      -2.933  13.136  23.476  0.00  0.00    +0.000 A 
ATOM     18  N   UNL     1      -2.517  11.894  23.260  0.00  0.00    +0.000 NA
BRANCH  17  19
ATOM     19  N   UNL     1      -4.035  13.556  24.150  0.00  0.00    +0.000 NA
ATOM     20  C   UNL     1      -5.204  13.213  23.717  0.00  0.00    +0.000 C 
ATOM     21  N   UNL     1      -5.537  12.538  22.593  0.00  0.00    +0.000 N 
ATOM     22  N   UNL     1      -6.319  13.540  24.411  0.00  0.00    +0.000 N 
ATOM     23  H   UNL     1      -4.736  12.050  22.192  0.00  0.00    +0.000 HD
ATOM     24  H   UNL     1      -6.324  11.913  22.708  0.00  0.00    +0.000 HD
ATOM     25  H   UNL     1      -6.162  14.275  25.090  0.00  0.00    +0.000 HD
ATOM     26  H   UNL     1      -7.153  13.692  23.856  0.00  0.00    +0.000 HD
ENDBRANCH  17  19
ENDBRANCH   8  14
BRANCH   1  27
ATOM     27  O   UNL     1       4.080   6.262  17.054  0.00  0.00    +0.000 OA
BRANCH  27  28
ATOM     28  C   UNL     1       5.359   5.662  17.304  0.00  0.00    +0.000 C 
BRANCH  28  29
ATOM     29  C   UNL     1       6.452   6.535  16.700  0.00  0.00    +0.000 C 
BRANCH  29  31
ATOM     30  C   UNL     1       7.679   5.991  18.835  0.00  0.00    +0.000 C 
ATOM     31  C   UNL     1       7.417   7.045  17.771  0.00  0.00    +0.000 C 
ENDBRANCH  29  31
ENDBRANCH  28  29
ENDBRANCH  27  28
ENDBRANCH   1  27
TORSDOF 6
ENDMDL
MODEL 7
REMARK VINA RESULT:      -7.2      3.289      4.545
REMARK  Name = 
REMARK  7 active torsions:
REMARK  status: ('A' for Active; 'I' for Inactive)
REMARK    1  A    between atoms: C_1  and  C_2
REMARK    2  A    between atoms: C_2  and  C_3
REMARK    3  A    between atoms: C_3  and  C_4
REMARK    4  A    between atoms: C_4  and  O_5
REMARK    5  A    between atoms: O_5  and  C_6
REMARK    6  A    between atoms: C_13  and  C_15
REMARK    7  A    between atoms: C_18  and  N_19
REMARK                            x       y       z     vdW  Elec       q    Type
REMARK                         _______ _______ _______ _____ _____    ______ ____
ROOT
ATOM      1  C   UNL     1       4.470   4.789  18.911  0.00  0.00    +0.000 A 
ATOM      2  C   UNL     1       4.667   5.321  17.640  0.00  0.00    +0.000 A 
ATOM      3  C   UNL     1       4.027   6.489  17.240  0.00  0.00    +0.000 A 
ATOM      4  C   UNL     1       3.162   7.115  18.147  0.00  0.00    +0.000 A 
ATOM      5  S   UNL     1       2.249   8.545  17.915  0.00  0.00    +0.000 S 
ATOM      6  C   UNL     1       1.594   8.404  19.484  0.00  0.00    +0.000 A 
ATOM      7  N   UNL     1       0.700   9.336  19.966  0.00  0.00    +0.000 N 
ATOM      8  C   UNL     1      -0.053  10.186  19.190  0.00  0.00    +0.000 C 
ATOM      9  O   UNL     1      -0.044  10.252  17.960  0.00  0.00    +0.000 OA
ATOM     10  N   UNL     1       2.049   7.398  20.198  0.00  0.00    +0.000 NA
ATOM     11  C   UNL     1       2.933   6.626  19.431  0.00  0.00    +0.000 A 
ATOM     12  C   UNL     1       3.600   5.433  19.811  0.00  0.00    +0.000 A 
ATOM     13  H   UNL     1       0.510   9.303  20.959  0.00  0.00    +0.000 HD
ENDROOT
BRANCH   8  14
ATOM     14  C   UNL     1      -0.967  11.065  19.948  0.00  0.00    +0.000 A 
ATOM     15  C   UNL     1      -2.029  11.718  19.340  0.00  0.00    +0.000 A 
ATOM     16  S   UNL     1      -2.836  12.717  20.460  0.00  0.00    +0.000 S 
ATOM     17  C   UNL     1      -1.720  12.246  21.694  0.00  0.00    +0.000 A 
ATOM     18  N   UNL     1      -0.836  11.331  21.316  0.00  0.00    +0.000 NA
BRANCH  17  19
ATOM     19  N   UNL     1      -1.808  12.901  22.881  0.00  0.00    +0.000 NA
ATOM     20  C   UNL     1      -1.030  13.910  23.100  0.00  0.00    +0.000 C 
ATOM     21  N   UNL     1      -0.027  14.399  22.337  0.00  0.00    +0.000 N 
ATOM     22  N   UNL     1      -1.150  14.638  24.235  0.00  0.00    +0.000 N 
ATOM     23  H   UNL     1      -0.080  14.059  21.377  0.00  0.00    +0.000 HD
ATOM     24  H   UNL     1       0.052  15.407  22.362  0.00  0.00    +0.000 HD
ATOM     25  H   UNL     1      -1.673  14.161  24.959  0.00  0.00    +0.000 HD
ATOM     26  H   UNL     1      -0.295  15.056  24.580  0.00  0.00    +0.000 HD
ENDBRANCH  17  19
ENDBRANCH   8  14
BRANCH   1  27
ATOM     27  O   UNL     1       5.068   3.635  19.356  0.00  0.00    +0.000 OA
BRANCH  27  28
ATOM     28  C   UNL     1       4.173   2.622  19.837  0.00  0.00    +0.000 C 
BRANCH  28  29
ATOM     29  C   UNL     1       3.438   1.995  18.658  0.00  0.00    +0.000 C 
BRANCH  29  31
ATOM     30  C   UNL     1       1.559   2.525  20.253  0.00  0.00    +0.000 C 
ATOM     31  C   UNL     1       1.924   2.006  18.871  0.00  0.00    +0.000 C 
ENDBRANCH  29  31
ENDBRANCH  28  29
ENDBRANCH  27  28
ENDBRANCH   1  27
TORSDOF 6
ENDMDL
MODEL 8
REMARK VINA RESULT:      -7.2      2.941      4.432
REMARK  Name = 
REMARK  7 active torsions:
REMARK  status: ('A' for Active; 'I' for Inactive)
REMARK    1  A    between atoms: C_1  and  C_2
REMARK    2  A    between atoms: C_2  and  C_3
REMARK    3  A    between atoms: C_3  and  C_4
REMARK    4  A    between atoms: C_4  and  O_5
REMARK    5  A    between atoms: O_5  and  C_6
REMARK    6  A    between atoms: C_13  and  C_15
REMARK    7  A    between atoms: C_18  and  N_19
REMARK                            x       y       z     vdW  Elec       q    Type
REMARK                         _______ _______ _______ _____ _____    ______ ____
ROOT
ATOM      1  C   UNL     1       3.805   5.831  17.656  0.00  0.00    +0.000 A 
ATOM      2  C   UNL     1       3.645   5.058  18.802  0.00  0.00    +0.000 A 
ATOM      3  C   UNL     1       2.921   5.526  19.893  0.00  0.00    +0.000 A 
ATOM      4  C   UNL     1       2.363   6.809  19.818  0.00  0.00    +0.000 A 
ATOM      5  S   UNL     1       1.440   7.628  21.006  0.00  0.00    +0.000 S 
ATOM      6  C   UNL     1       1.307   8.991  19.989  0.00  0.00    +0.000 A 
ATOM      7  N   UNL     1       0.611  10.110  20.392  0.00  0.00    +0.000 N 
ATOM      8  C   UNL     1       0.322  10.436  21.697  0.00  0.00    +0.000 C 
ATOM      9  O   UNL     1       0.628   9.785  22.696  0.00  0.00    +0.000 OA
ATOM     10  N   UNL     1       1.851   8.864  18.798  0.00  0.00    +0.000 NA
ATOM     11  C   UNL     1       2.491   7.621  18.693  0.00  0.00    +0.000 A 
ATOM     12  C   UNL     1       3.234   7.117  17.596  0.00  0.00    +0.000 A 
ATOM     13  H   UNL     1       0.404  10.792  19.674  0.00  0.00    +0.000 HD
ENDROOT
BRANCH   8  14
ATOM     14  C   UNL     1      -0.403  11.712  21.867  0.00  0.00    +0.000 A 
ATOM     15  C   UNL     1      -0.634  12.573  20.804  0.00  0.00    +0.000 A 
ATOM     16  S   UNL     1      -1.415  13.989  21.341  0.00  0.00    +0.000 S 
ATOM     17  C   UNL     1      -1.390  13.395  22.965  0.00  0.00    +0.000 A 
ATOM     18  N   UNL     1      -0.896  12.170  23.095  0.00  0.00    +0.000 NA
BRANCH  17  19
ATOM     19  N   UNL     1      -1.799  14.252  23.936  0.00  0.00    +0.000 NA
ATOM     20  C   UNL     1      -2.972  14.097  24.456  0.00  0.00    +0.000 C 
ATOM     21  N   UNL     1      -3.952  13.229  24.117  0.00  0.00    +0.000 N 
ATOM     22  N   UNL     1      -3.378  14.878  25.485  0.00  0.00    +0.000 N 
ATOM     23  H   UNL     1      -3.598  12.463  23.545  0.00  0.00    +0.000 HD
ATOM     24  H   UNL     1      -4.480  12.880  24.907  0.00  0.00    +0.000 HD
ATOM     25  H   UNL     1      -2.819  15.716  25.591  0.00  0.00    +0.000 HD
ATOM     26  H   UNL     1      -4.372  15.063  25.531  0.00  0.00    +0.000 HD
ENDBRANCH  17  19
ENDBRANCH   8  14
BRANCH   1  27
ATOM     27  O   UNL     1       4.517   5.423  16.554  0.00  0.00    +0.000 OA
BRANCH  27  28
ATOM     28  C   UNL     1       5.564   6.310  16.133  0.00  0.00    +0.000 C 
BRANCH  28  29
ATOM     29  C   UNL     1       6.896   5.816  16.684  0.00  0.00    +0.000 C 
BRANCH  29  31
ATOM     30  C   UNL     1       7.774   5.962  19.043  0.00  0.00    +0.000 C 
ATOM     31  C   UNL     1       7.424   6.738  17.783  0.00  0.00    +0.000 C 
ENDBRANCH  29  31
ENDBRANCH  28  29
ENDBRANCH  27  28
ENDBRANCH   1  27
TORSDOF 6
ENDMDL
MODEL 9
REMARK VINA RESULT:      -7.2      0.955      1.121
REMARK  Name = 
REMARK  7 active torsions:
REMARK  status: ('A' for Active; 'I' for Inactive)
REMARK    1  A    between atoms: C_1  and  C_2
REMARK    2  A    between atoms: C_2  and  C_3
REMARK    3  A    between atoms: C_3  and  C_4
REMARK    4  A    between atoms: C_4  and  O_5
REMARK    5  A    between atoms: O_5  and  C_6
REMARK    6  A    between atoms: C_13  and  C_15
REMARK    7  A    between atoms: C_18  and  N_19
REMARK                            x       y       z     vdW  Elec       q    Type
REMARK                         _______ _______ _______ _____ _____    ______ ____
ROOT
ATOM      1  C   UNL     1       6.088   4.768  15.782  0.00  0.00    +0.000 A 
ATOM      2  C   UNL     1       5.524   3.629  16.350  0.00  0.00    +0.000 A 
ATOM      3  C   UNL     1       4.480   3.719  17.263  0.00  0.00    +0.000 A 
ATOM      4  C   UNL     1       4.013   4.993  17.613  0.00  0.00    +0.000 A 
ATOM      5  S   UNL     1       2.758   5.391  18.707  0.00  0.00    +0.000 S 
ATOM      6  C   UNL     1       3.016   7.054  18.428  0.00  0.00    +0.000 A 
ATOM      7  N   UNL     1       2.250   8.007  19.066  0.00  0.00    +0.000 N 
ATOM      8  C   UNL     1       1.537   7.805  20.224  0.00  0.00    +0.000 C 
ATOM      9  O   UNL     1       1.464   6.753  20.862  0.00  0.00    +0.000 OA
ATOM     10  N   UNL     1       3.933   7.341  17.531  0.00  0.00    +0.000 NA
ATOM     11  C   UNL     1       4.540   6.163  17.072  0.00  0.00    +0.000 A 
ATOM     12  C   UNL     1       5.604   6.041  16.142  0.00  0.00    +0.000 A 
ATOM     13  H   UNL     1       2.320   8.950  18.708  0.00  0.00    +0.000 HD
ENDROOT
BRANCH   8  14
ATOM     14  C   UNL     1       0.829   8.999  20.729  0.00  0.00    +0.000 A 
ATOM     15  C   UNL     1       0.485   9.138  22.065  0.00  0.00    +0.000 A 
ATOM     16  S   UNL     1      -0.392  10.578  22.309  0.00  0.00    +0.000 S 
ATOM     17  C   UNL     1      -0.288  10.936  20.620  0.00  0.00    +0.000 A 
ATOM     18  N   UNL     1       0.430  10.068  19.918  0.00  0.00    +0.000 NA
BRANCH  17  19
ATOM     19  N   UNL     1      -1.001  12.003  20.176  0.00  0.00    +0.000 NA
ATOM     20  C   UNL     1      -0.399  12.915  19.485  0.00  0.00    +0.000 C 
ATOM     21  N   UNL     1       0.914  13.036  19.186  0.00  0.00    +0.000 N 
ATOM     22  N   UNL     1      -1.095  13.948  18.954  0.00  0.00    +0.000 N 
ATOM     23  H   UNL     1       1.418  12.162  19.331  0.00  0.00    +0.000 HD
ATOM     24  H   UNL     1       1.091  13.409  18.262  0.00  0.00    +0.000 HD
ATOM     25  H   UNL     1      -2.009  14.068  19.374  0.00  0.00    +0.000 HD
ATOM     26  H   UNL     1      -0.588  14.819  18.864  0.00  0.00    +0.000 HD
ENDBRANCH  17  19
ENDBRANCH   8  14
BRANCH   1  27
ATOM     27  O   UNL     1       7.126   4.738  14.883  0.00  0.00    +0.000 OA
BRANCH  27  28
ATOM     28  C   UNL     1       6.753   4.889  13.505  0.00  0.00    +0.000 C 
BRANCH  28  29
ATOM     29  C   UNL     1       5.983   3.655  13.053  0.00  0.00    +0.000 C 
BRANCH  29  31
ATOM     30  C   UNL     1       5.893   1.750  11.404  0.00  0.00    +0.000 C 
ATOM     31  C   UNL     1       6.617   3.022  11.814  0.00  0.00    +0.000 C 
ENDBRANCH  29  31
ENDBRANCH  28  29
ENDBRANCH  27  28
ENDBRANCH   1  27
TORSDOF 6
ENDMDL
