MODEL 1
REMARK VINA RESULT:      -8.9      0.000      0.000
REMARK  Name = 
REMARK  8 active torsions:
REMARK  status: ('A' for Active; 'I' for Inactive)
REMARK    1  A    between atoms: C_1  and  O_2
REMARK    2  A    between atoms: O_2  and  C_3
REMARK    3  A    between atoms: C_7  and  N_8
REMARK    4  A    between atoms: C_9  and  C_10
REMARK    5  A    between atoms: C_10  and  N_11
REMARK    6  A    between atoms: N_11  and  S_12
REMARK    7  A    between atoms: S_12  and  C_15
REMARK    8  A    between atoms: C_18  and  N_19
REMARK                            x       y       z     vdW  Elec       q    Type
REMARK                         _______ _______ _______ _____ _____    ______ ____
ROOT
ATOM      1  N   UNL     1       2.455   6.277  19.004  0.00  0.00    +0.000 N 
ATOM      2  C   UNL     1       3.365   5.866  18.058  0.00  0.00    +0.000 A 
ATOM      3  N   UNL     1       3.171   4.814  17.337  0.00  0.00    +0.000 NA
ATOM      4  C   UNL     1       2.417   3.823  18.030  0.00  0.00    +0.000 A 
ATOM      5  C   UNL     1       2.544   2.565  17.454  0.00  0.00    +0.000 A 
ATOM      6  C   UNL     1       3.377   1.663  18.101  0.00  0.00    +0.000 A 
ATOM      7  C   UNL     1       3.880   1.972  19.371  0.00  0.00    +0.000 A 
ATOM      8  C   UNL     1       3.385   3.077  20.080  0.00  0.00    +0.000 A 
ATOM      9  C   UNL     1       2.505   3.942  19.436  0.00  0.00    +0.000 A 
ATOM     10  C   UNL     1       2.194   5.322  19.958  0.00  0.00    +0.000 A 
ATOM     11  O   UNL     1       1.806   5.488  21.112  0.00  0.00    +0.000 OA
ENDROOT
BRANCH   1  16
ATOM     12  C   UNL     1       1.062   9.423  20.348  0.00  0.00    +0.000 A 
ATOM     13  C   UNL     1       0.892  10.199  19.217  0.00  0.00    +0.000 A 
ATOM     14  C   UNL     1       1.414   9.748  17.991  0.00  0.00    +0.000 A 
ATOM     15  C   UNL     1       2.006   8.476  17.866  0.00  0.00    +0.000 A 
ATOM     16  C   UNL     1       2.080   7.652  18.981  0.00  0.00    +0.000 A 
ATOM     17  C   UNL     1       1.730   8.217  20.235  0.00  0.00    +0.000 A 
BRANCH  12  19
ATOM     18  C   UNL     1      -0.363   8.857  22.135  0.00  0.00    +0.000 C 
ATOM     19  O   UNL     1       0.643   9.714  21.611  0.00  0.00    +0.000 OA
ENDBRANCH  12  19
ENDBRANCH   1  16
BRANCH   2  20
ATOM     20  C   UNL     1       4.752   6.515  18.190  0.00  0.00    +0.000 C 
BRANCH  20  21
ATOM     21  N   UNL     1       5.767   5.608  18.707  0.00  0.00    +0.000 NA
ATOM     22  H   UNL     1       5.451   4.701  19.048  0.00  0.00    +0.000 HD
BRANCH  21  23
ATOM     23  S   UNL     1       7.246   5.588  17.921  0.00  0.00    +0.000 S 
ATOM     24  O   UNL     1       7.622   6.972  17.723  0.00  0.00    +0.000 OA
ATOM     25  O   UNL     1       8.114   4.671  18.639  0.00  0.00    +0.000 OA
BRANCH  23  26
ATOM     26  C   UNL     1       6.877   4.897  16.335  0.00  0.00    +0.000 A 
ATOM     27  C   UNL     1       5.983   3.826  16.251  0.00  0.00    +0.000 A 
ATOM     28  C   UNL     1       5.664   3.291  14.999  0.00  0.00    +0.000 A 
ATOM     29  C   UNL     1       6.197   3.840  13.829  0.00  0.00    +0.000 A 
ATOM     30  C   UNL     1       7.105   4.901  13.932  0.00  0.00    +0.000 A 
ATOM     31  C   UNL     1       7.431   5.450  15.176  0.00  0.00    +0.000 A 
BRANCH  29  32
ATOM     32  N   UNL     1       6.017   3.193  12.602  0.00  0.00    +0.000 N 
ATOM     33  H   UNL     1       5.435   2.362  12.651  0.00  0.00    +0.000 HD
ATOM     34  H   UNL     1       5.750   3.806  11.838  0.00  0.00    +0.000 HD
ENDBRANCH  29  32
ENDBRANCH  23  26
ENDBRANCH  21  23
ENDBRANCH  20  21
ENDBRANCH   2  20
TORSDOF 7
ENDMDL
MODEL 2
REMARK VINA RESULT:      -8.5      0.623      1.067
REMARK  Name = 
REMARK  8 active torsions:
REMARK  status: ('A' for Active; 'I' for Inactive)
REMARK    1  A    between atoms: C_1  and  O_2
REMARK    2  A    between atoms: O_2  and  C_3
REMARK    3  A    between atoms: C_7  and  N_8
REMARK    4  A    between atoms: C_9  and  C_10
REMARK    5  A    between atoms: C_10  and  N_11
REMARK    6  A    between atoms: N_11  and  S_12
REMARK    7  A    between atoms: S_12  and  C_15
REMARK    8  A    between atoms: C_18  and  N_19
REMARK                            x       y       z     vdW  Elec       q    Type
REMARK                         _______ _______ _______ _____ _____    ______ ____
ROOT
ATOM      1  N   UNL     1       2.448   6.234  19.002  0.00  0.00    +0.000 N 
ATOM      2  C   UNL     1       3.452   5.820  18.158  0.00  0.00    +0.000 A 
ATOM      3  N   UNL     1       3.323   4.781  17.402  0.00  0.00    +0.000 NA
ATOM      4  C   UNL     1       2.480   3.795  17.990  0.00  0.00    +0.000 A 
ATOM      5  C   UNL     1       2.650   2.543  17.411  0.00  0.00    +0.000 A 
ATOM      6  C   UNL     1       3.389   1.617  18.133  0.00  0.00    +0.000 A 
ATOM      7  C   UNL     1       3.751   1.898  19.457  0.00  0.00    +0.000 A 
ATOM      8  C   UNL     1       3.197   3.002  20.124  0.00  0.00    +0.000 A 
ATOM      9  C   UNL     1       2.410   3.893  19.398  0.00  0.00    +0.000 A 
ATOM     10  C   UNL     1       2.064   5.270  19.905  0.00  0.00    +0.000 A 
ATOM     11  O   UNL     1       1.552   5.427  21.010  0.00  0.00    +0.000 OA
ENDROOT
BRANCH   1  16
ATOM     12  C   UNL     1       1.057   9.410  20.275  0.00  0.00    +0.000 A 
ATOM     13  C   UNL     1       0.952  10.185  19.136  0.00  0.00    +0.000 A 
ATOM     14  C   UNL     1       1.519   9.721  17.935  0.00  0.00    +0.000 A 
ATOM     15  C   UNL     1       2.092   8.438  17.840  0.00  0.00    +0.000 A 
ATOM     16  C   UNL     1       2.100   7.615  18.959  0.00  0.00    +0.000 A 
ATOM     17  C   UNL     1       1.707   8.191  20.195  0.00  0.00    +0.000 A 
BRANCH  12  19
ATOM     18  C   UNL     1      -0.345   8.789  22.062  0.00  0.00    +0.000 C 
ATOM     19  O   UNL     1       0.588   9.712  21.518  0.00  0.00    +0.000 OA
ENDBRANCH  12  19
ENDBRANCH   1  16
BRANCH   2  20
ATOM     20  C   UNL     1       4.826   6.442  18.456  0.00  0.00    +0.000 C 
BRANCH  20  21
ATOM     21  N   UNL     1       5.539   6.865  17.259  0.00  0.00    +0.000 NA
ATOM     22  H   UNL     1       5.496   7.854  17.016  0.00  0.00    +0.000 HD
BRANCH  21  23
ATOM     23  S   UNL     1       7.010   6.127  16.945  0.00  0.00    +0.000 S 
ATOM     24  O   UNL     1       7.926   7.184  16.572  0.00  0.00    +0.000 OA
ATOM     25  O   UNL     1       7.302   5.238  18.055  0.00  0.00    +0.000 OA
BRANCH  23  26
ATOM     26  C   UNL     1       6.697   5.151  15.502  0.00  0.00    +0.000 A 
ATOM     27  C   UNL     1       7.388   5.440  14.322  0.00  0.00    +0.000 A 
ATOM     28  C   UNL     1       7.168   4.656  13.185  0.00  0.00    +0.000 A 
ATOM     29  C   UNL     1       6.297   3.563  13.227  0.00  0.00    +0.000 A 
ATOM     30  C   UNL     1       5.599   3.299  14.412  0.00  0.00    +0.000 A 
ATOM     31  C   UNL     1       5.811   4.070  15.558  0.00  0.00    +0.000 A 
BRANCH  29  32
ATOM     32  N   UNL     1       5.947   2.897  12.047  0.00  0.00    +0.000 N 
ATOM     33  H   UNL     1       6.617   3.007  11.293  0.00  0.00    +0.000 HD
ATOM     34  H   UNL     1       5.668   1.930  12.178  0.00  0.00    +0.000 HD
ENDBRANCH  29  32
ENDBRANCH  23  26
ENDBRANCH  21  23
ENDBRANCH  20  21
ENDBRANCH   2  20
TORSDOF 7
ENDMDL
MODEL 3
REMARK VINA RESULT:      -8.3      2.371      6.860
REMARK  Name = 
REMARK  8 active torsions:
REMARK  status: ('A' for Active; 'I' for Inactive)
REMARK    1  A    between atoms: C_1  and  O_2
REMARK    2  A    between atoms: O_2  and  C_3
REMARK    3  A    between atoms: C_7  and  N_8
REMARK    4  A    between atoms: C_9  and  C_10
REMARK    5  A    between atoms: C_10  and  N_11
REMARK    6  A    between atoms: N_11  and  S_12
REMARK    7  A    between atoms: S_12  and  C_15
REMARK    8  A    between atoms: C_18  and  N_19
REMARK                            x       y       z     vdW  Elec       q    Type
REMARK                         _______ _______ _______ _____ _____    ______ ____
ROOT
ATOM      1  N   UNL     1       4.249   3.753  17.783  0.00  0.00    +0.000 N 
ATOM      2  C   UNL     1       4.553   4.247  19.030  0.00  0.00    +0.000 A 
ATOM      3  N   UNL     1       4.455   3.522  20.093  0.00  0.00    +0.000 NA
ATOM      4  C   UNL     1       3.422   2.548  19.982  0.00  0.00    +0.000 A 
ATOM      5  C   UNL     1       3.032   2.048  21.218  0.00  0.00    +0.000 A 
ATOM      6  C   UNL     1       1.836   2.525  21.736  0.00  0.00    +0.000 A 
ATOM      7  C   UNL     1       0.996   3.308  20.933  0.00  0.00    +0.000 A 
ATOM      8  C   UNL     1       1.247   3.435  19.558  0.00  0.00    +0.000 A 
ATOM      9  C   UNL     1       2.425   2.901  19.043  0.00  0.00    +0.000 A 
ATOM     10  C   UNL     1       2.962   3.277  17.686  0.00  0.00    +0.000 A 
ATOM     11  O   UNL     1       2.262   3.184  16.681  0.00  0.00    +0.000 OA
ENDROOT
BRANCH   1  16
ATOM     12  C   UNL     1       7.019   5.492  16.066  0.00  0.00    +0.000 A 
ATOM     13  C   UNL     1       6.971   4.971  14.787  0.00  0.00    +0.000 A 
ATOM     14  C   UNL     1       6.118   3.885  14.520  0.00  0.00    +0.000 A 
ATOM     15  C   UNL     1       5.232   3.389  15.495  0.00  0.00    +0.000 A 
ATOM     16  C   UNL     1       5.203   3.983  16.750  0.00  0.00    +0.000 A 
ATOM     17  C   UNL     1       6.215   4.935  17.043  0.00  0.00    +0.000 A 
BRANCH  12  19
ATOM     18  C   UNL     1       7.151   7.462  17.349  0.00  0.00    +0.000 C 
ATOM     19  O   UNL     1       7.798   6.521  16.503  0.00  0.00    +0.000 OA
ENDBRANCH  12  19
ENDBRANCH   1  16
BRANCH   2  20
ATOM     20  C   UNL     1       4.646   5.780  19.099  0.00  0.00    +0.000 C 
BRANCH  20  21
ATOM     21  N   UNL     1       3.440   6.408  19.620  0.00  0.00    +0.000 NA
ATOM     22  H   UNL     1       3.477   6.772  20.572  0.00  0.00    +0.000 HD
BRANCH  21  23
ATOM     23  S   UNL     1       2.536   7.328  18.551  0.00  0.00    +0.000 S 
ATOM     24  O   UNL     1       3.479   8.134  17.807  0.00  0.00    +0.000 OA
ATOM     25  O   UNL     1       1.614   6.434  17.873  0.00  0.00    +0.000 OA
BRANCH  23  26
ATOM     26  C   UNL     1       1.609   8.411  19.599  0.00  0.00    +0.000 A 
ATOM     27  C   UNL     1       1.071   9.583  19.060  0.00  0.00    +0.000 A 
ATOM     28  C   UNL     1       0.313  10.432  19.874  0.00  0.00    +0.000 A 
ATOM     29  C   UNL     1       0.054  10.101  21.207  0.00  0.00    +0.000 A 
ATOM     30  C   UNL     1       0.615   8.932  21.736  0.00  0.00    +0.000 A 
ATOM     31  C   UNL     1       1.371   8.072  20.935  0.00  0.00    +0.000 A 
BRANCH  29  32
ATOM     32  N   UNL     1      -0.548  11.033  22.059  0.00  0.00    +0.000 N 
ATOM     33  H   UNL     1      -0.417  10.839  23.047  0.00  0.00    +0.000 HD
ATOM     34  H   UNL     1      -0.354  12.002  21.827  0.00  0.00    +0.000 HD
ENDBRANCH  29  32
ENDBRANCH  23  26
ENDBRANCH  21  23
ENDBRANCH  20  21
ENDBRANCH   2  20
TORSDOF 7
ENDMDL
MODEL 4
REMARK VINA RESULT:      -8.1      2.660      7.224
REMARK  Name = 
REMARK  8 active torsions:
REMARK  status: ('A' for Active; 'I' for Inactive)
REMARK    1  A    between atoms: C_1  and  O_2
REMARK    2  A    between atoms: O_2  and  C_3
REMARK    3  A    between atoms: C_7  and  N_8
REMARK    4  A    between atoms: C_9  and  C_10
REMARK    5  A    between atoms: C_10  and  N_11
REMARK    6  A    between atoms: N_11  and  S_12
REMARK    7  A    between atoms: S_12  and  C_15
REMARK    8  A    between atoms: C_18  and  N_19
REMARK                            x       y       z     vdW  Elec       q    Type
REMARK                         _______ _______ _______ _____ _____    ______ ____
ROOT
ATOM      1  N   UNL     1       4.249   4.771  18.306  0.00  0.00    +0.000 N 
ATOM      2  C   UNL     1       3.337   5.528  19.002  0.00  0.00    +0.000 A 
ATOM      3  N   UNL     1       2.947   5.205  20.189  0.00  0.00    +0.000 NA
ATOM      4  C   UNL     1       2.950   3.794  20.386  0.00  0.00    +0.000 A 
ATOM      5  C   UNL     1       2.170   3.411  21.471  0.00  0.00    +0.000 A 
ATOM      6  C   UNL     1       0.928   2.862  21.184  0.00  0.00    +0.000 A 
ATOM      7  C   UNL     1       0.603   2.538  19.860  0.00  0.00    +0.000 A 
ATOM      8  C   UNL     1       1.588   2.563  18.861  0.00  0.00    +0.000 A 
ATOM      9  C   UNL     1       2.847   3.065  19.180  0.00  0.00    +0.000 A 
ATOM     10  C   UNL     1       3.851   3.466  18.129  0.00  0.00    +0.000 A 
ATOM     11  O   UNL     1       4.182   2.686  17.240  0.00  0.00    +0.000 OA
ENDROOT
BRANCH   1  16
ATOM     12  C   UNL     1       6.644   5.648  15.634  0.00  0.00    +0.000 A 
ATOM     13  C   UNL     1       7.625   6.349  16.310  0.00  0.00    +0.000 A 
ATOM     14  C   UNL     1       7.413   6.702  17.655  0.00  0.00    +0.000 A 
ATOM     15  C   UNL     1       6.276   6.262  18.360  0.00  0.00    +0.000 A 
ATOM     16  C   UNL     1       5.341   5.466  17.710  0.00  0.00    +0.000 A 
ATOM     17  C   UNL     1       5.487   5.303  16.308  0.00  0.00    +0.000 A 
BRANCH  12  19
ATOM     18  C   UNL     1       6.132   3.958  14.078  0.00  0.00    +0.000 C 
ATOM     19  O   UNL     1       6.674   5.246  14.333  0.00  0.00    +0.000 OA
ENDBRANCH  12  19
ENDBRANCH   1  16
BRANCH   2  20
ATOM     20  C   UNL     1       2.562   6.538  18.140  0.00  0.00    +0.000 C 
BRANCH  20  21
ATOM     21  N   UNL     1       2.887   7.925  18.443  0.00  0.00    +0.000 NA
ATOM     22  H   UNL     1       3.843   8.230  18.264  0.00  0.00    +0.000 HD
BRANCH  21  23
ATOM     23  S   UNL     1       1.710   9.072  18.121  0.00  0.00    +0.000 S 
ATOM     24  O   UNL     1       2.411  10.278  17.732  0.00  0.00    +0.000 OA
ATOM     25  O   UNL     1       0.726   8.461  17.246  0.00  0.00    +0.000 OA
BRANCH  23  26
ATOM     26  C   UNL     1       0.961   9.369  19.697  0.00  0.00    +0.000 A 
ATOM     27  C   UNL     1       1.324   8.569  20.784  0.00  0.00    +0.000 A 
ATOM     28  C   UNL     1       0.758   8.814  22.039  0.00  0.00    +0.000 A 
ATOM     29  C   UNL     1      -0.134   9.873  22.227  0.00  0.00    +0.000 A 
ATOM     30  C   UNL     1      -0.501  10.654  21.124  0.00  0.00    +0.000 A 
ATOM     31  C   UNL     1       0.059  10.425  19.864  0.00  0.00    +0.000 A 
BRANCH  29  32
ATOM     32  N   UNL     1      -0.830  10.002  23.434  0.00  0.00    +0.000 N 
ATOM     33  H   UNL     1      -0.868   9.150  23.985  0.00  0.00    +0.000 HD
ATOM     34  H   UNL     1      -0.563  10.809  23.990  0.00  0.00    +0.000 HD
ENDBRANCH  29  32
ENDBRANCH  23  26
ENDBRANCH  21  23
ENDBRANCH  20  21
ENDBRANCH   2  20
TORSDOF 7
ENDMDL
MODEL 5
REMARK VINA RESULT:      -8.1      2.644      6.950
REMARK  Name = 
REMARK  8 active torsions:
REMARK  status: ('A' for Active; 'I' for Inactive)
REMARK    1  A    between atoms: C_1  and  O_2
REMARK    2  A    between atoms: O_2  and  C_3
REMARK    3  A    between atoms: C_7  and  N_8
REMARK    4  A    between atoms: C_9  and  C_10
REMARK    5  A    between atoms: C_10  and  N_11
REMARK    6  A    between atoms: N_11  and  S_12
REMARK    7  A    between atoms: S_12  and  C_15
REMARK    8  A    between atoms: C_18  and  N_19
REMARK                            x       y       z     vdW  Elec       q    Type
REMARK                         _______ _______ _______ _____ _____    ______ ____
ROOT
ATOM      1  N   UNL     1       4.080   4.216  18.037  0.00  0.00    +0.000 N 
ATOM      2  C   UNL     1       3.427   5.149  18.808  0.00  0.00    +0.000 A 
ATOM      3  N   UNL     1       3.211   4.963  20.067  0.00  0.00    +0.000 NA
ATOM      4  C   UNL     1       3.043   3.584  20.382  0.00  0.00    +0.000 A 
ATOM      5  C   UNL     1       2.421   3.395  21.610  0.00  0.00    +0.000 A 
ATOM      6  C   UNL     1       1.081   3.034  21.583  0.00  0.00    +0.000 A 
ATOM      7  C   UNL     1       0.481   2.688  20.365  0.00  0.00    +0.000 A 
ATOM      8  C   UNL     1       1.266   2.497  19.217  0.00  0.00    +0.000 A 
ATOM      9  C   UNL     1       2.621   2.810  19.277  0.00  0.00    +0.000 A 
ATOM     10  C   UNL     1       3.470   2.983  18.043  0.00  0.00    +0.000 A 
ATOM     11  O   UNL     1       3.520   2.108  17.182  0.00  0.00    +0.000 OA
ENDROOT
BRANCH   1  16
ATOM     12  C   UNL     1       7.094   6.181  17.203  0.00  0.00    +0.000 A 
ATOM     13  C   UNL     1       7.136   6.120  15.823  0.00  0.00    +0.000 A 
ATOM     14  C   UNL     1       6.250   5.261  15.147  0.00  0.00    +0.000 A 
ATOM     15  C   UNL     1       5.249   4.548  15.834  0.00  0.00    +0.000 A 
ATOM     16  C   UNL     1       5.138   4.692  17.211  0.00  0.00    +0.000 A 
ATOM     17  C   UNL     1       6.171   5.402  17.877  0.00  0.00    +0.000 A 
BRANCH  12  19
ATOM     18  C   UNL     1       7.871   8.333  17.755  0.00  0.00    +0.000 C 
ATOM     19  O   UNL     1       7.887   6.936  18.014  0.00  0.00    +0.000 OA
ENDBRANCH  12  19
ENDBRANCH   1  16
BRANCH   2  20
ATOM     20  C   UNL     1       2.667   6.216  18.003  0.00  0.00    +0.000 C 
BRANCH  20  21
ATOM     21  N   UNL     1       2.992   7.579  18.401  0.00  0.00    +0.000 NA
ATOM     22  H   UNL     1       3.958   7.882  18.281  0.00  0.00    +0.000 HD
BRANCH  21  23
ATOM     23  S   UNL     1       1.842   8.758  18.097  0.00  0.00    +0.000 S 
ATOM     24  O   UNL     1       2.569   9.947  17.708  0.00  0.00    +0.000 OA
ATOM     25  O   UNL     1       0.834   8.176  17.227  0.00  0.00    +0.000 OA
BRANCH  23  26
ATOM     26  C   UNL     1       1.115   9.064  19.681  0.00  0.00    +0.000 A 
ATOM     27  C   UNL     1       1.542   8.315  20.781  0.00  0.00    +0.000 A 
ATOM     28  C   UNL     1       0.994   8.570  22.042  0.00  0.00    +0.000 A 
ATOM     29  C   UNL     1       0.054   9.589  22.222  0.00  0.00    +0.000 A 
ATOM     30  C   UNL     1      -0.376  10.318  21.105  0.00  0.00    +0.000 A 
ATOM     31  C   UNL     1       0.166  10.079  19.840  0.00  0.00    +0.000 A 
BRANCH  29  32
ATOM     32  N   UNL     1      -0.619   9.720  23.441  0.00  0.00    +0.000 N 
ATOM     33  H   UNL     1      -0.554  10.644  23.856  0.00  0.00    +0.000 HD
ATOM     34  H   UNL     1      -1.571   9.366  23.436  0.00  0.00    +0.000 HD
ENDBRANCH  29  32
ENDBRANCH  23  26
ENDBRANCH  21  23
ENDBRANCH  20  21
ENDBRANCH   2  20
TORSDOF 7
ENDMDL
MODEL 6
REMARK VINA RESULT:      -8.0      2.604      7.269
REMARK  Name = 
REMARK  8 active torsions:
REMARK  status: ('A' for Active; 'I' for Inactive)
REMARK    1  A    between atoms: C_1  and  O_2
REMARK    2  A    between atoms: O_2  and  C_3
REMARK    3  A    between atoms: C_7  and  N_8
REMARK    4  A    between atoms: C_9  and  C_10
REMARK    5  A    between atoms: C_10  and  N_11
REMARK    6  A    between atoms: N_11  and  S_12
REMARK    7  A    between atoms: S_12  and  C_15
REMARK    8  A    between atoms: C_18  and  N_19
REMARK                            x       y       z     vdW  Elec       q    Type
REMARK                         _______ _______ _______ _____ _____    ______ ____
ROOT
ATOM      1  N   UNL     1       4.313   3.991  17.786  0.00  0.00    +0.000 N 
ATOM      2  C   UNL     1       4.557   4.476  19.049  0.00  0.00    +0.000 A 
ATOM      3  N   UNL     1       4.468   3.728  20.097  0.00  0.00    +0.000 NA
ATOM      4  C   UNL     1       3.490   2.704  19.940  0.00  0.00    +0.000 A 
ATOM      5  C   UNL     1       3.093   2.162  21.157  0.00  0.00    +0.000 A 
ATOM      6  C   UNL     1       1.860   2.567  21.649  0.00  0.00    +0.000 A 
ATOM      7  C   UNL     1       1.003   3.320  20.836  0.00  0.00    +0.000 A 
ATOM      8  C   UNL     1       1.285   3.486  19.470  0.00  0.00    +0.000 A 
ATOM      9  C   UNL     1       2.503   3.023  18.980  0.00  0.00    +0.000 A 
ATOM     10  C   UNL     1       3.056   3.451  17.645  0.00  0.00    +0.000 A 
ATOM     11  O   UNL     1       2.389   3.340  16.619  0.00  0.00    +0.000 OA
ENDROOT
BRANCH   1  16
ATOM     12  C   UNL     1       5.670   4.218  14.359  0.00  0.00    +0.000 A 
ATOM     13  C   UNL     1       7.024   4.405  14.569  0.00  0.00    +0.000 A 
ATOM     14  C   UNL     1       7.488   4.642  15.876  0.00  0.00    +0.000 A 
ATOM     15  C   UNL     1       6.624   4.583  16.986  0.00  0.00    +0.000 A 
ATOM     16  C   UNL     1       5.282   4.288  16.785  0.00  0.00    +0.000 A 
ATOM     17  C   UNL     1       4.815   4.257  15.445  0.00  0.00    +0.000 A 
BRANCH  12  19
ATOM     18  C   UNL     1       5.786   3.230  12.225  0.00  0.00    +0.000 C 
ATOM     19  O   UNL     1       5.050   3.999  13.166  0.00  0.00    +0.000 OA
ENDBRANCH  12  19
ENDBRANCH   1  16
BRANCH   2  20
ATOM     20  C   UNL     1       4.569   6.011  19.147  0.00  0.00    +0.000 C 
BRANCH  20  21
ATOM     21  N   UNL     1       3.331   6.564  19.679  0.00  0.00    +0.000 NA
ATOM     22  H   UNL     1       3.343   6.894  20.643  0.00  0.00    +0.000 HD
BRANCH  21  23
ATOM     23  S   UNL     1       2.393   7.479  18.634  0.00  0.00    +0.000 S 
ATOM     24  O   UNL     1       3.308   8.331  17.905  0.00  0.00    +0.000 OA
ATOM     25  O   UNL     1       1.496   6.573  17.940  0.00  0.00    +0.000 OA
BRANCH  23  26
ATOM     26  C   UNL     1       1.438   8.509  19.710  0.00  0.00    +0.000 A 
ATOM     27  C   UNL     1       0.852   9.669  19.197  0.00  0.00    +0.000 A 
ATOM     28  C   UNL     1       0.072  10.475  20.033  0.00  0.00    +0.000 A 
ATOM     29  C   UNL     1      -0.161  10.112  21.363  0.00  0.00    +0.000 A 
ATOM     30  C   UNL     1       0.449   8.956  21.866  0.00  0.00    +0.000 A 
ATOM     31  C   UNL     1       1.227   8.138  21.042  0.00  0.00    +0.000 A 
BRANCH  29  32
ATOM     32  N   UNL     1      -0.788  11.007  22.237  0.00  0.00    +0.000 N 
ATOM     33  H   UNL     1      -1.771  10.812  22.396  0.00  0.00    +0.000 HD
ATOM     34  H   UNL     1      -0.283  11.174  23.102  0.00  0.00    +0.000 HD
ENDBRANCH  29  32
ENDBRANCH  23  26
ENDBRANCH  21  23
ENDBRANCH  20  21
ENDBRANCH   2  20
TORSDOF 7
ENDMDL
MODEL 7
REMARK VINA RESULT:      -7.9      2.759      7.515
REMARK  Name = 
REMARK  8 active torsions:
REMARK  status: ('A' for Active; 'I' for Inactive)
REMARK    1  A    between atoms: C_1  and  O_2
REMARK    2  A    between atoms: O_2  and  C_3
REMARK    3  A    between atoms: C_7  and  N_8
REMARK    4  A    between atoms: C_9  and  C_10
REMARK    5  A    between atoms: C_10  and  N_11
REMARK    6  A    between atoms: N_11  and  S_12
REMARK    7  A    between atoms: S_12  and  C_15
REMARK    8  A    between atoms: C_18  and  N_19
REMARK                            x       y       z     vdW  Elec       q    Type
REMARK                         _______ _______ _______ _____ _____    ______ ____
ROOT
ATOM      1  N   UNL     1       4.073   4.128  17.673  0.00  0.00    +0.000 N 
ATOM      2  C   UNL     1       3.661   5.069  18.587  0.00  0.00    +0.000 A 
ATOM      3  N   UNL     1       3.558   4.798  19.845  0.00  0.00    +0.000 NA
ATOM      4  C   UNL     1       3.214   3.435  20.071  0.00  0.00    +0.000 A 
ATOM      5  C   UNL     1       2.708   3.223  21.348  0.00  0.00    +0.000 A 
ATOM      6  C   UNL     1       1.334   3.064  21.457  0.00  0.00    +0.000 A 
ATOM      7  C   UNL     1       0.558   2.925  20.299  0.00  0.00    +0.000 A 
ATOM      8  C   UNL     1       1.173   2.731  19.053  0.00  0.00    +0.000 A 
ATOM      9  C   UNL     1       2.559   2.838  18.970  0.00  0.00    +0.000 A 
ATOM     10  C   UNL     1       3.284   3.001  17.658  0.00  0.00    +0.000 A 
ATOM     11  O   UNL     1       3.103   2.214  16.733  0.00  0.00    +0.000 OA
ENDROOT
BRANCH   1  16
ATOM     12  C   UNL     1       5.776   4.372  14.404  0.00  0.00    +0.000 A 
ATOM     13  C   UNL     1       7.048   4.794  14.744  0.00  0.00    +0.000 A 
ATOM     14  C   UNL     1       7.310   5.183  16.070  0.00  0.00    +0.000 A 
ATOM     15  C   UNL     1       6.340   5.047  17.082  0.00  0.00    +0.000 A 
ATOM     16  C   UNL     1       5.095   4.522  16.761  0.00  0.00    +0.000 A 
ATOM     17  C   UNL     1       4.802   4.333  15.385  0.00  0.00    +0.000 A 
BRANCH  12  19
ATOM     18  C   UNL     1       6.326   3.372  12.345  0.00  0.00    +0.000 C 
ATOM     19  O   UNL     1       5.345   3.982  13.172  0.00  0.00    +0.000 OA
ENDBRANCH  12  19
ENDBRANCH   1  16
BRANCH   2  20
ATOM     20  C   UNL     1       2.991   6.306  17.966  0.00  0.00    +0.000 C 
BRANCH  20  21
ATOM     21  N   UNL     1       2.778   7.386  18.919  0.00  0.00    +0.000 NA
ATOM     22  H   UNL     1       3.555   7.626  19.533  0.00  0.00    +0.000 HD
BRANCH  21  23
ATOM     23  S   UNL     1       1.860   8.689  18.403  0.00  0.00    +0.000 S 
ATOM     24  O   UNL     1       2.797   9.735  18.051  0.00  0.00    +0.000 OA
ATOM     25  O   UNL     1       0.893   8.193  17.440  0.00  0.00    +0.000 OA
BRANCH  23  26
ATOM     26  C   UNL     1       0.997   9.206  19.859  0.00  0.00    +0.000 A 
ATOM     27  C   UNL     1       1.342   8.642  21.090  0.00  0.00    +0.000 A 
ATOM     28  C   UNL     1       0.684   9.065  22.250  0.00  0.00    +0.000 A 
ATOM     29  C   UNL     1      -0.283  10.072  22.197  0.00  0.00    +0.000 A 
ATOM     30  C   UNL     1      -0.630  10.614  20.952  0.00  0.00    +0.000 A 
ATOM     31  C   UNL     1       0.021  10.205  19.785  0.00  0.00    +0.000 A 
BRANCH  29  32
ATOM     32  N   UNL     1      -1.060  10.363  23.324  0.00  0.00    +0.000 N 
ATOM     33  H   UNL     1      -1.691   9.616  23.598  0.00  0.00    +0.000 HD
ATOM     34  H   UNL     1      -0.536  10.733  24.111  0.00  0.00    +0.000 HD
ENDBRANCH  29  32
ENDBRANCH  23  26
ENDBRANCH  21  23
ENDBRANCH  20  21
ENDBRANCH   2  20
TORSDOF 7
ENDMDL
MODEL 8
REMARK VINA RESULT:      -7.9      1.006      1.861
REMARK  Name = 
REMARK  8 active torsions:
REMARK  status: ('A' for Active; 'I' for Inactive)
REMARK    1  A    between atoms: C_1  and  O_2
REMARK    2  A    between atoms: O_2  and  C_3
REMARK    3  A    between atoms: C_7  and  N_8
REMARK    4  A    between atoms: C_9  and  C_10
REMARK    5  A    between atoms: C_10  and  N_11
REMARK    6  A    between atoms: N_11  and  S_12
REMARK    7  A    between atoms: S_12  and  C_15
REMARK    8  A    between atoms: C_18  and  N_19
REMARK                            x       y       z     vdW  Elec       q    Type
REMARK                         _______ _______ _______ _____ _____    ______ ____
ROOT
ATOM      1  N   UNL     1       2.354   5.797  19.601  0.00  0.00    +0.000 N 
ATOM      2  C   UNL     1       3.106   5.585  18.469  0.00  0.00    +0.000 A 
ATOM      3  N   UNL     1       2.877   4.595  17.673  0.00  0.00    +0.000 NA
ATOM      4  C   UNL     1       2.357   3.463  18.365  0.00  0.00    +0.000 A 
ATOM      5  C   UNL     1       2.487   2.291  17.631  0.00  0.00    +0.000 A 
ATOM      6  C   UNL     1       3.503   1.425  18.011  0.00  0.00    +0.000 A 
ATOM      7  C   UNL     1       4.204   1.659  19.202  0.00  0.00    +0.000 A 
ATOM      8  C   UNL     1       3.751   2.626  20.112  0.00  0.00    +0.000 A 
ATOM      9  C   UNL     1       2.693   3.450  19.738  0.00  0.00    +0.000 A 
ATOM     10  C   UNL     1       2.361   4.728  20.466  0.00  0.00    +0.000 A 
ATOM     11  O   UNL     1       2.181   4.735  21.681  0.00  0.00    +0.000 OA
ENDROOT
BRANCH   1  16
ATOM     12  C   UNL     1       1.793   9.358  18.800  0.00  0.00    +0.000 A 
ATOM     13  C   UNL     1       1.369   9.888  20.004  0.00  0.00    +0.000 A 
ATOM     14  C   UNL     1       1.088   9.019  21.074  0.00  0.00    +0.000 A 
ATOM     15  C   UNL     1       1.333   7.635  20.982  0.00  0.00    +0.000 A 
ATOM     16  C   UNL     1       1.860   7.117  19.807  0.00  0.00    +0.000 A 
ATOM     17  C   UNL     1       1.938   7.988  18.688  0.00  0.00    +0.000 A 
BRANCH  12  19
ATOM     18  C   UNL     1       2.235  11.451  17.816  0.00  0.00    +0.000 C 
ATOM     19  O   UNL     1       2.088  10.046  17.661  0.00  0.00    +0.000 OA
ENDBRANCH  12  19
ENDBRANCH   1  16
BRANCH   2  20
ATOM     20  C   UNL     1       4.430   6.366  18.433  0.00  0.00    +0.000 C 
BRANCH  20  21
ATOM     21  N   UNL     1       5.553   5.624  18.989  0.00  0.00    +0.000 NA
ATOM     22  H   UNL     1       5.354   4.708  19.391  0.00  0.00    +0.000 HD
BRANCH  21  23
ATOM     23  S   UNL     1       7.016   5.735  18.181  0.00  0.00    +0.000 S 
ATOM     24  O   UNL     1       7.264   7.146  17.977  0.00  0.00    +0.000 OA
ATOM     25  O   UNL     1       7.973   4.899  18.886  0.00  0.00    +0.000 OA
BRANCH  23  26
ATOM     26  C   UNL     1       6.687   5.010  16.601  0.00  0.00    +0.000 A 
ATOM     27  C   UNL     1       7.296   5.551  15.465  0.00  0.00    +0.000 A 
ATOM     28  C   UNL     1       7.063   4.967  14.215  0.00  0.00    +0.000 A 
ATOM     29  C   UNL     1       6.263   3.828  14.095  0.00  0.00    +0.000 A 
ATOM     30  C   UNL     1       5.646   3.310  15.241  0.00  0.00    +0.000 A 
ATOM     31  C   UNL     1       5.872   3.878  16.497  0.00  0.00    +0.000 A 
BRANCH  29  32
ATOM     32  N   UNL     1       5.892   3.359  12.830  0.00  0.00    +0.000 N 
ATOM     33  H   UNL     1       6.216   2.419  12.623  0.00  0.00    +0.000 HD
ATOM     34  H   UNL     1       4.909   3.486  12.607  0.00  0.00    +0.000 HD
ENDBRANCH  29  32
ENDBRANCH  23  26
ENDBRANCH  21  23
ENDBRANCH  20  21
ENDBRANCH   2  20
TORSDOF 7
ENDMDL
MODEL 9
REMARK VINA RESULT:      -7.9      1.049      1.161
REMARK  Name = 
REMARK  8 active torsions:
REMARK  status: ('A' for Active; 'I' for Inactive)
REMARK    1  A    between atoms: C_1  and  O_2
REMARK    2  A    between atoms: O_2  and  C_3
REMARK    3  A    between atoms: C_7  and  N_8
REMARK    4  A    between atoms: C_9  and  C_10
REMARK    5  A    between atoms: C_10  and  N_11
REMARK    6  A    between atoms: N_11  and  S_12
REMARK    7  A    between atoms: S_12  and  C_15
REMARK    8  A    between atoms: C_18  and  N_19
REMARK                            x       y       z     vdW  Elec       q    Type
REMARK                         _______ _______ _______ _____ _____    ______ ____
ROOT
ATOM      1  N   UNL     1       2.611   5.822  19.123  0.00  0.00    +0.000 N 
ATOM      2  C   UNL     1       3.618   5.398  18.288  0.00  0.00    +0.000 A 
ATOM      3  N   UNL     1       3.504   4.333  17.568  0.00  0.00    +0.000 NA
ATOM      4  C   UNL     1       2.680   3.352  18.192  0.00  0.00    +0.000 A 
ATOM      5  C   UNL     1       2.869   2.085  17.654  0.00  0.00    +0.000 A 
ATOM      6  C   UNL     1       3.628   1.196  18.402  0.00  0.00    +0.000 A 
ATOM      7  C   UNL     1       3.992   1.527  19.713  0.00  0.00    +0.000 A 
ATOM      8  C   UNL     1       3.422   2.643  20.347  0.00  0.00    +0.000 A 
ATOM      9  C   UNL     1       2.616   3.495  19.597  0.00  0.00    +0.000 A 
ATOM     10  C   UNL     1       2.249   4.882  20.060  0.00  0.00    +0.000 A 
ATOM     11  O   UNL     1       1.740   5.067  21.162  0.00  0.00    +0.000 OA
ENDROOT
BRANCH   1  16
ATOM     12  C   UNL     1       1.196   9.021  20.310  0.00  0.00    +0.000 A 
ATOM     13  C   UNL     1       1.053   9.752  19.145  0.00  0.00    +0.000 A 
ATOM     14  C   UNL     1       1.601   9.251  17.950  0.00  0.00    +0.000 A 
ATOM     15  C   UNL     1       2.192   7.975  17.889  0.00  0.00    +0.000 A 
ATOM     16  C   UNL     1       2.240   7.195  19.038  0.00  0.00    +0.000 A 
ATOM     17  C   UNL     1       1.864   7.811  20.260  0.00  0.00    +0.000 A 
BRANCH  12  19
ATOM     18  C   UNL     1      -0.041  10.542  21.614  0.00  0.00    +0.000 C 
ATOM     19  O   UNL     1       0.750   9.363  21.551  0.00  0.00    +0.000 OA
ENDBRANCH  12  19
ENDBRANCH   1  16
BRANCH   2  20
ATOM     20  C   UNL     1       4.983   6.053  18.558  0.00  0.00    +0.000 C 
BRANCH  20  21
ATOM     21  N   UNL     1       6.044   5.548  17.698  0.00  0.00    +0.000 NA
ATOM     22  H   UNL     1       6.090   4.540  17.555  0.00  0.00    +0.000 HD
BRANCH  21  23
ATOM     23  S   UNL     1       6.441   6.467  16.355  0.00  0.00    +0.000 S 
ATOM     24  O   UNL     1       5.344   7.391  16.154  0.00  0.00    +0.000 OA
ATOM     25  O   UNL     1       7.801   6.944  16.533  0.00  0.00    +0.000 OA
BRANCH  23  26
ATOM     26  C   UNL     1       6.417   5.304  15.021  0.00  0.00    +0.000 A 
ATOM     27  C   UNL     1       5.328   4.438  14.893  0.00  0.00    +0.000 A 
ATOM     28  C   UNL     1       5.288   3.535  13.825  0.00  0.00    +0.000 A 
ATOM     29  C   UNL     1       6.303   3.517  12.864  0.00  0.00    +0.000 A 
ATOM     30  C   UNL     1       7.396   4.379  13.018  0.00  0.00    +0.000 A 
ATOM     31  C   UNL     1       7.449   5.290  14.076  0.00  0.00    +0.000 A 
BRANCH  29  32
ATOM     32  N   UNL     1       6.348   2.498  11.907  0.00  0.00    +0.000 N 
ATOM     33  H   UNL     1       6.444   1.565  12.296  0.00  0.00    +0.000 HD
ATOM     34  H   UNL     1       5.618   2.549  11.204  0.00  0.00    +0.000 HD
ENDBRANCH  29  32
ENDBRANCH  23  26
ENDBRANCH  21  23
ENDBRANCH  20  21
ENDBRANCH   2  20
TORSDOF 7
ENDMDL
