MODEL 1
REMARK VINA RESULT:      -8.0      0.000      0.000
REMARK  Name = 
REMARK  9 active torsions:
REMARK  status: ('A' for Active; 'I' for Inactive)
REMARK    1  A    between atoms: C_1  and  C_2
REMARK    2  A    between atoms: C_2  and  C_3
REMARK    3  A    between atoms: C_2  and  N_18
REMARK    4  A    between atoms: C_3  and  N_4
REMARK    5  A    between atoms: C_7  and  C_8
REMARK    6  A    between atoms: C_11  and  C_12
REMARK    7  A    between atoms: N_18  and  S_19
REMARK    8  A    between atoms: S_19  and  C_22
REMARK    9  A    between atoms: N_24  and  C_25
REMARK                            x       y       z     vdW  Elec       q    Type
REMARK                         _______ _______ _______ _____ _____    ______ ____
ROOT
ATOM      1  C   UNL     1       3.904   3.930  19.387  0.00  0.00    +0.000 C 
ENDROOT
BRANCH   1   2
ATOM      2  N   UNL     1       2.956   4.907  19.881  0.00  0.00    +0.000 N 
ATOM      3  C   UNL     1       2.084   4.779  20.919  0.00  0.00    +0.000 A 
ATOM      4  C   UNL     1       1.426   5.979  21.017  0.00  0.00    +0.000 A 
ATOM      5  C   UNL     1       1.990   6.797  20.007  0.00  0.00    +0.000 A 
ATOM      6  N   UNL     1       2.938   6.133  19.329  0.00  0.00    +0.000 NA
BRANCH   5   7
ATOM      7  C   UNL     1       1.663   8.178  19.681  0.00  0.00    +0.000 A 
ATOM      8  C   UNL     1       1.968   8.713  18.425  0.00  0.00    +0.000 A 
ATOM      9  C   UNL     1       1.663  10.043  18.134  0.00  0.00    +0.000 A 
ATOM     10  C   UNL     1       1.045  10.855  19.098  0.00  0.00    +0.000 A 
ATOM     11  C   UNL     1       0.737  10.321  20.352  0.00  0.00    +0.000 A 
ATOM     12 CL   UNL     1      -0.028  11.257  21.587  0.00  0.00    +0.000 Cl
ATOM     13  C   UNL     1       1.045   8.992  20.641  0.00  0.00    +0.000 A 
BRANCH  10  14
ATOM     14  C   UNL     1       0.757  12.215  18.764  0.00  0.00    +0.000 C 
ATOM     15  N   UNL     1       0.491  13.309  18.476  0.00  0.00    +0.000 NA
ENDBRANCH  10  14
ENDBRANCH   5   7
ENDBRANCH   1   2
BRANCH   1  17
ATOM     16  C   UNL     1       3.449   3.480  16.937  0.00  0.00    +0.000 C 
ATOM     17  C   UNL     1       4.385   4.166  17.946  0.00  0.00    +0.000 C 
BRANCH  17  18
ATOM     18  N   UNL     1       5.770   3.694  17.664  0.00  0.00    +0.000 NA
ATOM     19  H   UNL     1       5.782   2.846  17.092  0.00  0.00    +0.000 HD
BRANCH  18  20
ATOM     20  S   UNL     1       6.912   4.756  17.003  0.00  0.00    +0.000 S 
ATOM     21  O   UNL     1       6.514   6.128  17.218  0.00  0.00    +0.000 OA
ATOM     22  O   UNL     1       8.217   4.266  17.392  0.00  0.00    +0.000 OA
BRANCH  20  23
ATOM     23  C   UNL     1       6.908   4.599  15.277  0.00  0.00    +0.000 A 
ATOM     24  C   UNL     1       6.120   3.723  14.560  0.00  0.00    +0.000 A 
ATOM     25  N   UNL     1       6.438   3.960  13.257  0.00  0.00    +0.000 N 
ATOM     26  C   UNL     1       5.849   3.318  12.111  0.00  0.00    +0.000 C 
ATOM     27  C   UNL     1       7.401   4.930  13.225  0.00  0.00    +0.000 A 
ATOM     28  N   UNL     1       7.716   5.343  14.433  0.00  0.00    +0.000 NA
ENDBRANCH  20  23
ENDBRANCH  18  20
ENDBRANCH  17  18
ENDBRANCH   1  17
TORSDOF 7
ENDMDL
MODEL 2
REMARK VINA RESULT:      -7.9      1.599      2.011
REMARK  Name = 
REMARK  9 active torsions:
REMARK  status: ('A' for Active; 'I' for Inactive)
REMARK    1  A    between atoms: C_1  and  C_2
REMARK    2  A    between atoms: C_2  and  C_3
REMARK    3  A    between atoms: C_2  and  N_18
REMARK    4  A    between atoms: C_3  and  N_4
REMARK    5  A    between atoms: C_7  and  C_8
REMARK    6  A    between atoms: C_11  and  C_12
REMARK    7  A    between atoms: N_18  and  S_19
REMARK    8  A    between atoms: S_19  and  C_22
REMARK    9  A    between atoms: N_24  and  C_25
REMARK                            x       y       z     vdW  Elec       q    Type
REMARK                         _______ _______ _______ _____ _____    ______ ____
ROOT
ATOM      1  C   UNL     1       3.532   4.319  19.402  0.00  0.00    +0.000 C 
ENDROOT
BRANCH   1   2
ATOM      2  N   UNL     1       3.043   5.644  19.079  0.00  0.00    +0.000 N 
ATOM      3  C   UNL     1       3.088   6.286  17.879  0.00  0.00    +0.000 A 
ATOM      4  C   UNL     1       2.472   7.497  18.069  0.00  0.00    +0.000 A 
ATOM      5  C   UNL     1       2.052   7.494  19.422  0.00  0.00    +0.000 A 
ATOM      6  N   UNL     1       2.392   6.345  20.025  0.00  0.00    +0.000 NA
BRANCH   5   7
ATOM      7  C   UNL     1       1.334   8.535  20.143  0.00  0.00    +0.000 A 
ATOM      8  C   UNL     1       0.763   9.617  19.464  0.00  0.00    +0.000 A 
ATOM      9  C   UNL     1       0.093  10.616  20.172  0.00  0.00    +0.000 A 
ATOM     10  C   UNL     1      -0.019  10.542  21.569  0.00  0.00    +0.000 A 
ATOM     11  C   UNL     1       0.548   9.460  22.248  0.00  0.00    +0.000 A 
ATOM     12 CL   UNL     1       0.449   9.297  23.966  0.00  0.00    +0.000 Cl
ATOM     13  C   UNL     1       1.221   8.465  21.539  0.00  0.00    +0.000 A 
BRANCH  10  14
ATOM     14  C   UNL     1      -0.706  11.589  22.257  0.00  0.00    +0.000 C 
ATOM     15  N   UNL     1      -1.289  12.442  22.789  0.00  0.00    +0.000 NA
ENDBRANCH  10  14
ENDBRANCH   5   7
ENDBRANCH   1   2
BRANCH   1  17
ATOM     16  C   UNL     1       3.795   2.200  18.043  0.00  0.00    +0.000 C 
ATOM     17  C   UNL     1       4.316   3.627  18.276  0.00  0.00    +0.000 C 
BRANCH  17  18
ATOM     18  N   UNL     1       5.786   3.535  18.503  0.00  0.00    +0.000 NA
ATOM     19  H   UNL     1       6.165   2.626  18.228  0.00  0.00    +0.000 HD
BRANCH  18  20
ATOM     20  S   UNL     1       6.820   4.718  17.869  0.00  0.00    +0.000 S 
ATOM     21  O   UNL     1       6.299   6.041  18.132  0.00  0.00    +0.000 OA
ATOM     22  O   UNL     1       8.168   4.338  18.233  0.00  0.00    +0.000 OA
BRANCH  20  23
ATOM     23  C   UNL     1       6.813   4.617  16.140  0.00  0.00    +0.000 A 
ATOM     24  C   UNL     1       6.060   3.731  15.398  0.00  0.00    +0.000 A 
ATOM     25  N   UNL     1       6.360   4.023  14.102  0.00  0.00    +0.000 N 
ATOM     26  C   UNL     1       5.793   3.394  12.938  0.00  0.00    +0.000 C 
ATOM     27  C   UNL     1       7.280   5.035  14.097  0.00  0.00    +0.000 A 
ATOM     28  N   UNL     1       7.584   5.422  15.317  0.00  0.00    +0.000 NA
ENDBRANCH  20  23
ENDBRANCH  18  20
ENDBRANCH  17  18
ENDBRANCH   1  17
TORSDOF 7
ENDMDL
MODEL 3
REMARK VINA RESULT:      -7.4      1.368      1.923
REMARK  Name = 
REMARK  9 active torsions:
REMARK  status: ('A' for Active; 'I' for Inactive)
REMARK    1  A    between atoms: C_1  and  C_2
REMARK    2  A    between atoms: C_2  and  C_3
REMARK    3  A    between atoms: C_2  and  N_18
REMARK    4  A    between atoms: C_3  and  N_4
REMARK    5  A    between atoms: C_7  and  C_8
REMARK    6  A    between atoms: C_11  and  C_12
REMARK    7  A    between atoms: N_18  and  S_19
REMARK    8  A    between atoms: S_19  and  C_22
REMARK    9  A    between atoms: N_24  and  C_25
REMARK                            x       y       z     vdW  Elec       q    Type
REMARK                         _______ _______ _______ _____ _____    ______ ____
ROOT
ATOM      1  C   UNL     1       3.602   5.193  18.073  0.00  0.00    +0.000 C 
ENDROOT
BRANCH   1   2
ATOM      2  N   UNL     1       2.754   5.674  19.143  0.00  0.00    +0.000 N 
ATOM      3  C   UNL     1       2.223   4.964  20.177  0.00  0.00    +0.000 A 
ATOM      4  C   UNL     1       1.522   5.863  20.940  0.00  0.00    +0.000 A 
ATOM      5  C   UNL     1       1.709   7.116  20.305  0.00  0.00    +0.000 A 
ATOM      6  N   UNL     1       2.480   6.989  19.215  0.00  0.00    +0.000 NA
BRANCH   5   7
ATOM      7  C   UNL     1       1.190   8.416  20.709  0.00  0.00    +0.000 A 
ATOM      8  C   UNL     1       0.793   8.652  22.030  0.00  0.00    +0.000 A 
ATOM      9  C   UNL     1       0.283   9.898  22.397  0.00  0.00    +0.000 A 
ATOM     10  C   UNL     1       0.166  10.924  21.448  0.00  0.00    +0.000 A 
ATOM     11  C   UNL     1       0.564  10.689  20.129  0.00  0.00    +0.000 A 
ATOM     12 CL   UNL     1       0.454  11.905  18.904  0.00  0.00    +0.000 Cl
ATOM     13  C   UNL     1       1.071   9.443  19.763  0.00  0.00    +0.000 A 
BRANCH  10  14
ATOM     14  C   UNL     1      -0.370  12.183  21.862  0.00  0.00    +0.000 C 
ATOM     15  N   UNL     1      -0.841  13.193  22.193  0.00  0.00    +0.000 NA
ENDBRANCH  10  14
ENDBRANCH   5   7
ENDBRANCH   1   2
BRANCH   1  17
ATOM     16  C   UNL     1       5.730   5.226  19.444  0.00  0.00    +0.000 C 
ATOM     17  C   UNL     1       4.826   4.383  18.532  0.00  0.00    +0.000 C 
BRANCH  17  18
ATOM     18  N   UNL     1       5.674   3.853  17.427  0.00  0.00    +0.000 NA
ATOM     19  H   UNL     1       5.117   3.488  16.651  0.00  0.00    +0.000 HD
BRANCH  18  20
ATOM     20  S   UNL     1       6.893   4.817  16.754  0.00  0.00    +0.000 S 
ATOM     21  O   UNL     1       6.583   6.218  16.921  0.00  0.00    +0.000 OA
ATOM     22  O   UNL     1       8.157   4.255  17.179  0.00  0.00    +0.000 OA
BRANCH  20  23
ATOM     23  C   UNL     1       6.904   4.607  15.034  0.00  0.00    +0.000 A 
ATOM     24  C   UNL     1       6.154   3.680  14.340  0.00  0.00    +0.000 A 
ATOM     25  N   UNL     1       6.470   3.889  13.033  0.00  0.00    +0.000 N 
ATOM     26  C   UNL     1       5.912   3.190  11.904  0.00  0.00    +0.000 C 
ATOM     27  C   UNL     1       7.395   4.894  12.974  0.00  0.00    +0.000 A 
ATOM     28  N   UNL     1       7.687   5.355  14.170  0.00  0.00    +0.000 NA
ENDBRANCH  20  23
ENDBRANCH  18  20
ENDBRANCH  17  18
ENDBRANCH   1  17
TORSDOF 7
ENDMDL
MODEL 4
REMARK VINA RESULT:      -7.3      2.679      3.664
REMARK  Name = 
REMARK  9 active torsions:
REMARK  status: ('A' for Active; 'I' for Inactive)
REMARK    1  A    between atoms: C_1  and  C_2
REMARK    2  A    between atoms: C_2  and  C_3
REMARK    3  A    between atoms: C_2  and  N_18
REMARK    4  A    between atoms: C_3  and  N_4
REMARK    5  A    between atoms: C_7  and  C_8
REMARK    6  A    between atoms: C_11  and  C_12
REMARK    7  A    between atoms: N_18  and  S_19
REMARK    8  A    between atoms: S_19  and  C_22
REMARK    9  A    between atoms: N_24  and  C_25
REMARK                            x       y       z     vdW  Elec       q    Type
REMARK                         _______ _______ _______ _____ _____    ______ ____
ROOT
ATOM      1  C   UNL     1       3.599   5.539  18.692  0.00  0.00    +0.000 C 
ENDROOT
BRANCH   1   2
ATOM      2  N   UNL     1       2.992   6.847  18.559  0.00  0.00    +0.000 N 
ATOM      3  C   UNL     1       3.017   7.678  17.480  0.00  0.00    +0.000 A 
ATOM      4  C   UNL     1       2.275   8.779  17.827  0.00  0.00    +0.000 A 
ATOM      5  C   UNL     1       1.807   8.514  19.138  0.00  0.00    +0.000 A 
ATOM      6  N   UNL     1       2.239   7.319  19.568  0.00  0.00    +0.000 NA
BRANCH   5   7
ATOM      7  C   UNL     1       0.961   9.352  19.976  0.00  0.00    +0.000 A 
ATOM      8  C   UNL     1       0.273  10.446  19.438  0.00  0.00    +0.000 A 
ATOM      9  C   UNL     1      -0.521  11.248  20.259  0.00  0.00    +0.000 A 
ATOM     10  C   UNL     1      -0.639  10.965  21.628  0.00  0.00    +0.000 A 
ATOM     11  C   UNL     1       0.045   9.871  22.165  0.00  0.00    +0.000 A 
ATOM     12 CL   UNL     1      -0.054   9.456  23.840  0.00  0.00    +0.000 Cl
ATOM     13  C   UNL     1       0.841   9.072  21.344  0.00  0.00    +0.000 A 
BRANCH  10  14
ATOM     14  C   UNL     1      -1.455  11.816  22.436  0.00  0.00    +0.000 C 
ATOM     15  N   UNL     1      -2.101  12.495  23.123  0.00  0.00    +0.000 NA
ENDBRANCH  10  14
ENDBRANCH   5   7
ENDBRANCH   1   2
BRANCH   1  17
ATOM     16  C   UNL     1       2.567   3.526  17.555  0.00  0.00    +0.000 C 
ATOM     17  C   UNL     1       3.573   4.680  17.417  0.00  0.00    +0.000 C 
BRANCH  17  18
ATOM     18  N   UNL     1       4.886   4.086  17.037  0.00  0.00    +0.000 NA
ATOM     19  H   UNL     1       4.783   3.171  16.592  0.00  0.00    +0.000 HD
BRANCH  18  20
ATOM     20  S   UNL     1       5.982   4.975  16.099  0.00  0.00    +0.000 S 
ATOM     21  O   UNL     1       6.973   4.103  15.513  0.00  0.00    +0.000 OA
ATOM     22  O   UNL     1       5.201   5.896  15.301  0.00  0.00    +0.000 OA
BRANCH  20  23
ATOM     23  C   UNL     1       6.912   6.008  17.134  0.00  0.00    +0.000 A 
ATOM     24  C   UNL     1       7.139   7.352  16.921  0.00  0.00    +0.000 A 
ATOM     25  N   UNL     1       7.894   7.747  17.982  0.00  0.00    +0.000 N 
ATOM     26  C   UNL     1       8.360   9.085  18.240  0.00  0.00    +0.000 C 
ATOM     27  C   UNL     1       8.118   6.655  18.774  0.00  0.00    +0.000 A 
ATOM     28  N   UNL     1       7.539   5.578  18.291  0.00  0.00    +0.000 NA
ENDBRANCH  20  23
ENDBRANCH  18  20
ENDBRANCH  17  18
ENDBRANCH   1  17
TORSDOF 7
ENDMDL
MODEL 5
REMARK VINA RESULT:      -7.3      2.746      3.902
REMARK  Name = 
REMARK  9 active torsions:
REMARK  status: ('A' for Active; 'I' for Inactive)
REMARK    1  A    between atoms: C_1  and  C_2
REMARK    2  A    between atoms: C_2  and  C_3
REMARK    3  A    between atoms: C_2  and  N_18
REMARK    4  A    between atoms: C_3  and  N_4
REMARK    5  A    between atoms: C_7  and  C_8
REMARK    6  A    between atoms: C_11  and  C_12
REMARK    7  A    between atoms: N_18  and  S_19
REMARK    8  A    between atoms: S_19  and  C_22
REMARK    9  A    between atoms: N_24  and  C_25
REMARK                            x       y       z     vdW  Elec       q    Type
REMARK                         _______ _______ _______ _____ _____    ______ ____
ROOT
ATOM      1  C   UNL     1       3.057   6.257  19.414  0.00  0.00    +0.000 C 
ENDROOT
BRANCH   1   2
ATOM      2  N   UNL     1       2.337   7.504  19.261  0.00  0.00    +0.000 N 
ATOM      3  C   UNL     1       2.223   8.277  18.145  0.00  0.00    +0.000 A 
ATOM      4  C   UNL     1       1.419   9.333  18.491  0.00  0.00    +0.000 A 
ATOM      5  C   UNL     1       1.061   9.103  19.842  0.00  0.00    +0.000 A 
ATOM      6  N   UNL     1       1.616   7.970  20.297  0.00  0.00    +0.000 NA
BRANCH   5   7
ATOM      7  C   UNL     1       0.207   9.916  20.697  0.00  0.00    +0.000 A 
ATOM      8  C   UNL     1       0.127   9.673  22.073  0.00  0.00    +0.000 A 
ATOM      9  C   UNL     1      -0.708  10.451  22.876  0.00  0.00    +0.000 A 
ATOM     10  C   UNL     1      -1.473  11.483  22.312  0.00  0.00    +0.000 A 
ATOM     11  C   UNL     1      -1.392  11.728  20.938  0.00  0.00    +0.000 A 
ATOM     12 CL   UNL     1      -2.299  12.984  20.173  0.00  0.00    +0.000 Cl
ATOM     13  C   UNL     1      -0.558  10.948  20.137  0.00  0.00    +0.000 A 
BRANCH  10  14
ATOM     14  C   UNL     1      -2.323  12.251  23.167  0.00  0.00    +0.000 C 
ATOM     15  N   UNL     1      -3.038  12.845  23.864  0.00  0.00    +0.000 NA
ENDBRANCH  10  14
ENDBRANCH   5   7
ENDBRANCH   1   2
BRANCH   1  17
ATOM     16  C   UNL     1       1.275   4.938  20.636  0.00  0.00    +0.000 C 
ATOM     17  C   UNL     1       2.178   4.996  19.393  0.00  0.00    +0.000 C 
BRANCH  17  18
ATOM     18  N   UNL     1       2.930   3.711  19.327  0.00  0.00    +0.000 NA
ATOM     19  H   UNL     1       2.503   2.982  19.902  0.00  0.00    +0.000 HD
BRANCH  18  20
ATOM     20  S   UNL     1       3.290   3.014  17.825  0.00  0.00    +0.000 S 
ATOM     21  O   UNL     1       3.634   1.619  17.983  0.00  0.00    +0.000 OA
ATOM     22  O   UNL     1       2.266   3.452  16.901  0.00  0.00    +0.000 OA
BRANCH  20  23
ATOM     23  C   UNL     1       4.743   3.721  17.200  0.00  0.00    +0.000 A 
ATOM     24  C   UNL     1       5.067   3.825  15.864  0.00  0.00    +0.000 A 
ATOM     25  N   UNL     1       6.274   4.454  15.848  0.00  0.00    +0.000 N 
ATOM     26  C   UNL     1       7.018   4.831  14.674  0.00  0.00    +0.000 C 
ATOM     27  C   UNL     1       6.648   4.687  17.142  0.00  0.00    +0.000 A 
ATOM     28  N   UNL     1       5.745   4.253  17.995  0.00  0.00    +0.000 NA
ENDBRANCH  20  23
ENDBRANCH  18  20
ENDBRANCH  17  18
ENDBRANCH   1  17
TORSDOF 7
ENDMDL
MODEL 6
REMARK VINA RESULT:      -7.3      1.844      2.444
REMARK  Name = 
REMARK  9 active torsions:
REMARK  status: ('A' for Active; 'I' for Inactive)
REMARK    1  A    between atoms: C_1  and  C_2
REMARK    2  A    between atoms: C_2  and  C_3
REMARK    3  A    between atoms: C_2  and  N_18
REMARK    4  A    between atoms: C_3  and  N_4
REMARK    5  A    between atoms: C_7  and  C_8
REMARK    6  A    between atoms: C_11  and  C_12
REMARK    7  A    between atoms: N_18  and  S_19
REMARK    8  A    between atoms: S_19  and  C_22
REMARK    9  A    between atoms: N_24  and  C_25
REMARK                            x       y       z     vdW  Elec       q    Type
REMARK                         _______ _______ _______ _____ _____    ______ ____
ROOT
ATOM      1  C   UNL     1       3.112   4.519  19.326  0.00  0.00    +0.000 C 
ENDROOT
BRANCH   1   2
ATOM      2  N   UNL     1       2.753   5.911  19.148  0.00  0.00    +0.000 N 
ATOM      3  C   UNL     1       3.002   6.711  18.074  0.00  0.00    +0.000 A 
ATOM      4  C   UNL     1       2.440   7.928  18.365  0.00  0.00    +0.000 A 
ATOM      5  C   UNL     1       1.839   7.767  19.638  0.00  0.00    +0.000 A 
ATOM      6  N   UNL     1       2.023   6.521  20.098  0.00  0.00    +0.000 NA
BRANCH   5   7
ATOM      7  C   UNL     1       1.093   8.750  20.411  0.00  0.00    +0.000 A 
ATOM      8  C   UNL     1       1.108   8.725  21.810  0.00  0.00    +0.000 A 
ATOM      9  C   UNL     1       0.375   9.665  22.536  0.00  0.00    +0.000 A 
ATOM     10  C   UNL     1      -0.380  10.643  21.871  0.00  0.00    +0.000 A 
ATOM     11  C   UNL     1      -0.393  10.670  20.474  0.00  0.00    +0.000 A 
ATOM     12 CL   UNL     1      -1.294  11.847  19.584  0.00  0.00    +0.000 Cl
ATOM     13  C   UNL     1       0.338   9.729  19.750  0.00  0.00    +0.000 A 
BRANCH  10  14
ATOM     14  C   UNL     1      -1.124  11.582  22.652  0.00  0.00    +0.000 C 
ATOM     15  N   UNL     1      -1.760  12.334  23.268  0.00  0.00    +0.000 NA
ENDBRANCH  10  14
ENDBRANCH   5   7
ENDBRANCH   1   2
BRANCH   1  17
ATOM     16  C   UNL     1       4.306   2.532  18.307  0.00  0.00    +0.000 C 
ATOM     17  C   UNL     1       4.331   4.055  18.512  0.00  0.00    +0.000 C 
BRANCH  17  18
ATOM     18  N   UNL     1       5.651   4.405  19.111  0.00  0.00    +0.000 NA
ATOM     19  H   UNL     1       6.100   3.600  19.554  0.00  0.00    +0.000 HD
BRANCH  18  20
ATOM     20  S   UNL     1       6.830   5.181  18.174  0.00  0.00    +0.000 S 
ATOM     21  O   UNL     1       6.870   6.593  18.477  0.00  0.00    +0.000 OA
ATOM     22  O   UNL     1       8.015   4.352  18.219  0.00  0.00    +0.000 OA
BRANCH  20  23
ATOM     23  C   UNL     1       6.356   5.137  16.508  0.00  0.00    +0.000 A 
ATOM     24  C   UNL     1       6.464   4.041  15.678  0.00  0.00    +0.000 A 
ATOM     25  N   UNL     1       5.962   4.460  14.484  0.00  0.00    +0.000 N 
ATOM     26  C   UNL     1       5.820   3.659  13.296  0.00  0.00    +0.000 C 
ATOM     27  C   UNL     1       5.597   5.772  14.614  0.00  0.00    +0.000 A 
ATOM     28  N   UNL     1       5.823   6.221  15.829  0.00  0.00    +0.000 NA
ENDBRANCH  20  23
ENDBRANCH  18  20
ENDBRANCH  17  18
ENDBRANCH   1  17
TORSDOF 7
ENDMDL
MODEL 7
REMARK VINA RESULT:      -7.2      1.315      1.413
REMARK  Name = 
REMARK  9 active torsions:
REMARK  status: ('A' for Active; 'I' for Inactive)
REMARK    1  A    between atoms: C_1  and  C_2
REMARK    2  A    between atoms: C_2  and  C_3
REMARK    3  A    between atoms: C_2  and  N_18
REMARK    4  A    between atoms: C_3  and  N_4
REMARK    5  A    between atoms: C_7  and  C_8
REMARK    6  A    between atoms: C_11  and  C_12
REMARK    7  A    between atoms: N_18  and  S_19
REMARK    8  A    between atoms: S_19  and  C_22
REMARK    9  A    between atoms: N_24  and  C_25
REMARK                            x       y       z     vdW  Elec       q    Type
REMARK                         _______ _______ _______ _____ _____    ______ ____
ROOT
ATOM      1  C   UNL     1       4.623   4.352  19.135  0.00  0.00    +0.000 C 
ENDROOT
BRANCH   1   2
ATOM      2  N   UNL     1       3.421   4.900  19.729  0.00  0.00    +0.000 N 
ATOM      3  C   UNL     1       2.484   4.254  20.476  0.00  0.00    +0.000 A 
ATOM      4  C   UNL     1       1.559   5.201  20.834  0.00  0.00    +0.000 A 
ATOM      5  C   UNL     1       2.034   6.415  20.280  0.00  0.00    +0.000 A 
ATOM      6  N   UNL     1       3.186   6.220  19.620  0.00  0.00    +0.000 NA
BRANCH   5   7
ATOM      7  C   UNL     1       1.437   7.741  20.371  0.00  0.00    +0.000 A 
ATOM      8  C   UNL     1       1.486   8.627  19.289  0.00  0.00    +0.000 A 
ATOM      9  C   UNL     1       0.923   9.899  19.398  0.00  0.00    +0.000 A 
ATOM     10  C   UNL     1       0.301  10.299  20.591  0.00  0.00    +0.000 A 
ATOM     11  C   UNL     1       0.250   9.414  21.671  0.00  0.00    +0.000 A 
ATOM     12 CL   UNL     1      -0.502   9.833  23.170  0.00  0.00    +0.000 Cl
ATOM     13  C   UNL     1       0.816   8.144  21.561  0.00  0.00    +0.000 A 
BRANCH  10  14
ATOM     14  C   UNL     1      -0.256  11.614  20.665  0.00  0.00    +0.000 C 
ATOM     15  N   UNL     1      -0.736  12.672  20.701  0.00  0.00    +0.000 NA
ENDBRANCH  10  14
ENDBRANCH   5   7
ENDBRANCH   1   2
BRANCH   1  17
ATOM     16  C   UNL     1       3.888   2.924  17.178  0.00  0.00    +0.000 C 
ATOM     17  C   UNL     1       4.588   4.225  17.604  0.00  0.00    +0.000 C 
BRANCH  17  18
ATOM     18  N   UNL     1       5.925   4.249  16.944  0.00  0.00    +0.000 NA
ATOM     19  H   UNL     1       6.188   3.336  16.567  0.00  0.00    +0.000 HD
BRANCH  18  20
ATOM     20  S   UNL     1       6.260   5.399  15.746  0.00  0.00    +0.000 S 
ATOM     21  O   UNL     1       5.178   6.351  15.638  0.00  0.00    +0.000 OA
ATOM     22  O   UNL     1       7.633   5.816  15.934  0.00  0.00    +0.000 OA
BRANCH  20  23
ATOM     23  C   UNL     1       6.271   4.622  14.196  0.00  0.00    +0.000 A 
ATOM     24  C   UNL     1       5.234   3.882  13.669  0.00  0.00    +0.000 A 
ATOM     25  N   UNL     1       5.678   3.488  12.445  0.00  0.00    +0.000 N 
ATOM     26  C   UNL     1       4.935   2.718  11.480  0.00  0.00    +0.000 C 
ATOM     27  C   UNL     1       6.948   3.967  12.279  0.00  0.00    +0.000 A 
ATOM     28  N   UNL     1       7.346   4.660  13.323  0.00  0.00    +0.000 NA
ENDBRANCH  20  23
ENDBRANCH  18  20
ENDBRANCH  17  18
ENDBRANCH   1  17
TORSDOF 7
ENDMDL
MODEL 8
REMARK VINA RESULT:      -7.2      1.508      2.054
REMARK  Name = 
REMARK  9 active torsions:
REMARK  status: ('A' for Active; 'I' for Inactive)
REMARK    1  A    between atoms: C_1  and  C_2
REMARK    2  A    between atoms: C_2  and  C_3
REMARK    3  A    between atoms: C_2  and  N_18
REMARK    4  A    between atoms: C_3  and  N_4
REMARK    5  A    between atoms: C_7  and  C_8
REMARK    6  A    between atoms: C_11  and  C_12
REMARK    7  A    between atoms: N_18  and  S_19
REMARK    8  A    between atoms: S_19  and  C_22
REMARK    9  A    between atoms: N_24  and  C_25
REMARK                            x       y       z     vdW  Elec       q    Type
REMARK                         _______ _______ _______ _____ _____    ______ ____
ROOT
ATOM      1  C   UNL     1       4.544   3.762  19.054  0.00  0.00    +0.000 C 
ENDROOT
BRANCH   1   2
ATOM      2  N   UNL     1       3.426   4.655  18.835  0.00  0.00    +0.000 N 
ATOM      3  C   UNL     1       2.383   4.499  17.974  0.00  0.00    +0.000 A 
ATOM      4  C   UNL     1       1.569   5.589  18.155  0.00  0.00    +0.000 A 
ATOM      5  C   UNL     1       2.186   6.349  19.179  0.00  0.00    +0.000 A 
ATOM      6  N   UNL     1       3.314   5.757  19.600  0.00  0.00    +0.000 NA
BRANCH   5   7
ATOM      7  C   UNL     1       1.731   7.600  19.768  0.00  0.00    +0.000 A 
ATOM      8  C   UNL     1       1.318   7.658  21.104  0.00  0.00    +0.000 A 
ATOM      9  C   UNL     1       0.869   8.861  21.649  0.00  0.00    +0.000 A 
ATOM     10  C   UNL     1       0.832  10.024  20.865  0.00  0.00    +0.000 A 
ATOM     11  C   UNL     1       1.247   9.969  19.531  0.00  0.00    +0.000 A 
ATOM     12 CL   UNL     1       1.234  11.359  18.504  0.00  0.00    +0.000 Cl
ATOM     13  C   UNL     1       1.693   8.764  18.988  0.00  0.00    +0.000 A 
BRANCH  10  14
ATOM     14  C   UNL     1       0.357  11.235  21.458  0.00  0.00    +0.000 C 
ATOM     15  N   UNL     1      -0.054  12.222  21.912  0.00  0.00    +0.000 NA
ENDBRANCH  10  14
ENDBRANCH   5   7
ENDBRANCH   1   2
BRANCH   1  17
ATOM     16  C   UNL     1       6.495   5.299  19.546  0.00  0.00    +0.000 C 
ATOM     17  C   UNL     1       5.899   4.287  18.554  0.00  0.00    +0.000 C 
BRANCH  17  18
ATOM     18  N   UNL     1       5.860   4.943  17.216  0.00  0.00    +0.000 NA
ATOM     19  H   UNL     1       5.352   5.830  17.233  0.00  0.00    +0.000 HD
BRANCH  18  20
ATOM     20  S   UNL     1       7.295   5.209  16.357  0.00  0.00    +0.000 S 
ATOM     21  O   UNL     1       7.594   6.621  16.292  0.00  0.00    +0.000 OA
ATOM     22  O   UNL     1       8.259   4.242  16.837  0.00  0.00    +0.000 OA
BRANCH  20  23
ATOM     23  C   UNL     1       7.058   4.769  14.697  0.00  0.00    +0.000 A 
ATOM     24  C   UNL     1       6.181   3.805  14.247  0.00  0.00    +0.000 A 
ATOM     25  N   UNL     1       6.320   3.816  12.893  0.00  0.00    +0.000 N 
ATOM     26  C   UNL     1       5.582   3.008  11.958  0.00  0.00    +0.000 C 
ATOM     27  C   UNL     1       7.272   4.744  12.571  0.00  0.00    +0.000 A 
ATOM     28  N   UNL     1       7.747   5.344  13.642  0.00  0.00    +0.000 NA
ENDBRANCH  20  23
ENDBRANCH  18  20
ENDBRANCH  17  18
ENDBRANCH   1  17
TORSDOF 7
ENDMDL
MODEL 9
REMARK VINA RESULT:      -7.2      2.726      3.966
REMARK  Name = 
REMARK  9 active torsions:
REMARK  status: ('A' for Active; 'I' for Inactive)
REMARK    1  A    between atoms: C_1  and  C_2
REMARK    2  A    between atoms: C_2  and  C_3
REMARK    3  A    between atoms: C_2  and  N_18
REMARK    4  A    between atoms: C_3  and  N_4
REMARK    5  A    between atoms: C_7  and  C_8
REMARK    6  A    between atoms: C_11  and  C_12
REMARK    7  A    between atoms: N_18  and  S_19
REMARK    8  A    between atoms: S_19  and  C_22
REMARK    9  A    between atoms: N_24  and  C_25
REMARK                            x       y       z     vdW  Elec       q    Type
REMARK                         _______ _______ _______ _____ _____    ______ ____
ROOT
ATOM      1  C   UNL     1       2.472   5.245  20.609  0.00  0.00    +0.000 C 
ENDROOT
BRANCH   1   2
ATOM      2  N   UNL     1       2.100   6.604  20.274  0.00  0.00    +0.000 N 
ATOM      3  C   UNL     1       2.344   7.281  19.118  0.00  0.00    +0.000 A 
ATOM      4  C   UNL     1       1.769   8.517  19.269  0.00  0.00    +0.000 A 
ATOM      5  C   UNL     1       1.164   8.493  20.550  0.00  0.00    +0.000 A 
ATOM      6  N   UNL     1       1.359   7.309  21.148  0.00  0.00    +0.000 NA
BRANCH   5   7
ATOM      7  C   UNL     1       0.405   9.549  21.205  0.00  0.00    +0.000 A 
ATOM      8  C   UNL     1      -0.075   9.386  22.510  0.00  0.00    +0.000 A 
ATOM      9  C   UNL     1      -0.814  10.401  23.118  0.00  0.00    +0.000 A 
ATOM     10  C   UNL     1      -1.081  11.594  22.429  0.00  0.00    +0.000 A 
ATOM     11  C   UNL     1      -0.601  11.759  21.127  0.00  0.00    +0.000 A 
ATOM     12 CL   UNL     1      -0.885  13.201  20.217  0.00  0.00    +0.000 Cl
ATOM     13  C   UNL     1       0.136  10.742  20.520  0.00  0.00    +0.000 A 
BRANCH  10  14
ATOM     14  C   UNL     1      -1.850  12.606  23.084  0.00  0.00    +0.000 C 
ATOM     15  N   UNL     1      -2.450  13.454  23.605  0.00  0.00    +0.000 NA
ENDBRANCH  10  14
ENDBRANCH   5   7
ENDBRANCH   1   2
BRANCH   1  17
ATOM     16  C   UNL     1       0.628   3.565  20.180  0.00  0.00    +0.000 C 
ATOM     17  C   UNL     1       1.936   4.172  19.648  0.00  0.00    +0.000 C 
BRANCH  17  18
ATOM     18  N   UNL     1       2.875   3.046  19.381  0.00  0.00    +0.000 NA
ATOM     19  H   UNL     1       2.544   2.162  19.774  0.00  0.00    +0.000 HD
BRANCH  18  20
ATOM     20  S   UNL     1       3.391   2.726  17.799  0.00  0.00    +0.000 S 
ATOM     21  O   UNL     1       3.867   1.367  17.686  0.00  0.00    +0.000 OA
ATOM     22  O   UNL     1       2.381   3.262  16.911  0.00  0.00    +0.000 OA
BRANCH  20  23
ATOM     23  C   UNL     1       4.796   3.678  17.452  0.00  0.00    +0.000 A 
ATOM     24  C   UNL     1       5.433   4.512  18.347  0.00  0.00    +0.000 A 
ATOM     25  N   UNL     1       6.481   5.032  17.650  0.00  0.00    +0.000 N 
ATOM     26  C   UNL     1       7.477   5.936  18.164  0.00  0.00    +0.000 C 
ATOM     27  C   UNL     1       6.436   4.529  16.379  0.00  0.00    +0.000 A 
ATOM     28  N   UNL     1       5.424   3.704  16.218  0.00  0.00    +0.000 NA
ENDBRANCH  20  23
ENDBRANCH  18  20
ENDBRANCH  17  18
ENDBRANCH   1  17
TORSDOF 7
ENDMDL
