MODEL 1
REMARK VINA RESULT:      -7.2      0.000      0.000
REMARK  Name = 
REMARK  5 active torsions:
REMARK  status: ('A' for Active; 'I' for Inactive)
REMARK    1  A    between atoms: C_2  and  C_3
REMARK    2  A    between atoms: C_3  and  N_4
REMARK    3  A    between atoms: C_7  and  C_8
REMARK    4  A    between atoms: N_15  and  C_16
REMARK    5  A    between atoms: C_16  and  C_17
REMARK                            x       y       z     vdW  Elec       q    Type
REMARK                         _______ _______ _______ _____ _____    ______ ____
ROOT
ATOM      1  C   UNL     1       7.674   6.327  18.213  0.00  0.00    +0.000 C 
ENDROOT
BRANCH   1   2
ATOM      2  N   UNL     1       7.025   6.136  16.942  0.00  0.00    +0.000 N 
ATOM      3  N   UNL     1       6.052   6.959  16.518  0.00  0.00    +0.000 NA
ATOM      4  N   UNL     1       5.700   6.477  15.333  0.00  0.00    +0.000 NA
ATOM      5  C   UNL     1       6.477   5.362  15.106  0.00  0.00    +0.000 A 
ATOM      6  N   UNL     1       7.312   5.106  16.130  0.00  0.00    +0.000 NA
BRANCH   5   7
ATOM      7  C   UNL     1       6.417   4.579  13.879  0.00  0.00    +0.000 A 
ATOM      8  C   UNL     1       5.315   3.757  13.605  0.00  0.00    +0.000 A 
ATOM      9  C   UNL     1       5.245   3.041  12.406  0.00  0.00    +0.000 A 
ATOM     10  C   UNL     1       6.275   3.138  11.472  0.00  0.00    +0.000 A 
ATOM     11  C   UNL     1       7.381   3.941  11.737  0.00  0.00    +0.000 A 
ATOM     12  C   UNL     1       7.453   4.656  12.934  0.00  0.00    +0.000 A 
ENDBRANCH   5   7
ENDBRANCH   1   2
BRANCH   1  14
ATOM     13  O   UNL     1       7.542   5.364  20.399  0.00  0.00    +0.000 OA
ATOM     14  C   UNL     1       7.033   5.482  19.285  0.00  0.00    +0.000 C 
ATOM     15  N   UNL     1       5.908   4.784  18.903  0.00  0.00    +0.000 N 
ATOM     16  H   UNL     1       5.476   4.967  18.004  0.00  0.00    +0.000 HD
BRANCH  15  17
ATOM     17  C   UNL     1       5.187   3.924  19.816  0.00  0.00    +0.000 C 
BRANCH  17  18
ATOM     18  C   UNL     1       4.000   3.360  19.102  0.00  0.00    +0.000 A 
ATOM     19  C   UNL     1       3.734   3.373  17.746  0.00  0.00    +0.000 A 
ATOM     20  C   UNL     1       2.485   2.763  17.432  0.00  0.00    +0.000 A 
ATOM     21  C   UNL     1       1.843   2.296  18.558  0.00  0.00    +0.000 A 
ATOM     22  S   UNL     1       2.745   2.591  19.980  0.00  0.00    +0.000 S 
ENDBRANCH  17  18
ENDBRANCH  15  17
ENDBRANCH   1  14
TORSDOF 5
ENDMDL
MODEL 2
REMARK VINA RESULT:      -7.1      0.571      1.197
REMARK  Name = 
REMARK  5 active torsions:
REMARK  status: ('A' for Active; 'I' for Inactive)
REMARK    1  A    between atoms: C_2  and  C_3
REMARK    2  A    between atoms: C_3  and  N_4
REMARK    3  A    between atoms: C_7  and  C_8
REMARK    4  A    between atoms: N_15  and  C_16
REMARK    5  A    between atoms: C_16  and  C_17
REMARK                            x       y       z     vdW  Elec       q    Type
REMARK                         _______ _______ _______ _____ _____    ______ ____
ROOT
ATOM      1  C   UNL     1       7.568   6.332  18.278  0.00  0.00    +0.000 C 
ENDROOT
BRANCH   1   2
ATOM      2  N   UNL     1       6.949   6.171  16.988  0.00  0.00    +0.000 N 
ATOM      3  N   UNL     1       5.967   6.988  16.573  0.00  0.00    +0.000 NA
ATOM      4  N   UNL     1       5.649   6.540  15.365  0.00  0.00    +0.000 NA
ATOM      5  C   UNL     1       6.456   5.450  15.116  0.00  0.00    +0.000 A 
ATOM      6  N   UNL     1       7.276   5.177  16.148  0.00  0.00    +0.000 NA
BRANCH   5   7
ATOM      7  C   UNL     1       6.437   4.710  13.861  0.00  0.00    +0.000 A 
ATOM      8  C   UNL     1       7.474   4.853  12.929  0.00  0.00    +0.000 A 
ATOM      9  C   UNL     1       7.472   4.108  11.745  0.00  0.00    +0.000 A 
ATOM     10  C   UNL     1       6.432   3.217  11.482  0.00  0.00    +0.000 A 
ATOM     11  C   UNL     1       5.390   3.075  12.394  0.00  0.00    +0.000 A 
ATOM     12  C   UNL     1       5.391   3.819  13.576  0.00  0.00    +0.000 A 
ENDBRANCH   5   7
ENDBRANCH   1   2
BRANCH   1  14
ATOM     13  O   UNL     1       7.427   5.275  20.420  0.00  0.00    +0.000 OA
ATOM     14  C   UNL     1       6.931   5.430  19.305  0.00  0.00    +0.000 C 
ATOM     15  N   UNL     1       5.825   4.727  18.879  0.00  0.00    +0.000 N 
ATOM     16  H   UNL     1       5.401   4.939  17.982  0.00  0.00    +0.000 HD
BRANCH  15  17
ATOM     17  C   UNL     1       5.110   3.815  19.745  0.00  0.00    +0.000 C 
BRANCH  17  18
ATOM     18  C   UNL     1       3.681   3.764  19.307  0.00  0.00    +0.000 A 
ATOM     19  C   UNL     1       3.145   4.155  18.094  0.00  0.00    +0.000 A 
ATOM     20  C   UNL     1       1.731   3.985  18.047  0.00  0.00    +0.000 A 
ATOM     21  C   UNL     1       1.235   3.462  19.220  0.00  0.00    +0.000 A 
ATOM     22  S   UNL     1       2.469   3.176  20.367  0.00  0.00    +0.000 S 
ENDBRANCH  17  18
ENDBRANCH  15  17
ENDBRANCH   1  14
TORSDOF 5
ENDMDL
MODEL 3
REMARK VINA RESULT:      -7.1      1.578      1.903
REMARK  Name = 
REMARK  5 active torsions:
REMARK  status: ('A' for Active; 'I' for Inactive)
REMARK    1  A    between atoms: C_2  and  C_3
REMARK    2  A    between atoms: C_3  and  N_4
REMARK    3  A    between atoms: C_7  and  C_8
REMARK    4  A    between atoms: N_15  and  C_16
REMARK    5  A    between atoms: C_16  and  C_17
REMARK                            x       y       z     vdW  Elec       q    Type
REMARK                         _______ _______ _______ _____ _____    ______ ____
ROOT
ATOM      1  C   UNL     1       7.443   4.528  17.622  0.00  0.00    +0.000 C 
ENDROOT
BRANCH   1   2
ATOM      2  N   UNL     1       7.151   4.640  16.217  0.00  0.00    +0.000 N 
ATOM      3  N   UNL     1       7.514   5.722  15.508  0.00  0.00    +0.000 NA
ATOM      4  N   UNL     1       7.081   5.474  14.279  0.00  0.00    +0.000 NA
ATOM      5  C   UNL     1       6.457   4.246  14.312  0.00  0.00    +0.000 A 
ATOM      6  N   UNL     1       6.463   3.705  15.544  0.00  0.00    +0.000 NA
BRANCH   5   7
ATOM      7  C   UNL     1       5.890   3.603  13.134  0.00  0.00    +0.000 A 
ATOM      8  C   UNL     1       4.606   3.938  12.680  0.00  0.00    +0.000 A 
ATOM      9  C   UNL     1       4.085   3.348  11.525  0.00  0.00    +0.000 A 
ATOM     10  C   UNL     1       4.841   2.416  10.814  0.00  0.00    +0.000 A 
ATOM     11  C   UNL     1       6.112   2.065  11.261  0.00  0.00    +0.000 A 
ATOM     12  C   UNL     1       6.633   2.654  12.415  0.00  0.00    +0.000 A 
ENDBRANCH   5   7
ENDBRANCH   1   2
BRANCH   1  14
ATOM     13  O   UNL     1       6.464   5.289  19.669  0.00  0.00    +0.000 OA
ATOM     14  C   UNL     1       6.332   5.112  18.458  0.00  0.00    +0.000 C 
ATOM     15  N   UNL     1       5.144   5.340  17.799  0.00  0.00    +0.000 N 
ATOM     16  H   UNL     1       5.097   5.256  16.789  0.00  0.00    +0.000 HD
BRANCH  15  17
ATOM     17  C   UNL     1       3.983   5.888  18.467  0.00  0.00    +0.000 C 
BRANCH  17  18
ATOM     18  C   UNL     1       2.969   4.802  18.628  0.00  0.00    +0.000 A 
ATOM     19  C   UNL     1       2.029   4.652  19.631  0.00  0.00    +0.000 A 
ATOM     20  C   UNL     1       1.248   3.472  19.470  0.00  0.00    +0.000 A 
ATOM     21  C   UNL     1       1.608   2.765  18.345  0.00  0.00    +0.000 A 
ATOM     22  S   UNL     1       2.880   3.523  17.490  0.00  0.00    +0.000 S 
ENDBRANCH  17  18
ENDBRANCH  15  17
ENDBRANCH   1  14
TORSDOF 5
ENDMDL
MODEL 4
REMARK VINA RESULT:      -7.1      4.739      7.780
REMARK  Name = 
REMARK  5 active torsions:
REMARK  status: ('A' for Active; 'I' for Inactive)
REMARK    1  A    between atoms: C_2  and  C_3
REMARK    2  A    between atoms: C_3  and  N_4
REMARK    3  A    between atoms: C_7  and  C_8
REMARK    4  A    between atoms: N_15  and  C_16
REMARK    5  A    between atoms: C_16  and  C_17
REMARK                            x       y       z     vdW  Elec       q    Type
REMARK                         _______ _______ _______ _____ _____    ______ ____
ROOT
ATOM      1  C   UNL     1       7.952   6.095  18.881  0.00  0.00    +0.000 C 
ENDROOT
BRANCH   1   2
ATOM      2  N   UNL     1       6.738   5.340  18.714  0.00  0.00    +0.000 N 
ATOM      3  N   UNL     1       6.545   4.545  17.648  0.00  0.00    +0.000 NA
ATOM      4  N   UNL     1       5.337   4.029  17.832  0.00  0.00    +0.000 NA
ATOM      5  C   UNL     1       4.848   4.558  19.007  0.00  0.00    +0.000 A 
ATOM      6  N   UNL     1       5.711   5.419  19.576  0.00  0.00    +0.000 NA
BRANCH   5   7
ATOM      7  C   UNL     1       3.558   4.191  19.575  0.00  0.00    +0.000 A 
ATOM      8  C   UNL     1       2.684   5.172  20.065  0.00  0.00    +0.000 A 
ATOM      9  C   UNL     1       1.429   4.816  20.571  0.00  0.00    +0.000 A 
ATOM     10  C   UNL     1       1.039   3.478  20.595  0.00  0.00    +0.000 A 
ATOM     11  C   UNL     1       1.903   2.492  20.124  0.00  0.00    +0.000 A 
ATOM     12  C   UNL     1       3.156   2.847  19.619  0.00  0.00    +0.000 A 
ENDBRANCH   5   7
ENDBRANCH   1   2
BRANCH   1  14
ATOM     13  O   UNL     1       7.391   7.462  17.000  0.00  0.00    +0.000 OA
ATOM     14  C   UNL     1       7.896   7.394  18.120  0.00  0.00    +0.000 C 
ATOM     15  N   UNL     1       8.529   8.464  18.715  0.00  0.00    +0.000 N 
ATOM     16  H   UNL     1       8.865   8.390  19.669  0.00  0.00    +0.000 HD
BRANCH  15  17
ATOM     17  C   UNL     1       8.570   9.775  18.103  0.00  0.00    +0.000 C 
BRANCH  17  18
ATOM     18  C   UNL     1       9.449  10.658  18.929  0.00  0.00    +0.000 A 
ATOM     19  C   UNL     1       9.443  10.828  20.301  0.00  0.00    +0.000 A 
ATOM     20  C   UNL     1      10.411  11.780  20.734  0.00  0.00    +0.000 A 
ATOM     21  C   UNL     1      11.131  12.298  19.681  0.00  0.00    +0.000 A 
ATOM     22  S   UNL     1      10.642  11.637  18.182  0.00  0.00    +0.000 S 
ENDBRANCH  17  18
ENDBRANCH  15  17
ENDBRANCH   1  14
TORSDOF 5
ENDMDL
MODEL 5
REMARK VINA RESULT:      -7.1      4.707      7.741
REMARK  Name = 
REMARK  5 active torsions:
REMARK  status: ('A' for Active; 'I' for Inactive)
REMARK    1  A    between atoms: C_2  and  C_3
REMARK    2  A    between atoms: C_3  and  N_4
REMARK    3  A    between atoms: C_7  and  C_8
REMARK    4  A    between atoms: N_15  and  C_16
REMARK    5  A    between atoms: C_16  and  C_17
REMARK                            x       y       z     vdW  Elec       q    Type
REMARK                         _______ _______ _______ _____ _____    ______ ____
ROOT
ATOM      1  C   UNL     1       7.948   6.099  18.857  0.00  0.00    +0.000 C 
ENDROOT
BRANCH   1   2
ATOM      2  N   UNL     1       6.746   5.330  18.666  0.00  0.00    +0.000 N 
ATOM      3  N   UNL     1       6.610   4.483  17.632  0.00  0.00    +0.000 NA
ATOM      4  N   UNL     1       5.396   3.969  17.781  0.00  0.00    +0.000 NA
ATOM      5  C   UNL     1       4.847   4.551  18.903  0.00  0.00    +0.000 A 
ATOM      6  N   UNL     1       5.678   5.444  19.471  0.00  0.00    +0.000 NA
BRANCH   5   7
ATOM      7  C   UNL     1       3.532   4.203  19.424  0.00  0.00    +0.000 A 
ATOM      8  C   UNL     1       3.027   2.902  19.289  0.00  0.00    +0.000 A 
ATOM      9  C   UNL     1       1.781   2.565  19.828  0.00  0.00    +0.000 A 
ATOM     10  C   UNL     1       1.029   3.525  20.504  0.00  0.00    +0.000 A 
ATOM     11  C   UNL     1       1.513   4.824  20.635  0.00  0.00    +0.000 A 
ATOM     12  C   UNL     1       2.757   5.161  20.096  0.00  0.00    +0.000 A 
ENDBRANCH   5   7
ENDBRANCH   1   2
BRANCH   1  14
ATOM     13  O   UNL     1       7.295   7.526  17.050  0.00  0.00    +0.000 OA
ATOM     14  C   UNL     1       7.871   7.419  18.132  0.00  0.00    +0.000 C 
ATOM     15  N   UNL     1       8.563   8.460  18.711  0.00  0.00    +0.000 N 
ATOM     16  H   UNL     1       8.959   8.355  19.640  0.00  0.00    +0.000 HD
BRANCH  15  17
ATOM     17  C   UNL     1       8.593   9.786  18.131  0.00  0.00    +0.000 C 
BRANCH  17  18
ATOM     18  C   UNL     1       9.481  10.651  18.966  0.00  0.00    +0.000 A 
ATOM     19  C   UNL     1       9.435  10.857  20.333  0.00  0.00    +0.000 A 
ATOM     20  C   UNL     1      10.428  11.777  20.777  0.00  0.00    +0.000 A 
ATOM     21  C   UNL     1      11.206  12.236  19.738  0.00  0.00    +0.000 A 
ATOM     22  S   UNL     1      10.740  11.559  18.239  0.00  0.00    +0.000 S 
ENDBRANCH  17  18
ENDBRANCH  15  17
ENDBRANCH   1  14
TORSDOF 5
ENDMDL
MODEL 6
REMARK VINA RESULT:      -7.1      1.746      2.244
REMARK  Name = 
REMARK  5 active torsions:
REMARK  status: ('A' for Active; 'I' for Inactive)
REMARK    1  A    between atoms: C_2  and  C_3
REMARK    2  A    between atoms: C_3  and  N_4
REMARK    3  A    between atoms: C_7  and  C_8
REMARK    4  A    between atoms: N_15  and  C_16
REMARK    5  A    between atoms: C_16  and  C_17
REMARK                            x       y       z     vdW  Elec       q    Type
REMARK                         _______ _______ _______ _____ _____    ______ ____
ROOT
ATOM      1  C   UNL     1       7.147   4.531  17.655  0.00  0.00    +0.000 C 
ENDROOT
BRANCH   1   2
ATOM      2  N   UNL     1       6.984   4.626  16.227  0.00  0.00    +0.000 N 
ATOM      3  N   UNL     1       7.472   5.666  15.531  0.00  0.00    +0.000 NA
ATOM      4  N   UNL     1       7.131   5.414  14.274  0.00  0.00    +0.000 NA
ATOM      5  C   UNL     1       6.432   4.226  14.277  0.00  0.00    +0.000 A 
ATOM      6  N   UNL     1       6.299   3.717  15.515  0.00  0.00    +0.000 NA
BRANCH   5   7
ATOM      7  C   UNL     1       5.929   3.589  13.067  0.00  0.00    +0.000 A 
ATOM      8  C   UNL     1       6.703   2.643  12.380  0.00  0.00    +0.000 A 
ATOM      9  C   UNL     1       6.198   2.004  11.243  0.00  0.00    +0.000 A 
ATOM     10  C   UNL     1       4.918   2.308  10.781  0.00  0.00    +0.000 A 
ATOM     11  C   UNL     1       4.144   3.255  11.447  0.00  0.00    +0.000 A 
ATOM     12  C   UNL     1       4.648   3.893  12.582  0.00  0.00    +0.000 A 
ENDBRANCH   5   7
ENDBRANCH   1   2
BRANCH   1  14
ATOM     13  O   UNL     1       6.173   5.590  19.567  0.00  0.00    +0.000 OA
ATOM     14  C   UNL     1       6.063   5.289  18.379  0.00  0.00    +0.000 C 
ATOM     15  N   UNL     1       4.917   5.532  17.654  0.00  0.00    +0.000 N 
ATOM     16  H   UNL     1       4.893   5.339  16.658  0.00  0.00    +0.000 HD
BRANCH  15  17
ATOM     17  C   UNL     1       3.785   6.239  18.213  0.00  0.00    +0.000 C 
BRANCH  17  18
ATOM     18  C   UNL     1       2.831   5.238  18.781  0.00  0.00    +0.000 A 
ATOM     19  C   UNL     1       2.472   5.054  20.103  0.00  0.00    +0.000 A 
ATOM     20  C   UNL     1       1.553   3.978  20.271  0.00  0.00    +0.000 A 
ATOM     21  C   UNL     1       1.233   3.382  19.072  0.00  0.00    +0.000 A 
ATOM     22  S   UNL     1       2.036   4.119  17.754  0.00  0.00    +0.000 S 
ENDBRANCH  17  18
ENDBRANCH  15  17
ENDBRANCH   1  14
TORSDOF 5
ENDMDL
MODEL 7
REMARK VINA RESULT:      -7.0      3.520      6.188
REMARK  Name = 
REMARK  5 active torsions:
REMARK  status: ('A' for Active; 'I' for Inactive)
REMARK    1  A    between atoms: C_2  and  C_3
REMARK    2  A    between atoms: C_3  and  N_4
REMARK    3  A    between atoms: C_7  and  C_8
REMARK    4  A    between atoms: N_15  and  C_16
REMARK    5  A    between atoms: C_16  and  C_17
REMARK                            x       y       z     vdW  Elec       q    Type
REMARK                         _______ _______ _______ _____ _____    ______ ____
ROOT
ATOM      1  C   UNL     1       7.741   5.633  18.590  0.00  0.00    +0.000 C 
ENDROOT
BRANCH   1   2
ATOM      2  N   UNL     1       7.864   7.035  18.284  0.00  0.00    +0.000 N 
ATOM      3  N   UNL     1       7.203   7.591  17.255  0.00  0.00    +0.000 NA
ATOM      4  N   UNL     1       7.561   8.868  17.282  0.00  0.00    +0.000 NA
ATOM      5  C   UNL     1       8.444   9.017  18.329  0.00  0.00    +0.000 A 
ATOM      6  N   UNL     1       8.677   7.856  18.968  0.00  0.00    +0.000 NA
BRANCH   5   7
ATOM      7  C   UNL     1       9.025  10.297  18.711  0.00  0.00    +0.000 A 
ATOM      8  C   UNL     1       8.997  11.390  17.832  0.00  0.00    +0.000 A 
ATOM      9  C   UNL     1       9.519  12.627  18.222  0.00  0.00    +0.000 A 
ATOM     10  C   UNL     1      10.076  12.783  19.490  0.00  0.00    +0.000 A 
ATOM     11  C   UNL     1      10.121  11.703  20.368  0.00  0.00    +0.000 A 
ATOM     12  C   UNL     1       9.601  10.467  19.980  0.00  0.00    +0.000 A 
ENDBRANCH   5   7
ENDBRANCH   1   2
BRANCH   1  14
ATOM     13  O   UNL     1       7.467   4.418  16.547  0.00  0.00    +0.000 OA
ATOM     14  C   UNL     1       6.934   4.914  17.539  0.00  0.00    +0.000 C 
ATOM     15  N   UNL     1       5.567   4.937  17.715  0.00  0.00    +0.000 N 
ATOM     16  H   UNL     1       5.171   5.287  18.581  0.00  0.00    +0.000 HD
BRANCH  15  17
ATOM     17  C   UNL     1       4.658   4.300  16.788  0.00  0.00    +0.000 C 
BRANCH  17  18
ATOM     18  C   UNL     1       3.531   3.697  17.563  0.00  0.00    +0.000 A 
ATOM     19  C   UNL     1       2.178   3.952  17.442  0.00  0.00    +0.000 A 
ATOM     20  C   UNL     1       1.400   3.207  18.375  0.00  0.00    +0.000 A 
ATOM     21  C   UNL     1       2.183   2.401  19.171  0.00  0.00    +0.000 A 
ATOM     22  S   UNL     1       3.844   2.542  18.791  0.00  0.00    +0.000 S 
ENDBRANCH  17  18
ENDBRANCH  15  17
ENDBRANCH   1  14
TORSDOF 5
ENDMDL
MODEL 8
REMARK VINA RESULT:      -7.0      3.589      6.248
REMARK  Name = 
REMARK  5 active torsions:
REMARK  status: ('A' for Active; 'I' for Inactive)
REMARK    1  A    between atoms: C_2  and  C_3
REMARK    2  A    between atoms: C_3  and  N_4
REMARK    3  A    between atoms: C_7  and  C_8
REMARK    4  A    between atoms: N_15  and  C_16
REMARK    5  A    between atoms: C_16  and  C_17
REMARK                            x       y       z     vdW  Elec       q    Type
REMARK                         _______ _______ _______ _____ _____    ______ ____
ROOT
ATOM      1  C   UNL     1       7.860   5.728  18.652  0.00  0.00    +0.000 C 
ENDROOT
BRANCH   1   2
ATOM      2  N   UNL     1       7.981   7.128  18.338  0.00  0.00    +0.000 N 
ATOM      3  N   UNL     1       7.379   7.662  17.262  0.00  0.00    +0.000 NA
ATOM      4  N   UNL     1       7.714   8.945  17.296  0.00  0.00    +0.000 NA
ATOM      5  C   UNL     1       8.527   9.120  18.395  0.00  0.00    +0.000 A 
ATOM      6  N   UNL     1       8.736   7.970  19.062  0.00  0.00    +0.000 NA
BRANCH   5   7
ATOM      7  C   UNL     1       9.063  10.413  18.798  0.00  0.00    +0.000 A 
ATOM      8  C   UNL     1       9.613  10.596  20.074  0.00  0.00    +0.000 A 
ATOM      9  C   UNL     1      10.163  11.829  20.440  0.00  0.00    +0.000 A 
ATOM     10  C   UNL     1      10.165  12.889  19.535  0.00  0.00    +0.000 A 
ATOM     11  C   UNL     1       9.611  12.725  18.268  0.00  0.00    +0.000 A 
ATOM     12  C   UNL     1       9.061  11.494  17.903  0.00  0.00    +0.000 A 
ENDBRANCH   5   7
ENDBRANCH   1   2
BRANCH   1  14
ATOM     13  O   UNL     1       7.578   4.451  16.649  0.00  0.00    +0.000 OA
ATOM     14  C   UNL     1       7.046   5.003  17.611  0.00  0.00    +0.000 C 
ATOM     15  N   UNL     1       5.678   5.085  17.758  0.00  0.00    +0.000 N 
ATOM     16  H   UNL     1       5.280   5.480  18.603  0.00  0.00    +0.000 HD
BRANCH  15  17
ATOM     17  C   UNL     1       4.763   4.450  16.834  0.00  0.00    +0.000 C 
BRANCH  17  18
ATOM     18  C   UNL     1       3.780   3.640  17.618  0.00  0.00    +0.000 A 
ATOM     19  C   UNL     1       2.510   3.243  17.245  0.00  0.00    +0.000 A 
ATOM     20  C   UNL     1       1.851   2.503  18.269  0.00  0.00    +0.000 A 
ATOM     21  C   UNL     1       2.642   2.352  19.386  0.00  0.00    +0.000 A 
ATOM     22  S   UNL     1       4.169   3.096  19.197  0.00  0.00    +0.000 S 
ENDBRANCH  17  18
ENDBRANCH  15  17
ENDBRANCH   1  14
TORSDOF 5
ENDMDL
MODEL 9
REMARK VINA RESULT:      -7.0      1.510      2.098
REMARK  Name = 
REMARK  5 active torsions:
REMARK  status: ('A' for Active; 'I' for Inactive)
REMARK    1  A    between atoms: C_2  and  C_3
REMARK    2  A    between atoms: C_3  and  N_4
REMARK    3  A    between atoms: C_7  and  C_8
REMARK    4  A    between atoms: N_15  and  C_16
REMARK    5  A    between atoms: C_16  and  C_17
REMARK                            x       y       z     vdW  Elec       q    Type
REMARK                         _______ _______ _______ _____ _____    ______ ____
ROOT
ATOM      1  C   UNL     1       5.647   5.955  17.444  0.00  0.00    +0.000 C 
ENDROOT
BRANCH   1   2
ATOM      2  N   UNL     1       6.176   5.522  16.177  0.00  0.00    +0.000 N 
ATOM      3  N   UNL     1       7.390   5.908  15.752  0.00  0.00    +0.000 NA
ATOM      4  N   UNL     1       7.529   5.327  14.568  0.00  0.00    +0.000 NA
ATOM      5  C   UNL     1       6.369   4.623  14.327  0.00  0.00    +0.000 A 
ATOM      6  N   UNL     1       5.477   4.753  15.326  0.00  0.00    +0.000 NA
BRANCH   5   7
ATOM      7  C   UNL     1       6.160   3.806  13.139  0.00  0.00    +0.000 A 
ATOM      8  C   UNL     1       7.241   3.195  12.488  0.00  0.00    +0.000 A 
ATOM      9  C   UNL     1       7.028   2.378  11.373  0.00  0.00    +0.000 A 
ATOM     10  C   UNL     1       5.734   2.168  10.896  0.00  0.00    +0.000 A 
ATOM     11  C   UNL     1       4.653   2.780  11.526  0.00  0.00    +0.000 A 
ATOM     12  C   UNL     1       4.865   3.596  12.639  0.00  0.00    +0.000 A 
ENDBRANCH   5   7
ENDBRANCH   1   2
BRANCH   1  14
ATOM     13  O   UNL     1       6.051   4.654  19.411  0.00  0.00    +0.000 OA
ATOM     14  C   UNL     1       5.414   4.786  18.367  0.00  0.00    +0.000 C 
ATOM     15  N   UNL     1       4.519   3.839  17.918  0.00  0.00    +0.000 N 
ATOM     16  H   UNL     1       3.958   4.020  17.093  0.00  0.00    +0.000 HD
BRANCH  15  17
ATOM     17  C   UNL     1       4.197   2.656  18.686  0.00  0.00    +0.000 C 
BRANCH  17  18
ATOM     18  C   UNL     1       2.945   2.917  19.460  0.00  0.00    +0.000 A 
ATOM     19  C   UNL     1       1.726   3.365  18.988  0.00  0.00    +0.000 A 
ATOM     20  C   UNL     1       0.766   3.526  20.028  0.00  0.00    +0.000 A 
ATOM     21  C   UNL     1       1.281   3.187  21.260  0.00  0.00    +0.000 A 
ATOM     22  S   UNL     1       2.909   2.676  21.157  0.00  0.00    +0.000 S 
ENDBRANCH  17  18
ENDBRANCH  15  17
ENDBRANCH   1  14
TORSDOF 5
ENDMDL
