MODEL 1
REMARK VINA RESULT:      -8.9      0.000      0.000
REMARK  Name = 
REMARK  12 active torsions:
REMARK  status: ('A' for Active; 'I' for Inactive)
REMARK    1  A    between atoms: C_1  and  C_2
REMARK    2  A    between atoms: C_2  and  C_3
REMARK    3  A    between atoms: C_3  and  C_4
REMARK    4  A    between atoms: C_5  and  C_6
REMARK    5  A    between atoms: C_6  and  C_7
REMARK    6  A    between atoms: C_10  and  C_11
REMARK    7  A    between atoms: C_16  and  C_17
REMARK    8  A    between atoms: N_27  and  C_28
REMARK    9  A    between atoms: C_28  and  C_29
REMARK   10  A    between atoms: C_29  and  C_30
REMARK   11  A    between atoms: C_29  and  C_31
REMARK   12  A    between atoms: C_29  and  C_32
REMARK                            x       y       z     vdW  Elec       q    Type
REMARK                         _______ _______ _______ _____ _____    ______ ____
ROOT
ATOM      1  C   UNL     1       1.322  10.277  17.972  0.00  0.00    +0.000 C 
ENDROOT
BRANCH   1   3
ATOM      2  C   UNL     1       0.086  11.585  19.817  0.00  0.00    +0.000 A 
ATOM      3  C   UNL     1       1.141  11.415  18.978  0.00  0.00    +0.000 A 
ATOM      4  C   UNL     1       2.215  12.466  18.934  0.00  0.00    +0.000 A 
ATOM      5  O   UNL     1       3.014  12.463  17.989  0.00  0.00    +0.000 OA
ATOM      6  N   UNL     1       2.301  13.386  19.979  0.00  0.00    +0.000 N 
ATOM      7  C   UNL     1       1.246  13.464  20.862  0.00  0.00    +0.000 A 
ATOM      8  N   UNL     1       1.083  14.311  21.851  0.00  0.00    +0.000 NA
ATOM      9  C   UNL     1      -0.187  14.055  22.261  0.00  0.00    +0.000 A 
ATOM     10  N   UNL     1      -0.795  13.038  21.654  0.00  0.00    +0.000 NA
ATOM     11  N   UNL     1       0.135  12.633  20.750  0.00  0.00    +0.000 N 
BRANCH   2  12
ATOM     12  C   UNL     1      -1.189  10.771  19.758  0.00  0.00    +0.000 C 
BRANCH  12  14
ATOM     13  C   UNL     1      -2.531   9.974  17.791  0.00  0.00    +0.000 C 
ATOM     14  C   UNL     1      -2.176  11.177  18.660  0.00  0.00    +0.000 C 
ENDBRANCH  12  14
ENDBRANCH   2  12
BRANCH   6  15
ATOM     15  C   UNL     1       3.445  14.307  20.019  0.00  0.00    +0.000 C 
BRANCH  15  16
ATOM     16  C   UNL     1       3.265  15.678  19.300  0.00  0.00    +0.000 C 
ATOM     17  C   UNL     1       3.466  16.829  20.301  0.00  0.00    +0.000 C 
ATOM     18  C   UNL     1       4.277  15.772  18.132  0.00  0.00    +0.000 C 
ATOM     19  C   UNL     1       1.871  15.850  18.680  0.00  0.00    +0.000 C 
ENDBRANCH  15  16
ENDBRANCH   6  15
ENDBRANCH   1   3
BRANCH   1  20
ATOM     20  C   UNL     1       1.777   8.937  18.541  0.00  0.00    +0.000 A 
ATOM     21  C   UNL     1       2.306   7.968  17.683  0.00  0.00    +0.000 A 
ATOM     22  C   UNL     1       2.621   6.681  18.153  0.00  0.00    +0.000 A 
ATOM     23  C   UNL     1       2.344   6.281  19.471  0.00  0.00    +0.000 A 
ATOM     24  C   UNL     1       1.975   7.307  20.350  0.00  0.00    +0.000 A 
ATOM     25  C   UNL     1       1.725   8.608  19.899  0.00  0.00    +0.000 A 
BRANCH  23  26
ATOM     26  C   UNL     1       2.388   4.854  19.919  0.00  0.00    +0.000 A 
ATOM     27  C   UNL     1       1.234   4.269  20.494  0.00  0.00    +0.000 A 
ATOM     28  C   UNL     1       1.213   2.946  20.955  0.00  0.00    +0.000 A 
ATOM     29  C   UNL     1       2.349   2.155  20.855  0.00  0.00    +0.000 A 
ATOM     30  C   UNL     1       3.495   2.680  20.269  0.00  0.00    +0.000 A 
ATOM     31  C   UNL     1       3.522   4.007  19.789  0.00  0.00    +0.000 A 
BRANCH  31  32
ATOM     32  C   UNL     1       4.787   4.409  19.125  0.00  0.00    +0.000 A 
ATOM     33  N   UNL     1       5.611   5.275  19.649  0.00  0.00    +0.000 NA
ATOM     34  C   UNL     1       6.664   5.362  18.762  0.00  0.00    +0.000 A 
ATOM     35  O   UNL     1       7.641   6.089  18.861  0.00  0.00    +0.000 OA
ATOM     36  O   UNL     1       6.470   4.470  17.725  0.00  0.00    +0.000 OA
ATOM     37  N   UNL     1       5.206   3.922  17.921  0.00  0.00    +0.000 N 
ATOM     38  H   UNL     1       5.050   2.957  17.656  0.00  0.00    +0.000 HD
ENDBRANCH  31  32
ENDBRANCH  23  26
ENDBRANCH   1  20
TORSDOF 8
ENDMDL
MODEL 2
REMARK VINA RESULT:      -8.8      2.580      3.884
REMARK  Name = 
REMARK  12 active torsions:
REMARK  status: ('A' for Active; 'I' for Inactive)
REMARK    1  A    between atoms: C_1  and  C_2
REMARK    2  A    between atoms: C_2  and  C_3
REMARK    3  A    between atoms: C_3  and  C_4
REMARK    4  A    between atoms: C_5  and  C_6
REMARK    5  A    between atoms: C_6  and  C_7
REMARK    6  A    between atoms: C_10  and  C_11
REMARK    7  A    between atoms: C_16  and  C_17
REMARK    8  A    between atoms: N_27  and  C_28
REMARK    9  A    between atoms: C_28  and  C_29
REMARK   10  A    between atoms: C_29  and  C_30
REMARK   11  A    between atoms: C_29  and  C_31
REMARK   12  A    between atoms: C_29  and  C_32
REMARK                            x       y       z     vdW  Elec       q    Type
REMARK                         _______ _______ _______ _____ _____    ______ ____
ROOT
ATOM      1  C   UNL     1       0.647  11.321  18.191  0.00  0.00    +0.000 C 
ENDROOT
BRANCH   1   3
ATOM      2  C   UNL     1      -1.920  11.120  18.061  0.00  0.00    +0.000 A 
ATOM      3  C   UNL     1      -0.790  11.632  18.616  0.00  0.00    +0.000 A 
ATOM      4  C   UNL     1      -0.912  12.672  19.693  0.00  0.00    +0.000 A 
ATOM      5  O   UNL     1       0.086  13.337  19.996  0.00  0.00    +0.000 OA
ATOM      6  N   UNL     1      -2.136  12.828  20.345  0.00  0.00    +0.000 N 
ATOM      7  C   UNL     1      -3.244  12.218  19.796  0.00  0.00    +0.000 A 
ATOM      8  N   UNL     1      -4.492  12.307  20.192  0.00  0.00    +0.000 NA
ATOM      9  C   UNL     1      -5.168  11.665  19.203  0.00  0.00    +0.000 A 
ATOM     10  N   UNL     1      -4.413  11.098  18.263  0.00  0.00    +0.000 NA
ATOM     11  N   UNL     1      -3.155  11.437  18.647  0.00  0.00    +0.000 N 
BRANCH   2  12
ATOM     12  C   UNL     1      -1.948  10.297  16.790  0.00  0.00    +0.000 C 
BRANCH  12  14
ATOM     13  C   UNL     1      -2.903   9.905  14.502  0.00  0.00    +0.000 C 
ATOM     14  C   UNL     1      -2.707  10.926  15.619  0.00  0.00    +0.000 C 
ENDBRANCH  12  14
ENDBRANCH   2  12
BRANCH   6  15
ATOM     15  C   UNL     1      -2.212  13.727  21.504  0.00  0.00    +0.000 C 
BRANCH  15  16
ATOM     16  C   UNL     1      -2.010  13.077  22.907  0.00  0.00    +0.000 C 
ATOM     17  C   UNL     1      -1.260  14.047  23.834  0.00  0.00    +0.000 C 
ATOM     18  C   UNL     1      -3.394  12.703  23.494  0.00  0.00    +0.000 C 
ATOM     19  C   UNL     1      -1.198  11.775  22.853  0.00  0.00    +0.000 C 
ENDBRANCH  15  16
ENDBRANCH   6  15
ENDBRANCH   1   3
BRANCH   1  20
ATOM     20  C   UNL     1       1.227   9.998  18.683  0.00  0.00    +0.000 A 
ATOM     21  C   UNL     1       1.934   9.182  17.793  0.00  0.00    +0.000 A 
ATOM     22  C   UNL     1       2.376   7.906  18.180  0.00  0.00    +0.000 A 
ATOM     23  C   UNL     1       2.058   7.355  19.434  0.00  0.00    +0.000 A 
ATOM     24  C   UNL     1       1.501   8.243  20.361  0.00  0.00    +0.000 A 
ATOM     25  C   UNL     1       1.120   9.541  20.000  0.00  0.00    +0.000 A 
BRANCH  23  26
ATOM     26  C   UNL     1       2.252   5.909  19.763  0.00  0.00    +0.000 A 
ATOM     27  C   UNL     1       1.305   5.249  20.585  0.00  0.00    +0.000 A 
ATOM     28  C   UNL     1       1.437   3.904  20.952  0.00  0.00    +0.000 A 
ATOM     29  C   UNL     1       2.522   3.163  20.507  0.00  0.00    +0.000 A 
ATOM     30  C   UNL     1       3.460   3.762  19.673  0.00  0.00    +0.000 A 
ATOM     31  C   UNL     1       3.328   5.113  19.287  0.00  0.00    +0.000 A 
BRANCH  31  32
ATOM     32  C   UNL     1       4.362   5.599  18.339  0.00  0.00    +0.000 A 
ATOM     33  N   UNL     1       4.187   5.594  17.045  0.00  0.00    +0.000 NA
ATOM     34  C   UNL     1       5.340   6.138  16.517  0.00  0.00    +0.000 A 
ATOM     35  O   UNL     1       5.599   6.285  15.333  0.00  0.00    +0.000 OA
ATOM     36  O   UNL     1       6.181   6.526  17.544  0.00  0.00    +0.000 OA
ATOM     37  N   UNL     1       5.578   6.089  18.720  0.00  0.00    +0.000 N 
ATOM     38  H   UNL     1       5.685   6.651  19.556  0.00  0.00    +0.000 HD
ENDBRANCH  31  32
ENDBRANCH  23  26
ENDBRANCH   1  20
TORSDOF 8
ENDMDL
MODEL 3
REMARK VINA RESULT:      -8.8      0.953      1.105
REMARK  Name = 
REMARK  12 active torsions:
REMARK  status: ('A' for Active; 'I' for Inactive)
REMARK    1  A    between atoms: C_1  and  C_2
REMARK    2  A    between atoms: C_2  and  C_3
REMARK    3  A    between atoms: C_3  and  C_4
REMARK    4  A    between atoms: C_5  and  C_6
REMARK    5  A    between atoms: C_6  and  C_7
REMARK    6  A    between atoms: C_10  and  C_11
REMARK    7  A    between atoms: C_16  and  C_17
REMARK    8  A    between atoms: N_27  and  C_28
REMARK    9  A    between atoms: C_28  and  C_29
REMARK   10  A    between atoms: C_29  and  C_30
REMARK   11  A    between atoms: C_29  and  C_31
REMARK   12  A    between atoms: C_29  and  C_32
REMARK                            x       y       z     vdW  Elec       q    Type
REMARK                         _______ _______ _______ _____ _____    ______ ____
ROOT
ATOM      1  C   UNL     1       1.456  10.291  17.813  0.00  0.00    +0.000 C 
ENDROOT
BRANCH   1   3
ATOM      2  C   UNL     1      -0.582  11.184  19.113  0.00  0.00    +0.000 A 
ATOM      3  C   UNL     1       0.716  11.273  18.723  0.00  0.00    +0.000 A 
ATOM      4  C   UNL     1       1.519  12.478  19.126  0.00  0.00    +0.000 A 
ATOM      5  O   UNL     1       2.591  12.701  18.550  0.00  0.00    +0.000 OA
ATOM      6  N   UNL     1       1.050  13.284  20.165  0.00  0.00    +0.000 N 
ATOM      7  C   UNL     1      -0.248  13.101  20.591  0.00  0.00    +0.000 A 
ATOM      8  N   UNL     1      -0.910  13.801  21.481  0.00  0.00    +0.000 NA
ATOM      9  C   UNL     1      -2.172  13.307  21.374  0.00  0.00    +0.000 A 
ATOM     10  N   UNL     1      -2.320  12.277  20.543  0.00  0.00    +0.000 NA
ATOM     11  N   UNL     1      -1.069  12.122  20.037  0.00  0.00    +0.000 N 
BRANCH   2  12
ATOM     12  C   UNL     1      -1.576  10.191  18.547  0.00  0.00    +0.000 C 
BRANCH  12  14
ATOM     13  C   UNL     1      -3.361  11.286  17.163  0.00  0.00    +0.000 C 
ATOM     14  C   UNL     1      -2.061  10.487  17.126  0.00  0.00    +0.000 C 
ENDBRANCH  12  14
ENDBRANCH   2  12
BRANCH   6  15
ATOM     15  C   UNL     1       1.910  14.363  20.667  0.00  0.00    +0.000 C 
BRANCH  15  16
ATOM     16  C   UNL     1       1.763  15.753  19.978  0.00  0.00    +0.000 C 
ATOM     17  C   UNL     1       1.318  16.807  21.006  0.00  0.00    +0.000 C 
ATOM     18  C   UNL     1       3.115  16.143  19.331  0.00  0.00    +0.000 C 
ATOM     19  C   UNL     1       0.725  15.753  18.845  0.00  0.00    +0.000 C 
ENDBRANCH  15  16
ENDBRANCH   6  15
ENDBRANCH   1   3
BRANCH   1  20
ATOM     20  C   UNL     1       1.875   8.967  18.445  0.00  0.00    +0.000 A 
ATOM     21  C   UNL     1       2.503   7.996  17.658  0.00  0.00    +0.000 A 
ATOM     22  C   UNL     1       2.792   6.722  18.176  0.00  0.00    +0.000 A 
ATOM     23  C   UNL     1       2.392   6.334  19.466  0.00  0.00    +0.000 A 
ATOM     24  C   UNL     1       1.920   7.364  20.289  0.00  0.00    +0.000 A 
ATOM     25  C   UNL     1       1.694   8.655  19.795  0.00  0.00    +0.000 A 
BRANCH  23  26
ATOM     26  C   UNL     1       2.416   4.915  19.937  0.00  0.00    +0.000 A 
ATOM     27  C   UNL     1       1.255   4.357  20.526  0.00  0.00    +0.000 A 
ATOM     28  C   UNL     1       1.216   3.042  21.009  0.00  0.00    +0.000 A 
ATOM     29  C   UNL     1       2.338   2.232  20.919  0.00  0.00    +0.000 A 
ATOM     30  C   UNL     1       3.491   2.730  20.320  0.00  0.00    +0.000 A 
ATOM     31  C   UNL     1       3.536   4.048  19.818  0.00  0.00    +0.000 A 
BRANCH  31  32
ATOM     32  C   UNL     1       4.804   4.420  19.143  0.00  0.00    +0.000 A 
ATOM     33  N   UNL     1       5.650   5.272  19.655  0.00  0.00    +0.000 NA
ATOM     34  C   UNL     1       6.698   5.331  18.761  0.00  0.00    +0.000 A 
ATOM     35  O   UNL     1       7.690   6.039  18.848  0.00  0.00    +0.000 OA
ATOM     36  O   UNL     1       6.479   4.436  17.731  0.00  0.00    +0.000 OA
ATOM     37  N   UNL     1       5.205   3.916  17.939  0.00  0.00    +0.000 N 
ATOM     38  H   UNL     1       5.028   2.952  17.682  0.00  0.00    +0.000 HD
ENDBRANCH  31  32
ENDBRANCH  23  26
ENDBRANCH   1  20
TORSDOF 8
ENDMDL
MODEL 4
REMARK VINA RESULT:      -8.8      1.223      1.894
REMARK  Name = 
REMARK  12 active torsions:
REMARK  status: ('A' for Active; 'I' for Inactive)
REMARK    1  A    between atoms: C_1  and  C_2
REMARK    2  A    between atoms: C_2  and  C_3
REMARK    3  A    between atoms: C_3  and  C_4
REMARK    4  A    between atoms: C_5  and  C_6
REMARK    5  A    between atoms: C_6  and  C_7
REMARK    6  A    between atoms: C_10  and  C_11
REMARK    7  A    between atoms: C_16  and  C_17
REMARK    8  A    between atoms: N_27  and  C_28
REMARK    9  A    between atoms: C_28  and  C_29
REMARK   10  A    between atoms: C_29  and  C_30
REMARK   11  A    between atoms: C_29  and  C_31
REMARK   12  A    between atoms: C_29  and  C_32
REMARK                            x       y       z     vdW  Elec       q    Type
REMARK                         _______ _______ _______ _____ _____    ______ ____
ROOT
ATOM      1  C   UNL     1       1.417  10.214  17.817  0.00  0.00    +0.000 C 
ENDROOT
BRANCH   1   3
ATOM      2  C   UNL     1      -0.912  10.980  18.611  0.00  0.00    +0.000 A 
ATOM      3  C   UNL     1       0.443  11.084  18.613  0.00  0.00    +0.000 A 
ATOM      4  C   UNL     1       1.089  12.199  19.386  0.00  0.00    +0.000 A 
ATOM      5  O   UNL     1       2.277  12.468  19.166  0.00  0.00    +0.000 OA
ATOM      6  N   UNL     1       0.341  12.870  20.355  0.00  0.00    +0.000 N 
ATOM      7  C   UNL     1      -1.022  12.668  20.375  0.00  0.00    +0.000 A 
ATOM      8  N   UNL     1      -1.913  13.260  21.134  0.00  0.00    +0.000 NA
ATOM      9  C   UNL     1      -3.090  12.822  20.615  0.00  0.00    +0.000 A 
ATOM     10  N   UNL     1      -2.990  11.919  19.641  0.00  0.00    +0.000 NA
ATOM     11  N   UNL     1      -1.646  11.797  19.486  0.00  0.00    +0.000 N 
BRANCH   2  12
ATOM     12  C   UNL     1      -1.698  10.103  17.661  0.00  0.00    +0.000 C 
BRANCH  12  14
ATOM     13  C   UNL     1      -2.981   9.817  15.522  0.00  0.00    +0.000 C 
ATOM     14  C   UNL     1      -2.271  10.815  16.433  0.00  0.00    +0.000 C 
ENDBRANCH  12  14
ENDBRANCH   2  12
BRANCH   6  15
ATOM     15  C   UNL     1       1.016  13.846  21.220  0.00  0.00    +0.000 C 
BRANCH  15  16
ATOM     16  C   UNL     1       1.030  15.325  20.729  0.00  0.00    +0.000 C 
ATOM     17  C   UNL     1       0.384  15.424  19.337  0.00  0.00    +0.000 C 
ATOM     18  C   UNL     1       0.278  16.206  21.757  0.00  0.00    +0.000 C 
ATOM     19  C   UNL     1       2.448  15.906  20.617  0.00  0.00    +0.000 C 
ENDBRANCH  15  16
ENDBRANCH   6  15
ENDBRANCH   1   3
BRANCH   1  20
ATOM     20  C   UNL     1       1.850   8.907  18.474  0.00  0.00    +0.000 A 
ATOM     21  C   UNL     1       2.543   7.953  17.722  0.00  0.00    +0.000 A 
ATOM     22  C   UNL     1       2.850   6.692  18.260  0.00  0.00    +0.000 A 
ATOM     23  C   UNL     1       2.407   6.298  19.535  0.00  0.00    +0.000 A 
ATOM     24  C   UNL     1       1.867   7.317  20.329  0.00  0.00    +0.000 A 
ATOM     25  C   UNL     1       1.621   8.597  19.818  0.00  0.00    +0.000 A 
BRANCH  23  26
ATOM     26  C   UNL     1       2.456   4.883  20.016  0.00  0.00    +0.000 A 
ATOM     27  C   UNL     1       1.319   4.322  20.647  0.00  0.00    +0.000 A 
ATOM     28  C   UNL     1       1.304   3.011  21.141  0.00  0.00    +0.000 A 
ATOM     29  C   UNL     1       2.428   2.208  21.020  0.00  0.00    +0.000 A 
ATOM     30  C   UNL     1       3.557   2.708  20.380  0.00  0.00    +0.000 A 
ATOM     31  C   UNL     1       3.577   4.022  19.866  0.00  0.00    +0.000 A 
BRANCH  31  32
ATOM     32  C   UNL     1       4.820   4.397  19.147  0.00  0.00    +0.000 A 
ATOM     33  N   UNL     1       5.742   5.151  19.682  0.00  0.00    +0.000 NA
ATOM     34  C   UNL     1       6.735   5.247  18.730  0.00  0.00    +0.000 A 
ATOM     35  O   UNL     1       7.768   5.893  18.818  0.00  0.00    +0.000 OA
ATOM     36  O   UNL     1       6.403   4.472  17.635  0.00  0.00    +0.000 OA
ATOM     37  N   UNL     1       5.117   3.997  17.876  0.00  0.00    +0.000 N 
ATOM     38  H   UNL     1       4.871   3.074  17.539  0.00  0.00    +0.000 HD
ENDBRANCH  31  32
ENDBRANCH  23  26
ENDBRANCH   1  20
TORSDOF 8
ENDMDL
MODEL 5
REMARK VINA RESULT:      -8.6      0.423      1.073
REMARK  Name = 
REMARK  12 active torsions:
REMARK  status: ('A' for Active; 'I' for Inactive)
REMARK    1  A    between atoms: C_1  and  C_2
REMARK    2  A    between atoms: C_2  and  C_3
REMARK    3  A    between atoms: C_3  and  C_4
REMARK    4  A    between atoms: C_5  and  C_6
REMARK    5  A    between atoms: C_6  and  C_7
REMARK    6  A    between atoms: C_10  and  C_11
REMARK    7  A    between atoms: C_16  and  C_17
REMARK    8  A    between atoms: N_27  and  C_28
REMARK    9  A    between atoms: C_28  and  C_29
REMARK   10  A    between atoms: C_29  and  C_30
REMARK   11  A    between atoms: C_29  and  C_31
REMARK   12  A    between atoms: C_29  and  C_32
REMARK                            x       y       z     vdW  Elec       q    Type
REMARK                         _______ _______ _______ _____ _____    ______ ____
ROOT
ATOM      1  C   UNL     1       1.386  10.314  17.997  0.00  0.00    +0.000 C 
ENDROOT
BRANCH   1   3
ATOM      2  C   UNL     1       0.102  11.552  19.857  0.00  0.00    +0.000 A 
ATOM      3  C   UNL     1       1.168  11.427  19.023  0.00  0.00    +0.000 A 
ATOM      4  C   UNL     1       2.213  12.506  19.008  0.00  0.00    +0.000 A 
ATOM      5  O   UNL     1       3.020  12.542  18.071  0.00  0.00    +0.000 OA
ATOM      6  N   UNL     1       2.268  13.408  20.072  0.00  0.00    +0.000 N 
ATOM      7  C   UNL     1       1.204  13.441  20.947  0.00  0.00    +0.000 A 
ATOM      8  N   UNL     1       1.011  14.264  21.951  0.00  0.00    +0.000 NA
ATOM      9  C   UNL     1      -0.255  13.967  22.346  0.00  0.00    +0.000 A 
ATOM     10  N   UNL     1      -0.831  12.946  21.714  0.00  0.00    +0.000 NA
ATOM     11  N   UNL     1       0.116  12.583  20.810  0.00  0.00    +0.000 N 
BRANCH   2  12
ATOM     12  C   UNL     1      -1.151  10.707  19.772  0.00  0.00    +0.000 C 
BRANCH  12  14
ATOM     13  C   UNL     1      -2.224  10.051  17.599  0.00  0.00    +0.000 C 
ATOM     14  C   UNL     1      -2.147  11.119  18.686  0.00  0.00    +0.000 C 
ENDBRANCH  12  14
ENDBRANCH   2  12
BRANCH   6  15
ATOM     15  C   UNL     1       3.386  14.357  20.139  0.00  0.00    +0.000 C 
BRANCH  15  16
ATOM     16  C   UNL     1       3.203  15.709  19.385  0.00  0.00    +0.000 C 
ATOM     17  C   UNL     1       1.798  15.779  18.762  0.00  0.00    +0.000 C 
ATOM     18  C   UNL     1       3.431  16.876  20.377  0.00  0.00    +0.000 C 
ATOM     19  C   UNL     1       4.217  15.903  18.248  0.00  0.00    +0.000 C 
ENDBRANCH  15  16
ENDBRANCH   6  15
ENDBRANCH   1   3
BRANCH   1  20
ATOM     20  C   UNL     1       1.824   8.960  18.550  0.00  0.00    +0.000 A 
ATOM     21  C   UNL     1       2.364   8.004  17.684  0.00  0.00    +0.000 A 
ATOM     22  C   UNL     1       2.664   6.708  18.136  0.00  0.00    +0.000 A 
ATOM     23  C   UNL     1       2.359   6.284  19.442  0.00  0.00    +0.000 A 
ATOM     24  C   UNL     1       1.979   7.296  20.332  0.00  0.00    +0.000 A 
ATOM     25  C   UNL     1       1.744   8.607  19.901  0.00  0.00    +0.000 A 
BRANCH  23  26
ATOM     26  C   UNL     1       2.388   4.850  19.863  0.00  0.00    +0.000 A 
ATOM     27  C   UNL     1       1.245   4.281  20.476  0.00  0.00    +0.000 A 
ATOM     28  C   UNL     1       1.211   2.951  20.915  0.00  0.00    +0.000 A 
ATOM     29  C   UNL     1       2.322   2.136  20.755  0.00  0.00    +0.000 A 
ATOM     30  C   UNL     1       3.456   2.645  20.131  0.00  0.00    +0.000 A 
ATOM     31  C   UNL     1       3.494   3.979  19.672  0.00  0.00    +0.000 A 
BRANCH  31  32
ATOM     32  C   UNL     1       4.740   4.363  18.963  0.00  0.00    +0.000 A 
ATOM     33  N   UNL     1       4.951   4.075  17.707  0.00  0.00    +0.000 NA
ATOM     34  C   UNL     1       6.186   4.614  17.409  0.00  0.00    +0.000 A 
ATOM     35  O   UNL     1       6.774   4.541  16.342  0.00  0.00    +0.000 OA
ATOM     36  O   UNL     1       6.673   5.290  18.512  0.00  0.00    +0.000 OA
ATOM     37  N   UNL     1       5.771   5.044  19.543  0.00  0.00    +0.000 N 
ATOM     38  H   UNL     1       5.607   5.773  20.227  0.00  0.00    +0.000 HD
ENDBRANCH  31  32
ENDBRANCH  23  26
ENDBRANCH   1  20
TORSDOF 8
ENDMDL
MODEL 6
REMARK VINA RESULT:      -8.6      1.192      1.660
REMARK  Name = 
REMARK  12 active torsions:
REMARK  status: ('A' for Active; 'I' for Inactive)
REMARK    1  A    between atoms: C_1  and  C_2
REMARK    2  A    between atoms: C_2  and  C_3
REMARK    3  A    between atoms: C_3  and  C_4
REMARK    4  A    between atoms: C_5  and  C_6
REMARK    5  A    between atoms: C_6  and  C_7
REMARK    6  A    between atoms: C_10  and  C_11
REMARK    7  A    between atoms: C_16  and  C_17
REMARK    8  A    between atoms: N_27  and  C_28
REMARK    9  A    between atoms: C_28  and  C_29
REMARK   10  A    between atoms: C_29  and  C_30
REMARK   11  A    between atoms: C_29  and  C_31
REMARK   12  A    between atoms: C_29  and  C_32
REMARK                            x       y       z     vdW  Elec       q    Type
REMARK                         _______ _______ _______ _____ _____    ______ ____
ROOT
ATOM      1  C   UNL     1       1.290  10.311  17.826  0.00  0.00    +0.000 C 
ENDROOT
BRANCH   1   3
ATOM      2  C   UNL     1      -0.849  11.205  18.954  0.00  0.00    +0.000 A 
ATOM      3  C   UNL     1       0.491  11.252  18.730  0.00  0.00    +0.000 A 
ATOM      4  C   UNL     1       1.293  12.369  19.336  0.00  0.00    +0.000 A 
ATOM      5  O   UNL     1       2.437  12.579  18.913  0.00  0.00    +0.000 OA
ATOM      6  N   UNL     1       0.739  13.108  20.382  0.00  0.00    +0.000 N 
ATOM      7  C   UNL     1      -0.608  12.964  20.633  0.00  0.00    +0.000 A 
ATOM      8  N   UNL     1      -1.341  13.622  21.500  0.00  0.00    +0.000 NA
ATOM      9  C   UNL     1      -2.602  13.213  21.200  0.00  0.00    +0.000 A 
ATOM     10  N   UNL     1      -2.695  12.269  20.265  0.00  0.00    +0.000 NA
ATOM     11  N   UNL     1      -1.400  12.086  19.898  0.00  0.00    +0.000 N 
BRANCH   2  12
ATOM     12  C   UNL     1      -1.811  10.324  18.186  0.00  0.00    +0.000 C 
BRANCH  12  14
ATOM     13  C   UNL     1      -2.676   9.880  15.872  0.00  0.00    +0.000 C 
ATOM     14  C   UNL     1      -2.410  10.952  16.925  0.00  0.00    +0.000 C 
ENDBRANCH  12  14
ENDBRANCH   2  12
BRANCH   6  15
ATOM     15  C   UNL     1       1.581  14.088  21.080  0.00  0.00    +0.000 C 
BRANCH  15  16
ATOM     16  C   UNL     1       1.554  15.548  20.535  0.00  0.00    +0.000 C 
ATOM     17  C   UNL     1       2.988  16.043  20.280  0.00  0.00    +0.000 C 
ATOM     18  C   UNL     1       0.712  15.586  19.236  0.00  0.00    +0.000 C 
ATOM     19  C   UNL     1       0.895  16.538  21.507  0.00  0.00    +0.000 C 
ENDBRANCH  15  16
ENDBRANCH   6  15
ENDBRANCH   1   3
BRANCH   1  20
ATOM     20  C   UNL     1       1.748   8.998  18.453  0.00  0.00    +0.000 A 
ATOM     21  C   UNL     1       2.371   8.034  17.654  0.00  0.00    +0.000 A 
ATOM     22  C   UNL     1       2.695   6.768  18.170  0.00  0.00    +0.000 A 
ATOM     23  C   UNL     1       2.338   6.380  19.474  0.00  0.00    +0.000 A 
ATOM     24  C   UNL     1       1.872   7.407  20.303  0.00  0.00    +0.000 A 
ATOM     25  C   UNL     1       1.610   8.691  19.810  0.00  0.00    +0.000 A 
BRANCH  23  26
ATOM     26  C   UNL     1       2.399   4.964  19.951  0.00  0.00    +0.000 A 
ATOM     27  C   UNL     1       1.283   4.407  20.621  0.00  0.00    +0.000 A 
ATOM     28  C   UNL     1       1.281   3.096  21.114  0.00  0.00    +0.000 A 
ATOM     29  C   UNL     1       2.398   2.289  20.953  0.00  0.00    +0.000 A 
ATOM     30  C   UNL     1       3.505   2.786  20.275  0.00  0.00    +0.000 A 
ATOM     31  C   UNL     1       3.511   4.101  19.762  0.00  0.00    +0.000 A 
BRANCH  31  32
ATOM     32  C   UNL     1       4.730   4.472  19.000  0.00  0.00    +0.000 A 
ATOM     33  N   UNL     1       4.979   4.009  17.805  0.00  0.00    +0.000 NA
ATOM     34  C   UNL     1       6.169   4.596  17.425  0.00  0.00    +0.000 A 
ATOM     35  O   UNL     1       6.774   4.406  16.382  0.00  0.00    +0.000 OA
ATOM     36  O   UNL     1       6.585   5.474  18.408  0.00  0.00    +0.000 OA
ATOM     37  N   UNL     1       5.693   5.319  19.465  0.00  0.00    +0.000 N 
ATOM     38  H   UNL     1       5.461   6.130  20.026  0.00  0.00    +0.000 HD
ENDBRANCH  31  32
ENDBRANCH  23  26
ENDBRANCH   1  20
TORSDOF 8
ENDMDL
MODEL 7
REMARK VINA RESULT:      -8.5      0.988      1.035
REMARK  Name = 
REMARK  12 active torsions:
REMARK  status: ('A' for Active; 'I' for Inactive)
REMARK    1  A    between atoms: C_1  and  C_2
REMARK    2  A    between atoms: C_2  and  C_3
REMARK    3  A    between atoms: C_3  and  C_4
REMARK    4  A    between atoms: C_5  and  C_6
REMARK    5  A    between atoms: C_6  and  C_7
REMARK    6  A    between atoms: C_10  and  C_11
REMARK    7  A    between atoms: C_16  and  C_17
REMARK    8  A    between atoms: N_27  and  C_28
REMARK    9  A    between atoms: C_28  and  C_29
REMARK   10  A    between atoms: C_29  and  C_30
REMARK   11  A    between atoms: C_29  and  C_31
REMARK   12  A    between atoms: C_29  and  C_32
REMARK                            x       y       z     vdW  Elec       q    Type
REMARK                         _______ _______ _______ _____ _____    ______ ____
ROOT
ATOM      1  C   UNL     1       0.564  10.550  18.404  0.00  0.00    +0.000 C 
ENDROOT
BRANCH   1   3
ATOM      2  C   UNL     1      -0.208  12.168  20.256  0.00  0.00    +0.000 A 
ATOM      3  C   UNL     1       0.698  11.761  19.329  0.00  0.00    +0.000 A 
ATOM      4  C   UNL     1       1.924  12.598  19.091  0.00  0.00    +0.000 A 
ATOM      5  O   UNL     1       2.596  12.394  18.072  0.00  0.00    +0.000 OA
ATOM      6  N   UNL     1       2.288  13.549  20.045  0.00  0.00    +0.000 N 
ATOM      7  C   UNL     1       1.370  13.869  21.022  0.00  0.00    +0.000 A 
ATOM      8  N   UNL     1       1.471  14.789  21.953  0.00  0.00    +0.000 NA
ATOM      9  C   UNL     1       0.231  14.791  22.510  0.00  0.00    +0.000 A 
ATOM     10  N   UNL     1      -0.608  13.864  22.052  0.00  0.00    +0.000 NA
ATOM     11  N   UNL     1       0.128  13.245  21.092  0.00  0.00    +0.000 N 
BRANCH   2  12
ATOM     12  C   UNL     1      -1.602  11.594  20.394  0.00  0.00    +0.000 C 
BRANCH  12  14
ATOM     13  C   UNL     1      -3.040  11.417  18.344  0.00  0.00    +0.000 C 
ATOM     14  C   UNL     1      -2.679  12.280  19.550  0.00  0.00    +0.000 C 
ENDBRANCH  12  14
ENDBRANCH   2  12
BRANCH   6  15
ATOM     15  C   UNL     1       3.569  14.250  19.893  0.00  0.00    +0.000 C 
BRANCH  15  16
ATOM     16  C   UNL     1       3.557  15.552  19.036  0.00  0.00    +0.000 C 
ATOM     17  C   UNL     1       4.076  16.737  19.869  0.00  0.00    +0.000 C 
ATOM     18  C   UNL     1       4.428  15.334  17.774  0.00  0.00    +0.000 C 
ATOM     19  C   UNL     1       2.155  15.926  18.534  0.00  0.00    +0.000 C 
ENDBRANCH  15  16
ENDBRANCH   6  15
ENDBRANCH   1   3
BRANCH   1  20
ATOM     20  C   UNL     1       1.307   9.288  18.830  0.00  0.00    +0.000 A 
ATOM     21  C   UNL     1       1.994   8.536  17.872  0.00  0.00    +0.000 A 
ATOM     22  C   UNL     1       2.585   7.306  18.207  0.00  0.00    +0.000 A 
ATOM     23  C   UNL     1       2.444   6.734  19.483  0.00  0.00    +0.000 A 
ATOM     24  C   UNL     1       1.902   7.572  20.465  0.00  0.00    +0.000 A 
ATOM     25  C   UNL     1       1.372   8.829  20.149  0.00  0.00    +0.000 A 
BRANCH  23  26
ATOM     26  C   UNL     1       2.799   5.313  19.786  0.00  0.00    +0.000 A 
ATOM     27  C   UNL     1       2.025   4.587  20.724  0.00  0.00    +0.000 A 
ATOM     28  C   UNL     1       2.315   3.261  21.071  0.00  0.00    +0.000 A 
ATOM     29  C   UNL     1       3.392   2.608  20.489  0.00  0.00    +0.000 A 
ATOM     30  C   UNL     1       4.160   3.273  19.540  0.00  0.00    +0.000 A 
ATOM     31  C   UNL     1       3.867   4.604  19.173  0.00  0.00    +0.000 A 
BRANCH  31  32
ATOM     32  C   UNL     1       4.725   5.163  18.099  0.00  0.00    +0.000 A 
ATOM     33  N   UNL     1       5.767   5.910  18.348  0.00  0.00    +0.000 NA
ATOM     34  C   UNL     1       6.310   6.205  17.114  0.00  0.00    +0.000 A 
ATOM     35  O   UNL     1       7.282   6.911  16.897  0.00  0.00    +0.000 OA
ATOM     36  O   UNL     1       5.594   5.554  16.126  0.00  0.00    +0.000 OA
ATOM     37  N   UNL     1       4.514   4.955  16.766  0.00  0.00    +0.000 N 
ATOM     38  H   UNL     1       4.175   4.067  16.416  0.00  0.00    +0.000 HD
ENDBRANCH  31  32
ENDBRANCH  23  26
ENDBRANCH   1  20
TORSDOF 8
ENDMDL
MODEL 8
REMARK VINA RESULT:      -8.4      1.781      4.206
REMARK  Name = 
REMARK  12 active torsions:
REMARK  status: ('A' for Active; 'I' for Inactive)
REMARK    1  A    between atoms: C_1  and  C_2
REMARK    2  A    between atoms: C_2  and  C_3
REMARK    3  A    between atoms: C_3  and  C_4
REMARK    4  A    between atoms: C_5  and  C_6
REMARK    5  A    between atoms: C_6  and  C_7
REMARK    6  A    between atoms: C_10  and  C_11
REMARK    7  A    between atoms: C_16  and  C_17
REMARK    8  A    between atoms: N_27  and  C_28
REMARK    9  A    between atoms: C_28  and  C_29
REMARK   10  A    between atoms: C_29  and  C_30
REMARK   11  A    between atoms: C_29  and  C_31
REMARK   12  A    between atoms: C_29  and  C_32
REMARK                            x       y       z     vdW  Elec       q    Type
REMARK                         _______ _______ _______ _____ _____    ______ ____
ROOT
ATOM      1  C   UNL     1       1.854  10.293  18.174  0.00  0.00    +0.000 C 
ENDROOT
BRANCH   1   3
ATOM      2  C   UNL     1       0.412  11.725  19.760  0.00  0.00    +0.000 A 
ATOM      3  C   UNL     1       0.540  10.802  18.771  0.00  0.00    +0.000 A 
ATOM      4  C   UNL     1      -0.692  10.125  18.241  0.00  0.00    +0.000 A 
ATOM      5  O   UNL     1      -0.563   9.101  17.558  0.00  0.00    +0.000 OA
ATOM      6  N   UNL     1      -1.940  10.693  18.501  0.00  0.00    +0.000 N 
ATOM      7  C   UNL     1      -2.011  11.690  19.451  0.00  0.00    +0.000 A 
ATOM      8  N   UNL     1      -3.084  12.291  19.909  0.00  0.00    +0.000 NA
ATOM      9  C   UNL     1      -2.596  13.037  20.934  0.00  0.00    +0.000 A 
ATOM     10  N   UNL     1      -1.273  13.015  21.086  0.00  0.00    +0.000 NA
ATOM     11  N   UNL     1      -0.878  12.152  20.114  0.00  0.00    +0.000 N 
BRANCH   2  12
ATOM     12  C   UNL     1       1.567  12.264  20.577  0.00  0.00    +0.000 C 
BRANCH  12  14
ATOM     13  C   UNL     1       2.836  13.715  18.969  0.00  0.00    +0.000 C 
ATOM     14  C   UNL     1       1.996  13.695  20.242  0.00  0.00    +0.000 C 
ENDBRANCH  12  14
ENDBRANCH   2  12
BRANCH   6  15
ATOM     15  C   UNL     1      -3.127  10.125  17.849  0.00  0.00    +0.000 C 
BRANCH  15  16
ATOM     16  C   UNL     1      -3.566  10.779  16.504  0.00  0.00    +0.000 C 
ATOM     17  C   UNL     1      -3.814   9.692  15.445  0.00  0.00    +0.000 C 
ATOM     18  C   UNL     1      -4.841  11.624  16.745  0.00  0.00    +0.000 C 
ATOM     19  C   UNL     1      -2.512  11.740  15.933  0.00  0.00    +0.000 C 
ENDBRANCH  15  16
ENDBRANCH   6  15
ENDBRANCH   1   3
BRANCH   1  20
ATOM     20  C   UNL     1       2.201   8.833  18.451  0.00  0.00    +0.000 A 
ATOM     21  C   UNL     1       2.819   8.071  17.454  0.00  0.00    +0.000 A 
ATOM     22  C   UNL     1       3.042   6.696  17.631  0.00  0.00    +0.000 A 
ATOM     23  C   UNL     1       2.585   6.006  18.767  0.00  0.00    +0.000 A 
ATOM     24  C   UNL     1       2.125   6.810  19.817  0.00  0.00    +0.000 A 
ATOM     25  C   UNL     1       1.964   8.192  19.670  0.00  0.00    +0.000 A 
BRANCH  23  26
ATOM     26  C   UNL     1       2.540   4.514  18.855  0.00  0.00    +0.000 A 
ATOM     27  C   UNL     1       1.292   3.862  19.004  0.00  0.00    +0.000 A 
ATOM     28  C   UNL     1       1.179   2.470  19.116  0.00  0.00    +0.000 A 
ATOM     29  C   UNL     1       2.315   1.674  19.079  0.00  0.00    +0.000 A 
ATOM     30  C   UNL     1       3.559   2.270  18.903  0.00  0.00    +0.000 A 
ATOM     31  C   UNL     1       3.681   3.670  18.776  0.00  0.00    +0.000 A 
BRANCH  31  32
ATOM     32  C   UNL     1       5.059   4.160  18.523  0.00  0.00    +0.000 A 
ATOM     33  N   UNL     1       5.587   4.186  17.329  0.00  0.00    +0.000 NA
ATOM     34  C   UNL     1       6.847   4.723  17.497  0.00  0.00    +0.000 A 
ATOM     35  O   UNL     1       7.688   4.891  16.628  0.00  0.00    +0.000 OA
ATOM     36  O   UNL     1       7.026   5.076  18.821  0.00  0.00    +0.000 OA
ATOM     37  N   UNL     1       5.896   4.624  19.496  0.00  0.00    +0.000 N 
ATOM     38  H   UNL     1       5.551   5.165  20.279  0.00  0.00    +0.000 HD
ENDBRANCH  31  32
ENDBRANCH  23  26
ENDBRANCH   1  20
TORSDOF 8
ENDMDL
MODEL 9
REMARK VINA RESULT:      -8.2      1.179      1.622
REMARK  Name = 
REMARK  12 active torsions:
REMARK  status: ('A' for Active; 'I' for Inactive)
REMARK    1  A    between atoms: C_1  and  C_2
REMARK    2  A    between atoms: C_2  and  C_3
REMARK    3  A    between atoms: C_3  and  C_4
REMARK    4  A    between atoms: C_5  and  C_6
REMARK    5  A    between atoms: C_6  and  C_7
REMARK    6  A    between atoms: C_10  and  C_11
REMARK    7  A    between atoms: C_16  and  C_17
REMARK    8  A    between atoms: N_27  and  C_28
REMARK    9  A    between atoms: C_28  and  C_29
REMARK   10  A    between atoms: C_29  and  C_30
REMARK   11  A    between atoms: C_29  and  C_31
REMARK   12  A    between atoms: C_29  and  C_32
REMARK                            x       y       z     vdW  Elec       q    Type
REMARK                         _______ _______ _______ _____ _____    ______ ____
ROOT
ATOM      1  C   UNL     1       0.519  10.594  18.478  0.00  0.00    +0.000 C 
ENDROOT
BRANCH   1   3
ATOM      2  C   UNL     1      -0.253  12.208  20.334  0.00  0.00    +0.000 A 
ATOM      3  C   UNL     1       0.661  11.792  19.419  0.00  0.00    +0.000 A 
ATOM      4  C   UNL     1       1.909  12.605  19.212  0.00  0.00    +0.000 A 
ATOM      5  O   UNL     1       2.595  12.398  18.204  0.00  0.00    +0.000 OA
ATOM      6  N   UNL     1       2.274  13.538  20.183  0.00  0.00    +0.000 N 
ATOM      7  C   UNL     1       1.346  13.867  21.148  0.00  0.00    +0.000 A 
ATOM      8  N   UNL     1       1.449  14.774  22.089  0.00  0.00    +0.000 NA
ATOM      9  C   UNL     1       0.199  14.797  22.624  0.00  0.00    +0.000 A 
ATOM     10  N   UNL     1      -0.651  13.893  22.141  0.00  0.00    +0.000 NA
ATOM     11  N   UNL     1       0.089  13.268  21.188  0.00  0.00    +0.000 N 
BRANCH   2  12
ATOM     12  C   UNL     1      -1.661  11.662  20.440  0.00  0.00    +0.000 C 
BRANCH  12  14
ATOM     13  C   UNL     1      -3.950  12.663  20.193  0.00  0.00    +0.000 C 
ATOM     14  C   UNL     1      -2.672  12.264  19.461  0.00  0.00    +0.000 C 
ENDBRANCH  12  14
ENDBRANCH   2  12
BRANCH   6  15
ATOM     15  C   UNL     1       3.573  14.213  20.063  0.00  0.00    +0.000 C 
BRANCH  15  16
ATOM     16  C   UNL     1       3.607  15.518  19.210  0.00  0.00    +0.000 C 
ATOM     17  C   UNL     1       4.591  15.357  18.039  0.00  0.00    +0.000 C 
ATOM     18  C   UNL     1       2.177  15.824  18.699  0.00  0.00    +0.000 C 
ATOM     19  C   UNL     1       4.051  16.748  20.014  0.00  0.00    +0.000 C 
ENDBRANCH  15  16
ENDBRANCH   6  15
ENDBRANCH   1   3
BRANCH   1  20
ATOM     20  C   UNL     1       1.256   9.322  18.886  0.00  0.00    +0.000 A 
ATOM     21  C   UNL     1       1.927   8.573  17.914  0.00  0.00    +0.000 A 
ATOM     22  C   UNL     1       2.513   7.336  18.233  0.00  0.00    +0.000 A 
ATOM     23  C   UNL     1       2.380   6.754  19.506  0.00  0.00    +0.000 A 
ATOM     24  C   UNL     1       1.855   7.589  20.500  0.00  0.00    +0.000 A 
ATOM     25  C   UNL     1       1.332   8.852  20.201  0.00  0.00    +0.000 A 
BRANCH  23  26
ATOM     26  C   UNL     1       2.727   5.328  19.792  0.00  0.00    +0.000 A 
ATOM     27  C   UNL     1       1.917   4.580  20.681  0.00  0.00    +0.000 A 
ATOM     28  C   UNL     1       2.197   3.248  21.012  0.00  0.00    +0.000 A 
ATOM     29  C   UNL     1       3.300   2.610  20.462  0.00  0.00    +0.000 A 
ATOM     30  C   UNL     1       4.105   3.298  19.561  0.00  0.00    +0.000 A 
ATOM     31  C   UNL     1       3.823   4.636  19.211  0.00  0.00    +0.000 A 
BRANCH  31  32
ATOM     32  C   UNL     1       4.724   5.220  18.186  0.00  0.00    +0.000 A 
ATOM     33  N   UNL     1       4.507   5.092  16.905  0.00  0.00    +0.000 NA
ATOM     34  C   UNL     1       5.529   5.784  16.289  0.00  0.00    +0.000 A 
ATOM     35  O   UNL     1       5.718   5.887  15.087  0.00  0.00    +0.000 OA
ATOM     36  O   UNL     1       6.326   6.382  17.247  0.00  0.00    +0.000 OA
ATOM     37  N   UNL     1       5.849   5.936  18.476  0.00  0.00    +0.000 N 
ATOM     38  H   UNL     1       5.887   6.566  19.268  0.00  0.00    +0.000 HD
ENDBRANCH  31  32
ENDBRANCH  23  26
ENDBRANCH   1  20
TORSDOF 8
ENDMDL
