MODEL 1
REMARK VINA RESULT:      -8.6      0.000      0.000
REMARK  Name = 
REMARK  5 active torsions:
REMARK  status: ('A' for Active; 'I' for Inactive)
REMARK    1  A    between atoms: C_2  and  O_3
REMARK    2  A    between atoms: C_2  and  C_4
REMARK    3  A    between atoms: C_6  and  C_7
REMARK    4  A    between atoms: C_9  and  C_10
REMARK    5  A    between atoms: C_22  and  C_23
REMARK                            x       y       z     vdW  Elec       q    Type
REMARK                         _______ _______ _______ _____ _____    ______ ____
ROOT
ATOM      1  C   UNL     1      -1.024  12.086  20.780  0.00  0.00    +0.000 A 
ATOM      2  C   UNL     1      -0.251  11.238  19.952  0.00  0.00    +0.000 A 
ATOM      3  C   UNL     1       0.512  10.190  20.481  0.00  0.00    +0.000 A 
ATOM      4  C   UNL     1       0.491  10.013  21.865  0.00  0.00    +0.000 A 
ATOM      5  C   UNL     1      -0.314  10.812  22.687  0.00  0.00    +0.000 A 
ATOM      6  C   UNL     1      -1.099  11.872  22.185  0.00  0.00    +0.000 A 
ENDROOT
BRANCH   6   7
ATOM      7  C   UNL     1      -1.997  12.628  23.115  0.00  0.00    +0.000 A 
ATOM      8  C   UNL     1      -3.196  12.028  23.557  0.00  0.00    +0.000 A 
ATOM      9  C   UNL     1      -4.097  12.709  24.372  0.00  0.00    +0.000 A 
ATOM     10  F   UNL     1      -5.261  12.130  24.690  0.00  0.00    +0.000 F 
ATOM     11  C   UNL     1      -3.815  13.975  24.849  0.00  0.00    +0.000 A 
ATOM     12  C   UNL     1      -2.619  14.582  24.483  0.00  0.00    +0.000 A 
ATOM     13  C   UNL     1      -1.733  13.935  23.604  0.00  0.00    +0.000 A 
ATOM     14 CL   UNL     1      -0.367  14.884  23.112  0.00  0.00    +0.000 Cl
ENDBRANCH   6   7
BRANCH   3  15
ATOM     15  C   UNL     1       1.254   9.222  19.655  0.00  0.00    +0.000 A 
ATOM     16  N   UNL     1       1.733   8.089  20.133  0.00  0.00    +0.000 NA
ATOM     17  C   UNL     1       2.335   7.349  19.132  0.00  0.00    +0.000 A 
ATOM     18  C   UNL     1       2.327   7.946  17.889  0.00  0.00    +0.000 A 
ATOM     19  S   UNL     1       1.557   9.475  17.979  0.00  0.00    +0.000 S 
BRANCH  17  20
ATOM     20  C   UNL     1       2.876   6.025  19.409  0.00  0.00    +0.000 A 
ATOM     21  C   UNL     1       4.065   5.578  18.821  0.00  0.00    +0.000 A 
ATOM     22  C   UNL     1       4.547   4.293  19.088  0.00  0.00    +0.000 A 
ATOM     23  C   UNL     1       3.847   3.442  19.950  0.00  0.00    +0.000 A 
ATOM     24 CL   UNL     1       4.492   1.860  20.211  0.00  0.00    +0.000 Cl
ATOM     25  C   UNL     1       2.669   3.885  20.555  0.00  0.00    +0.000 A 
ATOM     26 CL   UNL     1       1.751   2.891  21.631  0.00  0.00    +0.000 Cl
ATOM     27  C   UNL     1       2.190   5.173  20.290  0.00  0.00    +0.000 A 
ENDBRANCH  17  20
ENDBRANCH   3  15
BRANCH   1  29
ATOM     28  O   UNL     1      -1.430  14.296  20.010  0.00  0.00    +0.000 OA
ATOM     29  C   UNL     1      -1.778  13.129  20.034  0.00  0.00    +0.000 C 
BRANCH  29  30
ATOM     30  O   UNL     1      -2.916  12.688  19.461  0.00  0.00    +0.000 OA
ATOM     31  H   UNL     1      -2.998  11.721  19.379  0.00  0.00    +0.000 HD
ENDBRANCH  29  30
ENDBRANCH   1  29
TORSDOF 5
ENDMDL
MODEL 2
REMARK VINA RESULT:      -8.3      4.288      5.768
REMARK  Name = 
REMARK  5 active torsions:
REMARK  status: ('A' for Active; 'I' for Inactive)
REMARK    1  A    between atoms: C_2  and  O_3
REMARK    2  A    between atoms: C_2  and  C_4
REMARK    3  A    between atoms: C_6  and  C_7
REMARK    4  A    between atoms: C_9  and  C_10
REMARK    5  A    between atoms: C_22  and  C_23
REMARK                            x       y       z     vdW  Elec       q    Type
REMARK                         _______ _______ _______ _____ _____    ______ ____
ROOT
ATOM      1  C   UNL     1       1.190   8.587  20.249  0.00  0.00    +0.000 A 
ATOM      2  C   UNL     1       2.020   7.502  19.884  0.00  0.00    +0.000 A 
ATOM      3  C   UNL     1       2.606   7.417  18.616  0.00  0.00    +0.000 A 
ATOM      4  C   UNL     1       2.333   8.445  17.711  0.00  0.00    +0.000 A 
ATOM      5  C   UNL     1       1.558   9.551  18.081  0.00  0.00    +0.000 A 
ATOM      6  C   UNL     1       0.959   9.669  19.354  0.00  0.00    +0.000 A 
ENDROOT
BRANCH   6   7
ATOM      7  C   UNL     1       0.212  10.919  19.703  0.00  0.00    +0.000 A 
ATOM      8  C   UNL     1       0.802  11.853  20.582  0.00  0.00    +0.000 A 
ATOM      9  C   UNL     1       0.128  13.002  20.988  0.00  0.00    +0.000 A 
ATOM     10  F   UNL     1       0.694  13.810  21.892  0.00  0.00    +0.000 F 
ATOM     11  C   UNL     1      -1.120  13.316  20.483  0.00  0.00    +0.000 A 
ATOM     12  C   UNL     1      -1.715  12.451  19.573  0.00  0.00    +0.000 A 
ATOM     13  C   UNL     1      -1.077  11.253  19.208  0.00  0.00    +0.000 A 
ATOM     14 CL   UNL     1      -2.015  10.202  18.194  0.00  0.00    +0.000 Cl
ENDBRANCH   6   7
BRANCH   3  15
ATOM     15  C   UNL     1       3.554   6.361  18.221  0.00  0.00    +0.000 A 
ATOM     16  N   UNL     1       3.986   6.209  16.984  0.00  0.00    +0.000 NA
ATOM     17  C   UNL     1       4.906   5.180  16.908  0.00  0.00    +0.000 A 
ATOM     18  C   UNL     1       5.150   4.535  18.102  0.00  0.00    +0.000 A 
ATOM     19  S   UNL     1       4.197   5.228  19.347  0.00  0.00    +0.000 S 
BRANCH  17  20
ATOM     20  C   UNL     1       5.575   4.872  15.651  0.00  0.00    +0.000 A 
ATOM     21  C   UNL     1       6.937   5.128  15.459  0.00  0.00    +0.000 A 
ATOM     22  C   UNL     1       7.546   4.843  14.233  0.00  0.00    +0.000 A 
ATOM     23  C   UNL     1       6.800   4.295  13.186  0.00  0.00    +0.000 A 
ATOM     24 CL   UNL     1       7.616   3.993  11.693  0.00  0.00    +0.000 Cl
ATOM     25  C   UNL     1       5.443   4.020  13.372  0.00  0.00    +0.000 A 
ATOM     26 CL   UNL     1       4.457   3.341  12.125  0.00  0.00    +0.000 Cl
ATOM     27  C   UNL     1       4.836   4.301  14.601  0.00  0.00    +0.000 A 
ENDBRANCH  17  20
ENDBRANCH   3  15
BRANCH   1  29
ATOM     28  O   UNL     1      -0.473   8.189  21.898  0.00  0.00    +0.000 OA
ATOM     29  C   UNL     1       0.675   8.508  21.643  0.00  0.00    +0.000 C 
BRANCH  29  30
ATOM     30  O   UNL     1       1.559   8.896  22.583  0.00  0.00    +0.000 OA
ATOM     31  H   UNL     1       2.129   9.647  22.341  0.00  0.00    +0.000 HD
ENDBRANCH  29  30
ENDBRANCH   1  29
TORSDOF 5
ENDMDL
MODEL 3
REMARK VINA RESULT:      -8.2      4.932     10.301
REMARK  Name = 
REMARK  5 active torsions:
REMARK  status: ('A' for Active; 'I' for Inactive)
REMARK    1  A    between atoms: C_2  and  O_3
REMARK    2  A    between atoms: C_2  and  C_4
REMARK    3  A    between atoms: C_6  and  C_7
REMARK    4  A    between atoms: C_9  and  C_10
REMARK    5  A    between atoms: C_22  and  C_23
REMARK                            x       y       z     vdW  Elec       q    Type
REMARK                         _______ _______ _______ _____ _____    ______ ____
ROOT
ATOM      1  C   UNL     1       2.372   6.986  19.406  0.00  0.00    +0.000 A 
ATOM      2  C   UNL     1       1.477   7.998  19.825  0.00  0.00    +0.000 A 
ATOM      3  C   UNL     1       1.301   9.176  19.090  0.00  0.00    +0.000 A 
ATOM      4  C   UNL     1       2.051   9.323  17.922  0.00  0.00    +0.000 A 
ATOM      5  C   UNL     1       2.898   8.304  17.469  0.00  0.00    +0.000 A 
ATOM      6  C   UNL     1       3.093   7.103  18.184  0.00  0.00    +0.000 A 
ENDROOT
BRANCH   6   7
ATOM      7  C   UNL     1       3.950   6.026  17.595  0.00  0.00    +0.000 A 
ATOM      8  C   UNL     1       5.316   6.288  17.350  0.00  0.00    +0.000 A 
ATOM      9  C   UNL     1       6.145   5.344  16.748  0.00  0.00    +0.000 A 
ATOM     10  F   UNL     1       7.408   5.673  16.454  0.00  0.00    +0.000 F 
ATOM     11  C   UNL     1       5.682   4.079  16.438  0.00  0.00    +0.000 A 
ATOM     12  C   UNL     1       4.357   3.760  16.714  0.00  0.00    +0.000 A 
ATOM     13  C   UNL     1       3.492   4.725  17.256  0.00  0.00    +0.000 A 
ATOM     14 CL   UNL     1       1.834   4.230  17.389  0.00  0.00    +0.000 Cl
ENDBRANCH   6   7
BRANCH   3  15
ATOM     15  C   UNL     1       0.312  10.213  19.431  0.00  0.00    +0.000 A 
ATOM     16  N   UNL     1      -0.832  10.354  18.789  0.00  0.00    +0.000 NA
ATOM     17  C   UNL     1      -1.589  11.366  19.350  0.00  0.00    +0.000 A 
ATOM     18  C   UNL     1      -0.994  12.009  20.415  0.00  0.00    +0.000 A 
ATOM     19  S   UNL     1       0.555  11.336  20.714  0.00  0.00    +0.000 S 
BRANCH  17  20
ATOM     20  C   UNL     1      -2.926  11.659  18.851  0.00  0.00    +0.000 A 
ATOM     21  C   UNL     1      -3.318  11.316  17.552  0.00  0.00    +0.000 A 
ATOM     22  C   UNL     1      -4.601  11.631  17.094  0.00  0.00    +0.000 A 
ATOM     23  C   UNL     1      -5.507  12.290  17.930  0.00  0.00    +0.000 A 
ATOM     24 CL   UNL     1      -7.065  12.668  17.285  0.00  0.00    +0.000 Cl
ATOM     25  C   UNL     1      -5.131  12.622  19.234  0.00  0.00    +0.000 A 
ATOM     26 CL   UNL     1      -6.196  13.434  20.326  0.00  0.00    +0.000 Cl
ATOM     27  C   UNL     1      -3.848  12.301  19.693  0.00  0.00    +0.000 A 
ENDBRANCH  17  20
ENDBRANCH   3  15
BRANCH   1  29
ATOM     28  O   UNL     1       1.401   5.312  20.783  0.00  0.00    +0.000 OA
ATOM     29  C   UNL     1       2.409   5.804  20.310  0.00  0.00    +0.000 C 
BRANCH  29  30
ATOM     30  O   UNL     1       3.651   5.383  20.620  0.00  0.00    +0.000 OA
ATOM     31  H   UNL     1       3.702   4.671  21.282  0.00  0.00    +0.000 HD
ENDBRANCH  29  30
ENDBRANCH   1  29
TORSDOF 5
ENDMDL
MODEL 4
REMARK VINA RESULT:      -8.2      0.673      1.378
REMARK  Name = 
REMARK  5 active torsions:
REMARK  status: ('A' for Active; 'I' for Inactive)
REMARK    1  A    between atoms: C_2  and  O_3
REMARK    2  A    between atoms: C_2  and  C_4
REMARK    3  A    between atoms: C_6  and  C_7
REMARK    4  A    between atoms: C_9  and  C_10
REMARK    5  A    between atoms: C_22  and  C_23
REMARK                            x       y       z     vdW  Elec       q    Type
REMARK                         _______ _______ _______ _____ _____    ______ ____
ROOT
ATOM      1  C   UNL     1      -1.102  12.244  20.843  0.00  0.00    +0.000 A 
ATOM      2  C   UNL     1      -0.334  11.419  19.989  0.00  0.00    +0.000 A 
ATOM      3  C   UNL     1       0.417  10.346  20.483  0.00  0.00    +0.000 A 
ATOM      4  C   UNL     1       0.388  10.121  21.861  0.00  0.00    +0.000 A 
ATOM      5  C   UNL     1      -0.413  10.897  22.707  0.00  0.00    +0.000 A 
ATOM      6  C   UNL     1      -1.186  11.982  22.239  0.00  0.00    +0.000 A 
ENDROOT
BRANCH   6   7
ATOM      7  C   UNL     1      -2.080  12.714  23.192  0.00  0.00    +0.000 A 
ATOM      8  C   UNL     1      -3.261  12.089  23.648  0.00  0.00    +0.000 A 
ATOM      9  C   UNL     1      -4.159  12.746  24.485  0.00  0.00    +0.000 A 
ATOM     10  F   UNL     1      -5.308  12.145  24.817  0.00  0.00    +0.000 F 
ATOM     11  C   UNL     1      -3.890  14.013  24.970  0.00  0.00    +0.000 A 
ATOM     12  C   UNL     1      -2.711  14.643  24.590  0.00  0.00    +0.000 A 
ATOM     13  C   UNL     1      -1.830  14.020  23.690  0.00  0.00    +0.000 A 
ATOM     14 CL   UNL     1      -0.488  14.997  23.184  0.00  0.00    +0.000 Cl
ENDBRANCH   6   7
BRANCH   3  15
ATOM     15  C   UNL     1       1.153   9.400  19.627  0.00  0.00    +0.000 A 
ATOM     16  N   UNL     1       1.627   8.250  20.069  0.00  0.00    +0.000 NA
ATOM     17  C   UNL     1       2.223   7.539  19.045  0.00  0.00    +0.000 A 
ATOM     18  C   UNL     1       2.218   8.175  17.821  0.00  0.00    +0.000 A 
ATOM     19  S   UNL     1       1.455   9.704  17.960  0.00  0.00    +0.000 S 
BRANCH  17  20
ATOM     20  C   UNL     1       2.758   6.204  19.279  0.00  0.00    +0.000 A 
ATOM     21  C   UNL     1       2.105   5.284  20.107  0.00  0.00    +0.000 A 
ATOM     22  C   UNL     1       2.655   4.019  20.332  0.00  0.00    +0.000 A 
ATOM     23  C   UNL     1       3.863   3.657  19.728  0.00  0.00    +0.000 A 
ATOM     24 CL   UNL     1       4.493   2.086  20.073  0.00  0.00    +0.000 Cl
ATOM     25  C   UNL     1       4.515   4.562  18.886  0.00  0.00    +0.000 A 
ATOM     26 CL   UNL     1       6.009   4.186  18.103  0.00  0.00    +0.000 Cl
ATOM     27  C   UNL     1       3.960   5.827  18.659  0.00  0.00    +0.000 A 
ENDBRANCH  17  20
ENDBRANCH   3  15
BRANCH   1  29
ATOM     28  O   UNL     1      -1.398  14.448  20.006  0.00  0.00    +0.000 OA
ATOM     29  C   UNL     1      -1.844  13.321  20.131  0.00  0.00    +0.000 C 
BRANCH  29  30
ATOM     30  O   UNL     1      -3.074  12.964  19.714  0.00  0.00    +0.000 OA
ATOM     31  H   UNL     1      -3.154  12.059  19.363  0.00  0.00    +0.000 HD
ENDBRANCH  29  30
ENDBRANCH   1  29
TORSDOF 5
ENDMDL
MODEL 5
REMARK VINA RESULT:      -8.1      2.586      3.268
REMARK  Name = 
REMARK  5 active torsions:
REMARK  status: ('A' for Active; 'I' for Inactive)
REMARK    1  A    between atoms: C_2  and  O_3
REMARK    2  A    between atoms: C_2  and  C_4
REMARK    3  A    between atoms: C_6  and  C_7
REMARK    4  A    between atoms: C_9  and  C_10
REMARK    5  A    between atoms: C_22  and  C_23
REMARK                            x       y       z     vdW  Elec       q    Type
REMARK                         _______ _______ _______ _____ _____    ______ ____
ROOT
ATOM      1  C   UNL     1      -0.087  10.547  20.352  0.00  0.00    +0.000 A 
ATOM      2  C   UNL     1       0.567   9.409  19.823  0.00  0.00    +0.000 A 
ATOM      3  C   UNL     1       1.224   8.488  20.647  0.00  0.00    +0.000 A 
ATOM      4  C   UNL     1       1.218   8.736  22.021  0.00  0.00    +0.000 A 
ATOM      5  C   UNL     1       0.527   9.828  22.559  0.00  0.00    +0.000 A 
ATOM      6  C   UNL     1      -0.150  10.771  21.756  0.00  0.00    +0.000 A 
ENDROOT
BRANCH   6   7
ATOM      7  C   UNL     1      -0.935  11.866  22.409  0.00  0.00    +0.000 A 
ATOM      8  C   UNL     1      -2.132  11.547  23.088  0.00  0.00    +0.000 A 
ATOM      9  C   UNL     1      -2.932  12.532  23.660  0.00  0.00    +0.000 A 
ATOM     10  F   UNL     1      -4.101  12.189  24.213  0.00  0.00    +0.000 F 
ATOM     11  C   UNL     1      -2.546  13.860  23.657  0.00  0.00    +0.000 A 
ATOM     12  C   UNL     1      -1.347  14.211  23.047  0.00  0.00    +0.000 A 
ATOM     13  C   UNL     1      -0.564  13.237  22.404  0.00  0.00    +0.000 A 
ATOM     14 CL   UNL     1       0.815  13.853  21.550  0.00  0.00    +0.000 Cl
ENDBRANCH   6   7
BRANCH   3  15
ATOM     15  C   UNL     1       1.834   7.241  20.155  0.00  0.00    +0.000 A 
ATOM     16  N   UNL     1       2.684   7.205  19.147  0.00  0.00    +0.000 NA
ATOM     17  C   UNL     1       3.141   5.918  18.935  0.00  0.00    +0.000 A 
ATOM     18  C   UNL     1       2.606   4.969  19.781  0.00  0.00    +0.000 A 
ATOM     19  S   UNL     1       1.499   5.707  20.862  0.00  0.00    +0.000 S 
BRANCH  17  20
ATOM     20  C   UNL     1       4.146   5.644  17.916  0.00  0.00    +0.000 A 
ATOM     21  C   UNL     1       3.996   4.599  16.997  0.00  0.00    +0.000 A 
ATOM     22  C   UNL     1       4.989   4.346  16.045  0.00  0.00    +0.000 A 
ATOM     23  C   UNL     1       6.141   5.137  16.000  0.00  0.00    +0.000 A 
ATOM     24 CL   UNL     1       7.334   4.747  14.813  0.00  0.00    +0.000 Cl
ATOM     25  C   UNL     1       6.292   6.193  16.902  0.00  0.00    +0.000 A 
ATOM     26 CL   UNL     1       7.687   7.214  16.906  0.00  0.00    +0.000 Cl
ATOM     27  C   UNL     1       5.295   6.448  17.851  0.00  0.00    +0.000 A 
ENDBRANCH  17  20
ENDBRANCH   3  15
BRANCH   1  29
ATOM     28  O   UNL     1      -1.949  11.541  19.262  0.00  0.00    +0.000 OA
ATOM     29  C   UNL     1      -0.741  11.398  19.321  0.00  0.00    +0.000 C 
BRANCH  29  30
ATOM     30  O   UNL     1       0.109  11.925  18.418  0.00  0.00    +0.000 OA
ATOM     31  H   UNL     1       0.247  12.887  18.479  0.00  0.00    +0.000 HD
ENDBRANCH  29  30
ENDBRANCH   1  29
TORSDOF 5
ENDMDL
MODEL 6
REMARK VINA RESULT:      -8.0      3.902      5.253
REMARK  Name = 
REMARK  5 active torsions:
REMARK  status: ('A' for Active; 'I' for Inactive)
REMARK    1  A    between atoms: C_2  and  O_3
REMARK    2  A    between atoms: C_2  and  C_4
REMARK    3  A    between atoms: C_6  and  C_7
REMARK    4  A    between atoms: C_9  and  C_10
REMARK    5  A    between atoms: C_22  and  C_23
REMARK                            x       y       z     vdW  Elec       q    Type
REMARK                         _______ _______ _______ _____ _____    ______ ____
ROOT
ATOM      1  C   UNL     1       1.037   9.019  20.465  0.00  0.00    +0.000 A 
ATOM      2  C   UNL     1       1.851   7.905  20.153  0.00  0.00    +0.000 A 
ATOM      3  C   UNL     1       2.290   7.657  18.847  0.00  0.00    +0.000 A 
ATOM      4  C   UNL     1       1.889   8.550  17.853  0.00  0.00    +0.000 A 
ATOM      5  C   UNL     1       1.130   9.687  18.160  0.00  0.00    +0.000 A 
ATOM      6  C   UNL     1       0.676   9.967  19.468  0.00  0.00    +0.000 A 
ENDROOT
BRANCH   6   7
ATOM      7  C   UNL     1      -0.060  11.244  19.733  0.00  0.00    +0.000 A 
ATOM      8  C   UNL     1      -1.473  11.243  19.714  0.00  0.00    +0.000 A 
ATOM      9  C   UNL     1      -2.207  12.412  19.893  0.00  0.00    +0.000 A 
ATOM     10  F   UNL     1      -3.539  12.375  19.776  0.00  0.00    +0.000 F 
ATOM     11  C   UNL     1      -1.583  13.612  20.179  0.00  0.00    +0.000 A 
ATOM     12  C   UNL     1      -0.196  13.648  20.262  0.00  0.00    +0.000 A 
ATOM     13  C   UNL     1       0.561  12.490  20.013  0.00  0.00    +0.000 A 
ATOM     14 CL   UNL     1       2.279  12.729  19.992  0.00  0.00    +0.000 Cl
ENDBRANCH   6   7
BRANCH   3  15
ATOM     15  C   UNL     1       3.217   6.569  18.488  0.00  0.00    +0.000 A 
ATOM     16  N   UNL     1       3.771   6.462  17.296  0.00  0.00    +0.000 NA
ATOM     17  C   UNL     1       4.636   5.384  17.252  0.00  0.00    +0.000 A 
ATOM     18  C   UNL     1       4.714   4.659  18.422  0.00  0.00    +0.000 A 
ATOM     19  S   UNL     1       3.672   5.337  19.601  0.00  0.00    +0.000 S 
BRANCH  17  20
ATOM     20  C   UNL     1       5.419   5.108  16.054  0.00  0.00    +0.000 A 
ATOM     21  C   UNL     1       6.772   5.454  15.963  0.00  0.00    +0.000 A 
ATOM     22  C   UNL     1       7.491   5.197  14.792  0.00  0.00    +0.000 A 
ATOM     23  C   UNL     1       6.866   4.587  13.700  0.00  0.00    +0.000 A 
ATOM     24 CL   UNL     1       7.813   4.324  12.279  0.00  0.00    +0.000 Cl
ATOM     25  C   UNL     1       5.520   4.223  13.787  0.00  0.00    +0.000 A 
ATOM     26 CL   UNL     1       4.681   3.464  12.479  0.00  0.00    +0.000 Cl
ATOM     27  C   UNL     1       4.803   4.477  14.962  0.00  0.00    +0.000 A 
ENDBRANCH  17  20
ENDBRANCH   3  15
BRANCH   1  29
ATOM     28  O   UNL     1       1.481   9.505  22.748  0.00  0.00    +0.000 OA
ATOM     29  C   UNL     1       0.686   9.121  21.908  0.00  0.00    +0.000 C 
BRANCH  29  30
ATOM     30  O   UNL     1      -0.550   8.678  22.210  0.00  0.00    +0.000 OA
ATOM     31  H   UNL     1      -0.946   8.062  21.568  0.00  0.00    +0.000 HD
ENDBRANCH  29  30
ENDBRANCH   1  29
TORSDOF 5
ENDMDL
MODEL 7
REMARK VINA RESULT:      -8.0      1.033      1.068
REMARK  Name = 
REMARK  5 active torsions:
REMARK  status: ('A' for Active; 'I' for Inactive)
REMARK    1  A    between atoms: C_2  and  O_3
REMARK    2  A    between atoms: C_2  and  C_4
REMARK    3  A    between atoms: C_6  and  C_7
REMARK    4  A    between atoms: C_9  and  C_10
REMARK    5  A    between atoms: C_22  and  C_23
REMARK                            x       y       z     vdW  Elec       q    Type
REMARK                         _______ _______ _______ _____ _____    ______ ____
ROOT
ATOM      1  C   UNL     1      -1.806  11.717  20.265  0.00  0.00    +0.000 A 
ATOM      2  C   UNL     1      -0.927  10.888  19.529  0.00  0.00    +0.000 A 
ATOM      3  C   UNL     1       0.259  10.396  20.086  0.00  0.00    +0.000 A 
ATOM      4  C   UNL     1       0.552  10.761  21.402  0.00  0.00    +0.000 A 
ATOM      5  C   UNL     1      -0.338  11.534  22.157  0.00  0.00    +0.000 A 
ATOM      6  C   UNL     1      -1.544  12.041  21.626  0.00  0.00    +0.000 A 
ENDROOT
BRANCH   6   7
ATOM      7  C   UNL     1      -2.484  12.791  22.519  0.00  0.00    +0.000 A 
ATOM      8  C   UNL     1      -3.202  12.089  23.512  0.00  0.00    +0.000 A 
ATOM      9  C   UNL     1      -4.133  12.726  24.328  0.00  0.00    +0.000 A 
ATOM     10  F   UNL     1      -4.853  12.001  25.192  0.00  0.00    +0.000 F 
ATOM     11  C   UNL     1      -4.335  14.092  24.253  0.00  0.00    +0.000 A 
ATOM     12  C   UNL     1      -3.609  14.830  23.327  0.00  0.00    +0.000 A 
ATOM     13  C   UNL     1      -2.717  14.191  22.449  0.00  0.00    +0.000 A 
ATOM     14 CL   UNL     1      -2.011  15.220  21.244  0.00  0.00    +0.000 Cl
ENDBRANCH   6   7
BRANCH   3  15
ATOM     15  C   UNL     1       1.157   9.453  19.397  0.00  0.00    +0.000 A 
ATOM     16  N   UNL     1       1.529   8.301  19.922  0.00  0.00    +0.000 NA
ATOM     17  C   UNL     1       2.325   7.594  19.040  0.00  0.00    +0.000 A 
ATOM     18  C   UNL     1       2.573   8.235  17.845  0.00  0.00    +0.000 A 
ATOM     19  S   UNL     1       1.799   9.765  17.830  0.00  0.00    +0.000 S 
BRANCH  17  20
ATOM     20  C   UNL     1       2.799   6.258  19.374  0.00  0.00    +0.000 A 
ATOM     21  C   UNL     1       4.014   5.763  18.885  0.00  0.00    +0.000 A 
ATOM     22  C   UNL     1       4.431   4.468  19.205  0.00  0.00    +0.000 A 
ATOM     23  C   UNL     1       3.639   3.652  20.020  0.00  0.00    +0.000 A 
ATOM     24 CL   UNL     1       4.209   2.055  20.350  0.00  0.00    +0.000 Cl
ATOM     25  C   UNL     1       2.433   4.142  20.527  0.00  0.00    +0.000 A 
ATOM     26 CL   UNL     1       1.404   3.194  21.542  0.00  0.00    +0.000 Cl
ATOM     27  C   UNL     1       2.019   5.441  20.210  0.00  0.00    +0.000 A 
ENDBRANCH  17  20
ENDBRANCH   3  15
BRANCH   1  29
ATOM     28  O   UNL     1      -4.101  12.292  20.047  0.00  0.00    +0.000 OA
ATOM     29  C   UNL     1      -3.021  12.126  19.509  0.00  0.00    +0.000 C 
BRANCH  29  30
ATOM     30  O   UNL     1      -2.840  12.214  18.176  0.00  0.00    +0.000 OA
ATOM     31  H   UNL     1      -2.062  12.724  17.889  0.00  0.00    +0.000 HD
ENDBRANCH  29  30
ENDBRANCH   1  29
TORSDOF 5
ENDMDL
MODEL 8
REMARK VINA RESULT:      -7.9      5.495     10.604
REMARK  Name = 
REMARK  5 active torsions:
REMARK  status: ('A' for Active; 'I' for Inactive)
REMARK    1  A    between atoms: C_2  and  O_3
REMARK    2  A    between atoms: C_2  and  C_4
REMARK    3  A    between atoms: C_6  and  C_7
REMARK    4  A    between atoms: C_9  and  C_10
REMARK    5  A    between atoms: C_22  and  C_23
REMARK                            x       y       z     vdW  Elec       q    Type
REMARK                         _______ _______ _______ _____ _____    ______ ____
ROOT
ATOM      1  C   UNL     1       3.452   6.019  18.544  0.00  0.00    +0.000 A 
ATOM      2  C   UNL     1       2.449   6.804  19.159  0.00  0.00    +0.000 A 
ATOM      3  C   UNL     1       2.223   8.133  18.784  0.00  0.00    +0.000 A 
ATOM      4  C   UNL     1       3.032   8.665  17.779  0.00  0.00    +0.000 A 
ATOM      5  C   UNL     1       3.989   7.879  17.125  0.00  0.00    +0.000 A 
ATOM      6  C   UNL     1       4.238   6.535  17.476  0.00  0.00    +0.000 A 
ENDROOT
BRANCH   6   7
ATOM      7  C   UNL     1       5.220   5.734  16.678  0.00  0.00    +0.000 A 
ATOM      8  C   UNL     1       4.842   5.247  15.407  0.00  0.00    +0.000 A 
ATOM      9  C   UNL     1       5.693   4.447  14.649  0.00  0.00    +0.000 A 
ATOM     10  F   UNL     1       5.255   3.935  13.492  0.00  0.00    +0.000 F 
ATOM     11  C   UNL     1       6.978   4.163  15.075  0.00  0.00    +0.000 A 
ATOM     12  C   UNL     1       7.410   4.669  16.295  0.00  0.00    +0.000 A 
ATOM     13  C   UNL     1       6.538   5.419  17.103  0.00  0.00    +0.000 A 
ATOM     14 CL   UNL     1       7.166   5.839  18.665  0.00  0.00    +0.000 Cl
ENDBRANCH   6   7
BRANCH   3  15
ATOM     15  C   UNL     1       1.130   8.961  19.324  0.00  0.00    +0.000 A 
ATOM     16  N   UNL     1       0.170   9.462  18.571  0.00  0.00    +0.000 NA
ATOM     17  C   UNL     1      -0.750  10.149  19.341  0.00  0.00    +0.000 A 
ATOM     18  C   UNL     1      -0.464  10.183  20.689  0.00  0.00    +0.000 A 
ATOM     19  S   UNL     1       0.999   9.342  20.997  0.00  0.00    +0.000 S 
BRANCH  17  20
ATOM     20  C   UNL     1      -1.940  10.732  18.735  0.00  0.00    +0.000 A 
ATOM     21  C   UNL     1      -2.746  11.645  19.425  0.00  0.00    +0.000 A 
ATOM     22  C   UNL     1      -3.895  12.170  18.825  0.00  0.00    +0.000 A 
ATOM     23  C   UNL     1      -4.249  11.789  17.527  0.00  0.00    +0.000 A 
ATOM     24 CL   UNL     1      -5.696  12.461  16.862  0.00  0.00    +0.000 Cl
ATOM     25  C   UNL     1      -3.443  10.891  16.824  0.00  0.00    +0.000 A 
ATOM     26 CL   UNL     1      -3.816  10.376  15.216  0.00  0.00    +0.000 Cl
ATOM     27  C   UNL     1      -2.291  10.370  17.424  0.00  0.00    +0.000 A 
ENDBRANCH  17  20
ENDBRANCH   3  15
BRANCH   1  29
ATOM     28  O   UNL     1       4.417   4.259  19.817  0.00  0.00    +0.000 OA
ATOM     29  C   UNL     1       3.530   4.627  19.067  0.00  0.00    +0.000 C 
BRANCH  29  30
ATOM     30  O   UNL     1       2.589   3.797  18.575  0.00  0.00    +0.000 OA
ATOM     31  H   UNL     1       2.784   2.846  18.652  0.00  0.00    +0.000 HD
ENDBRANCH  29  30
ENDBRANCH   1  29
TORSDOF 5
ENDMDL
MODEL 9
REMARK VINA RESULT:      -7.8      4.257     10.095
REMARK  Name = 
REMARK  5 active torsions:
REMARK  status: ('A' for Active; 'I' for Inactive)
REMARK    1  A    between atoms: C_2  and  O_3
REMARK    2  A    between atoms: C_2  and  C_4
REMARK    3  A    between atoms: C_6  and  C_7
REMARK    4  A    between atoms: C_9  and  C_10
REMARK    5  A    between atoms: C_22  and  C_23
REMARK                            x       y       z     vdW  Elec       q    Type
REMARK                         _______ _______ _______ _____ _____    ______ ____
ROOT
ATOM      1  C   UNL     1       2.103   6.909  19.492  0.00  0.00    +0.000 A 
ATOM      2  C   UNL     1       1.158   7.890  19.872  0.00  0.00    +0.000 A 
ATOM      3  C   UNL     1       1.009   9.084  19.157  0.00  0.00    +0.000 A 
ATOM      4  C   UNL     1       1.837   9.279  18.050  0.00  0.00    +0.000 A 
ATOM      5  C   UNL     1       2.736   8.290  17.633  0.00  0.00    +0.000 A 
ATOM      6  C   UNL     1       2.906   7.073  18.329  0.00  0.00    +0.000 A 
ENDROOT
BRANCH   6   7
ATOM      7  C   UNL     1       3.827   6.030  17.776  0.00  0.00    +0.000 A 
ATOM      8  C   UNL     1       5.203   6.321  17.650  0.00  0.00    +0.000 A 
ATOM      9  C   UNL     1       6.094   5.411  17.086  0.00  0.00    +0.000 A 
ATOM     10  F   UNL     1       7.371   5.769  16.906  0.00  0.00    +0.000 F 
ATOM     11  C   UNL     1       5.679   4.151  16.698  0.00  0.00    +0.000 A 
ATOM     12  C   UNL     1       4.343   3.803  16.854  0.00  0.00    +0.000 A 
ATOM     13  C   UNL     1       3.420   4.735  17.357  0.00  0.00    +0.000 A 
ATOM     14 CL   UNL     1       1.766   4.211  17.339  0.00  0.00    +0.000 Cl
ENDBRANCH   6   7
BRANCH   3  15
ATOM     15  C   UNL     1      -0.025  10.092  19.453  0.00  0.00    +0.000 A 
ATOM     16  N   UNL     1      -0.109  10.715  20.613  0.00  0.00    +0.000 NA
ATOM     17  C   UNL     1      -1.132  11.644  20.598  0.00  0.00    +0.000 A 
ATOM     18  C   UNL     1      -1.842  11.702  19.417  0.00  0.00    +0.000 A 
ATOM     19  S   UNL     1      -1.217  10.559  18.302  0.00  0.00    +0.000 S 
BRANCH  17  20
ATOM     20  C   UNL     1      -1.371  12.506  21.748  0.00  0.00    +0.000 A 
ATOM     21  C   UNL     1      -0.544  13.598  22.035  0.00  0.00    +0.000 A 
ATOM     22  C   UNL     1      -0.785  14.393  23.159  0.00  0.00    +0.000 A 
ATOM     23  C   UNL     1      -1.859  14.107  24.008  0.00  0.00    +0.000 A 
ATOM     24 CL   UNL     1      -2.079  15.119  25.391  0.00  0.00    +0.000 Cl
ATOM     25  C   UNL     1      -2.701  13.030  23.721  0.00  0.00    +0.000 A 
ATOM     26 CL   UNL     1      -4.049  12.617  24.722  0.00  0.00    +0.000 Cl
ATOM     27  C   UNL     1      -2.461  12.238  22.592  0.00  0.00    +0.000 A 
ENDBRANCH  17  20
ENDBRANCH   3  15
BRANCH   1  29
ATOM     28  O   UNL     1       1.073   5.171  20.743  0.00  0.00    +0.000 OA
ATOM     29  C   UNL     1       2.102   5.704  20.366  0.00  0.00    +0.000 C 
BRANCH  29  30
ATOM     30  O   UNL     1       3.326   5.308  20.766  0.00  0.00    +0.000 OA
ATOM     31  H   UNL     1       3.360   4.463  21.247  0.00  0.00    +0.000 HD
ENDBRANCH  29  30
ENDBRANCH   1  29
TORSDOF 5
ENDMDL
