MODEL 1
REMARK VINA RESULT:      -8.4      0.000      0.000
REMARK  Name = 
REMARK  8 active torsions:
REMARK  status: ('A' for Active; 'I' for Inactive)
REMARK    1  A    between atoms: C_1  and  C_2
REMARK    2  A    between atoms: C_2  and  C_3
REMARK    3  A    between atoms: N_5  and  C_6
REMARK    4  A    between atoms: C_6  and  C_7
REMARK    5  A    between atoms: C_6  and  C_15
REMARK    6  A    between atoms: C_12  and  O_13
REMARK    7  A    between atoms: O_13  and  C_14
REMARK    8  A    between atoms: C_24  and  O_25
REMARK                            x       y       z     vdW  Elec       q    Type
REMARK                         _______ _______ _______ _____ _____    ______ ____
ROOT
ATOM      1  C   UNL     1       3.830   4.863  18.877  0.00  0.00    +0.000 C 
ENDROOT
BRANCH   1   2
ATOM      2  C   UNL     1       3.158   6.233  18.845  0.00  0.00    +0.000 A 
ATOM      3  C   UNL     1       3.393   7.059  17.733  0.00  0.00    +0.000 A 
ATOM      4  C   UNL     1       2.822   8.326  17.634  0.00  0.00    +0.000 A 
ATOM      5  C   UNL     1       1.981   8.795  18.650  0.00  0.00    +0.000 A 
ATOM      6  C   UNL     1       1.357  10.044  18.567  0.00  0.00    +0.000 A 
ATOM      7  C   UNL     1       0.516  10.461  19.592  0.00  0.00    +0.000 A 
ATOM      8  C   UNL     1       0.346   9.623  20.678  0.00  0.00    +0.000 A 
ATOM      9  N   UNL     1       0.945   8.415  20.802  0.00  0.00    +0.000 NA
ATOM     10  C   UNL     1       1.743   8.009  19.790  0.00  0.00    +0.000 A 
ATOM     11  C   UNL     1       2.366   6.756  19.871  0.00  0.00    +0.000 A 
BRANCH  11  12
ATOM     12  O   UNL     1       2.176   6.042  21.033  0.00  0.00    +0.000 OA
ATOM     13  H   UNL     1       1.299   6.340  21.359  0.00  0.00    +0.000 HD
ENDBRANCH  11  12
ENDBRANCH   1   2
BRANCH   1  14
ATOM     14  C   UNL     1       4.935   4.628  17.845  0.00  0.00    +0.000 A 
ATOM     15  C   UNL     1       4.588   4.333  16.502  0.00  0.00    +0.000 A 
ATOM     16  C   UNL     1       5.545   4.218  15.492  0.00  0.00    +0.000 A 
ATOM     17  C   UNL     1       6.888   4.369  15.797  0.00  0.00    +0.000 A 
ATOM     18  C   UNL     1       7.264   4.641  17.110  0.00  0.00    +0.000 A 
ATOM     19  C   UNL     1       6.310   4.769  18.137  0.00  0.00    +0.000 A 
BRANCH  19  20
ATOM     20  O   UNL     1       6.864   5.188  19.319  0.00  0.00    +0.000 OA
ATOM     21  C   UNL     1       8.073   5.934  19.260  0.00  0.00    +0.000 C 
ENDBRANCH  19  20
ENDBRANCH   1  14
BRANCH   1  24
ATOM     22  C   UNL     1       2.926   2.723  19.731  0.00  0.00    +0.000 C 
ATOM     23  O   UNL     1       3.913   2.501  20.427  0.00  0.00    +0.000 OA
ATOM     24  N   UNL     1       2.803   3.822  18.906  0.00  0.00    +0.000 N 
ATOM     25  H   UNL     1       1.875   4.107  18.634  0.00  0.00    +0.000 HD
BRANCH  22  27
ATOM     26  C   UNL     1       0.642   2.335  18.759  0.00  0.00    +0.000 C 
ATOM     27  C   UNL     1       1.739   1.786  19.657  0.00  0.00    +0.000 C 
ENDBRANCH  22  27
ENDBRANCH   1  24
TORSDOF 6
ENDMDL
MODEL 2
REMARK VINA RESULT:      -8.3      1.765      3.852
REMARK  Name = 
REMARK  8 active torsions:
REMARK  status: ('A' for Active; 'I' for Inactive)
REMARK    1  A    between atoms: C_1  and  C_2
REMARK    2  A    between atoms: C_2  and  C_3
REMARK    3  A    between atoms: N_5  and  C_6
REMARK    4  A    between atoms: C_6  and  C_7
REMARK    5  A    between atoms: C_6  and  C_15
REMARK    6  A    between atoms: C_12  and  O_13
REMARK    7  A    between atoms: O_13  and  C_14
REMARK    8  A    between atoms: C_24  and  O_25
REMARK                            x       y       z     vdW  Elec       q    Type
REMARK                         _______ _______ _______ _____ _____    ______ ____
ROOT
ATOM      1  C   UNL     1       3.614   6.285  17.617  0.00  0.00    +0.000 C 
ENDROOT
BRANCH   1   2
ATOM      2  C   UNL     1       2.725   7.331  18.285  0.00  0.00    +0.000 A 
ATOM      3  C   UNL     1       2.283   8.417  17.509  0.00  0.00    +0.000 A 
ATOM      4  C   UNL     1       1.476   9.416  18.049  0.00  0.00    +0.000 A 
ATOM      5  C   UNL     1       1.077   9.344  19.389  0.00  0.00    +0.000 A 
ATOM      6  C   UNL     1       0.234  10.306  19.954  0.00  0.00    +0.000 A 
ATOM      7  C   UNL     1      -0.150  10.185  21.285  0.00  0.00    +0.000 A 
ATOM      8  C   UNL     1       0.341   9.117  22.011  0.00  0.00    +0.000 A 
ATOM      9  N   UNL     1       1.171   8.175  21.503  0.00  0.00    +0.000 NA
ATOM     10  C   UNL     1       1.521   8.289  20.203  0.00  0.00    +0.000 A 
ATOM     11  C   UNL     1       2.363   7.324  19.635  0.00  0.00    +0.000 A 
BRANCH  11  12
ATOM     12  O   UNL     1       2.844   6.345  20.476  0.00  0.00    +0.000 OA
ATOM     13  H   UNL     1       2.864   6.775  21.359  0.00  0.00    +0.000 HD
ENDBRANCH  11  12
ENDBRANCH   1   2
BRANCH   1  14
ATOM     14  C   UNL     1       3.184   4.826  17.786  0.00  0.00    +0.000 A 
ATOM     15  C   UNL     1       1.818   4.520  18.013  0.00  0.00    +0.000 A 
ATOM     16  C   UNL     1       1.346   3.207  18.065  0.00  0.00    +0.000 A 
ATOM     17  C   UNL     1       2.231   2.152  17.917  0.00  0.00    +0.000 A 
ATOM     18  C   UNL     1       3.584   2.417  17.711  0.00  0.00    +0.000 A 
ATOM     19  C   UNL     1       4.072   3.736  17.646  0.00  0.00    +0.000 A 
BRANCH  19  20
ATOM     20  O   UNL     1       5.393   3.789  17.285  0.00  0.00    +0.000 OA
ATOM     21  C   UNL     1       5.717   3.579  15.916  0.00  0.00    +0.000 C 
ENDBRANCH  19  20
ENDBRANCH   1  14
BRANCH   1  24
ATOM     22  C   UNL     1       5.918   6.950  17.010  0.00  0.00    +0.000 C 
ATOM     23  O   UNL     1       5.653   7.048  15.815  0.00  0.00    +0.000 OA
ATOM     24  N   UNL     1       5.010   6.544  17.966  0.00  0.00    +0.000 N 
ATOM     25  H   UNL     1       5.187   6.799  18.925  0.00  0.00    +0.000 HD
BRANCH  22  27
ATOM     26  C   UNL     1       7.685   6.191  18.627  0.00  0.00    +0.000 C 
ATOM     27  C   UNL     1       7.298   7.217  17.575  0.00  0.00    +0.000 C 
ENDBRANCH  22  27
ENDBRANCH   1  24
TORSDOF 6
ENDMDL
MODEL 3
REMARK VINA RESULT:      -7.9      1.707      2.222
REMARK  Name = 
REMARK  8 active torsions:
REMARK  status: ('A' for Active; 'I' for Inactive)
REMARK    1  A    between atoms: C_1  and  C_2
REMARK    2  A    between atoms: C_2  and  C_3
REMARK    3  A    between atoms: N_5  and  C_6
REMARK    4  A    between atoms: C_6  and  C_7
REMARK    5  A    between atoms: C_6  and  C_15
REMARK    6  A    between atoms: C_12  and  O_13
REMARK    7  A    between atoms: O_13  and  C_14
REMARK    8  A    between atoms: C_24  and  O_25
REMARK                            x       y       z     vdW  Elec       q    Type
REMARK                         _______ _______ _______ _____ _____    ______ ____
ROOT
ATOM      1  C   UNL     1       2.989   5.968  18.986  0.00  0.00    +0.000 C 
ENDROOT
BRANCH   1   2
ATOM      2  C   UNL     1       2.297   7.329  19.001  0.00  0.00    +0.000 A 
ATOM      3  C   UNL     1       2.261   8.067  17.805  0.00  0.00    +0.000 A 
ATOM      4  C   UNL     1       1.655   9.320  17.742  0.00  0.00    +0.000 A 
ATOM      5  C   UNL     1       1.053   9.864  18.882  0.00  0.00    +0.000 A 
ATOM      6  C   UNL     1       0.399  11.100  18.846  0.00  0.00    +0.000 A 
ATOM      7  C   UNL     1      -0.201  11.592  19.999  0.00  0.00    +0.000 A 
ATOM      8  C   UNL     1      -0.107  10.842  21.155  0.00  0.00    +0.000 A 
ATOM      9  N   UNL     1       0.530   9.649  21.233  0.00  0.00    +0.000 NA
ATOM     10  C   UNL     1       1.091   9.168  20.102  0.00  0.00    +0.000 A 
ATOM     11  C   UNL     1       1.743   7.928  20.136  0.00  0.00    +0.000 A 
BRANCH  11  12
ATOM     12  O   UNL     1       1.832   7.307  21.362  0.00  0.00    +0.000 OA
ATOM     13  H   UNL     1       1.946   6.357  21.142  0.00  0.00    +0.000 HD
ENDBRANCH  11  12
ENDBRANCH   1   2
BRANCH   1  14
ATOM     14  C   UNL     1       3.982   5.728  17.846  0.00  0.00    +0.000 A 
ATOM     15  C   UNL     1       4.981   6.696  17.573  0.00  0.00    +0.000 A 
ATOM     16  C   UNL     1       5.983   6.487  16.622  0.00  0.00    +0.000 A 
ATOM     17  C   UNL     1       6.003   5.308  15.893  0.00  0.00    +0.000 A 
ATOM     18  C   UNL     1       5.024   4.345  16.124  0.00  0.00    +0.000 A 
ATOM     19  C   UNL     1       4.015   4.538  17.086  0.00  0.00    +0.000 A 
BRANCH  19  20
ATOM     20  O   UNL     1       3.246   3.418  17.272  0.00  0.00    +0.000 OA
ATOM     21  C   UNL     1       3.868   2.270  17.834  0.00  0.00    +0.000 C 
ENDBRANCH  19  20
ENDBRANCH   1  14
BRANCH   1  24
ATOM     22  C   UNL     1       1.825   4.257  20.341  0.00  0.00    +0.000 C 
ATOM     23  O   UNL     1       2.542   4.442  21.321  0.00  0.00    +0.000 OA
ATOM     24  N   UNL     1       1.986   4.916  19.140  0.00  0.00    +0.000 N 
ATOM     25  H   UNL     1       1.194   4.963  18.517  0.00  0.00    +0.000 HD
BRANCH  22  27
ATOM     26  C   UNL     1       0.566   2.584  18.953  0.00  0.00    +0.000 C 
ATOM     27  C   UNL     1       0.704   3.239  20.317  0.00  0.00    +0.000 C 
ENDBRANCH  22  27
ENDBRANCH   1  24
TORSDOF 6
ENDMDL
MODEL 4
REMARK VINA RESULT:      -7.9      1.344      2.057
REMARK  Name = 
REMARK  8 active torsions:
REMARK  status: ('A' for Active; 'I' for Inactive)
REMARK    1  A    between atoms: C_1  and  C_2
REMARK    2  A    between atoms: C_2  and  C_3
REMARK    3  A    between atoms: N_5  and  C_6
REMARK    4  A    between atoms: C_6  and  C_7
REMARK    5  A    between atoms: C_6  and  C_15
REMARK    6  A    between atoms: C_12  and  O_13
REMARK    7  A    between atoms: O_13  and  C_14
REMARK    8  A    between atoms: C_24  and  O_25
REMARK                            x       y       z     vdW  Elec       q    Type
REMARK                         _______ _______ _______ _____ _____    ______ ____
ROOT
ATOM      1  C   UNL     1       3.539   5.476  19.524  0.00  0.00    +0.000 C 
ENDROOT
BRANCH   1   2
ATOM      2  C   UNL     1       2.804   6.781  19.229  0.00  0.00    +0.000 A 
ATOM      3  C   UNL     1       3.014   7.392  17.980  0.00  0.00    +0.000 A 
ATOM      4  C   UNL     1       2.385   8.588  17.641  0.00  0.00    +0.000 A 
ATOM      5  C   UNL     1       1.512   9.200  18.547  0.00  0.00    +0.000 A 
ATOM      6  C   UNL     1       0.831  10.379  18.225  0.00  0.00    +0.000 A 
ATOM      7  C   UNL     1      -0.040  10.942  19.150  0.00  0.00    +0.000 A 
ATOM      8  C   UNL     1      -0.183  10.319  20.376  0.00  0.00    +0.000 A 
ATOM      9  N   UNL     1       0.470   9.186  20.729  0.00  0.00    +0.000 NA
ATOM     10  C   UNL     1       1.297   8.634  19.815  0.00  0.00    +0.000 A 
ATOM     11  C   UNL     1       1.977   7.451  20.135  0.00  0.00    +0.000 A 
BRANCH  11  12
ATOM     12  O   UNL     1       1.807   6.963  21.411  0.00  0.00    +0.000 OA
ATOM     13  H   UNL     1       2.294   6.110  21.410  0.00  0.00    +0.000 HD
ENDBRANCH  11  12
ENDBRANCH   1   2
BRANCH   1  14
ATOM     14  C   UNL     1       4.811   5.218  18.711  0.00  0.00    +0.000 A 
ATOM     15  C   UNL     1       6.048   5.738  19.165  0.00  0.00    +0.000 A 
ATOM     16  C   UNL     1       7.258   5.447  18.531  0.00  0.00    +0.000 A 
ATOM     17  C   UNL     1       7.266   4.642  17.403  0.00  0.00    +0.000 A 
ATOM     18  C   UNL     1       6.064   4.130  16.919  0.00  0.00    +0.000 A 
ATOM     19  C   UNL     1       4.839   4.408  17.554  0.00  0.00    +0.000 A 
BRANCH  19  20
ATOM     20  O   UNL     1       3.798   3.690  17.023  0.00  0.00    +0.000 OA
ATOM     21  C   UNL     1       3.717   2.305  17.335  0.00  0.00    +0.000 C 
ENDBRANCH  19  20
ENDBRANCH   1  14
BRANCH   1  24
ATOM     22  C   UNL     1       2.125   3.810  20.684  0.00  0.00    +0.000 C 
ATOM     23  O   UNL     1       2.532   4.132  21.796  0.00  0.00    +0.000 OA
ATOM     24  N   UNL     1       2.583   4.370  19.509  0.00  0.00    +0.000 N 
ATOM     25  H   UNL     1       1.994   4.303  18.693  0.00  0.00    +0.000 HD
BRANCH  22  27
ATOM     26  C   UNL     1       0.537   2.746  19.053  0.00  0.00    +0.000 C 
ATOM     27  C   UNL     1       1.103   2.714  20.463  0.00  0.00    +0.000 C 
ENDBRANCH  22  27
ENDBRANCH   1  24
TORSDOF 6
ENDMDL
MODEL 5
REMARK VINA RESULT:      -7.8      3.121      5.003
REMARK  Name = 
REMARK  8 active torsions:
REMARK  status: ('A' for Active; 'I' for Inactive)
REMARK    1  A    between atoms: C_1  and  C_2
REMARK    2  A    between atoms: C_2  and  C_3
REMARK    3  A    between atoms: N_5  and  C_6
REMARK    4  A    between atoms: C_6  and  C_7
REMARK    5  A    between atoms: C_6  and  C_15
REMARK    6  A    between atoms: C_12  and  O_13
REMARK    7  A    between atoms: O_13  and  C_14
REMARK    8  A    between atoms: C_24  and  O_25
REMARK                            x       y       z     vdW  Elec       q    Type
REMARK                         _______ _______ _______ _____ _____    ______ ____
ROOT
ATOM      1  C   UNL     1       5.630   4.571  17.022  0.00  0.00    +0.000 C 
ENDROOT
BRANCH   1   2
ATOM      2  C   UNL     1       4.407   4.343  17.907  0.00  0.00    +0.000 A 
ATOM      3  C   UNL     1       3.205   4.978  17.550  0.00  0.00    +0.000 A 
ATOM      4  C   UNL     1       2.048   4.824  18.311  0.00  0.00    +0.000 A 
ATOM      5  C   UNL     1       2.063   4.013  19.451  0.00  0.00    +0.000 A 
ATOM      6  C   UNL     1       0.911   3.802  20.215  0.00  0.00    +0.000 A 
ATOM      7  C   UNL     1       0.969   2.973  21.330  0.00  0.00    +0.000 A 
ATOM      8  C   UNL     1       2.185   2.401  21.655  0.00  0.00    +0.000 A 
ATOM      9  N   UNL     1       3.324   2.593  20.949  0.00  0.00    +0.000 NA
ATOM     10  C   UNL     1       3.252   3.383  19.854  0.00  0.00    +0.000 A 
ATOM     11  C   UNL     1       4.405   3.591  19.085  0.00  0.00    +0.000 A 
BRANCH  11  12
ATOM     12  O   UNL     1       5.572   3.025  19.548  0.00  0.00    +0.000 OA
ATOM     13  H   UNL     1       5.661   2.197  19.028  0.00  0.00    +0.000 HD
ENDBRANCH  11  12
ENDBRANCH   1   2
BRANCH   1  14
ATOM     14  C   UNL     1       6.437   5.842  17.300  0.00  0.00    +0.000 A 
ATOM     15  C   UNL     1       6.038   7.068  16.712  0.00  0.00    +0.000 A 
ATOM     16  C   UNL     1       6.664   8.279  17.013  0.00  0.00    +0.000 A 
ATOM     17  C   UNL     1       7.731   8.301  17.897  0.00  0.00    +0.000 A 
ATOM     18  C   UNL     1       8.161   7.110  18.479  0.00  0.00    +0.000 A 
ATOM     19  C   UNL     1       7.533   5.883  18.192  0.00  0.00    +0.000 A 
BRANCH  19  20
ATOM     20  O   UNL     1       7.998   4.859  18.976  0.00  0.00    +0.000 OA
ATOM     21  C   UNL     1       8.414   5.172  20.300  0.00  0.00    +0.000 C 
ENDBRANCH  19  20
ENDBRANCH   1  14
BRANCH   1  24
ATOM     22  C   UNL     1       6.211   4.261  14.637  0.00  0.00    +0.000 C 
ATOM     23  O   UNL     1       7.417   4.356  14.844  0.00  0.00    +0.000 OA
ATOM     24  N   UNL     1       5.252   4.394  15.621  0.00  0.00    +0.000 N 
ATOM     25  H   UNL     1       4.345   3.989  15.454  0.00  0.00    +0.000 HD
BRANCH  22  27
ATOM     26  C   UNL     1       6.674   3.562  12.269  0.00  0.00    +0.000 C 
ATOM     27  C   UNL     1       5.623   4.036  13.259  0.00  0.00    +0.000 C 
ENDBRANCH  22  27
ENDBRANCH   1  24
TORSDOF 6
ENDMDL
MODEL 6
REMARK VINA RESULT:      -7.8      2.098      4.134
REMARK  Name = 
REMARK  8 active torsions:
REMARK  status: ('A' for Active; 'I' for Inactive)
REMARK    1  A    between atoms: C_1  and  C_2
REMARK    2  A    between atoms: C_2  and  C_3
REMARK    3  A    between atoms: N_5  and  C_6
REMARK    4  A    between atoms: C_6  and  C_7
REMARK    5  A    between atoms: C_6  and  C_15
REMARK    6  A    between atoms: C_12  and  O_13
REMARK    7  A    between atoms: O_13  and  C_14
REMARK    8  A    between atoms: C_24  and  O_25
REMARK                            x       y       z     vdW  Elec       q    Type
REMARK                         _______ _______ _______ _____ _____    ______ ____
ROOT
ATOM      1  C   UNL     1       3.431   6.234  17.890  0.00  0.00    +0.000 C 
ENDROOT
BRANCH   1   2
ATOM      2  C   UNL     1       2.611   7.183  18.761  0.00  0.00    +0.000 A 
ATOM      3  C   UNL     1       2.264   6.758  20.055  0.00  0.00    +0.000 A 
ATOM      4  C   UNL     1       1.511   7.564  20.907  0.00  0.00    +0.000 A 
ATOM      5  C   UNL     1       1.095   8.832  20.484  0.00  0.00    +0.000 A 
ATOM      6  C   UNL     1       0.374   9.685  21.326  0.00  0.00    +0.000 A 
ATOM      7  C   UNL     1      -0.002  10.942  20.869  0.00  0.00    +0.000 A 
ATOM      8  C   UNL     1       0.335  11.295  19.576  0.00  0.00    +0.000 A 
ATOM      9  N   UNL     1       1.019  10.492  18.727  0.00  0.00    +0.000 NA
ATOM     10  C   UNL     1       1.400   9.280  19.188  0.00  0.00    +0.000 A 
ATOM     11  C   UNL     1       2.126   8.426  18.347  0.00  0.00    +0.000 A 
BRANCH  11  12
ATOM     12  O   UNL     1       2.342   8.861  17.058  0.00  0.00    +0.000 OA
ATOM     13  H   UNL     1       3.160   9.401  17.119  0.00  0.00    +0.000 HD
ENDBRANCH  11  12
ENDBRANCH   1   2
BRANCH   1  14
ATOM     14  C   UNL     1       3.079   4.748  17.993  0.00  0.00    +0.000 A 
ATOM     15  C   UNL     1       1.740   4.362  18.252  0.00  0.00    +0.000 A 
ATOM     16  C   UNL     1       1.335   3.025  18.249  0.00  0.00    +0.000 A 
ATOM     17  C   UNL     1       2.264   2.026  18.008  0.00  0.00    +0.000 A 
ATOM     18  C   UNL     1       3.592   2.371  17.768  0.00  0.00    +0.000 A 
ATOM     19  C   UNL     1       4.013   3.714  17.759  0.00  0.00    +0.000 A 
BRANCH  19  20
ATOM     20  O   UNL     1       5.315   3.853  17.353  0.00  0.00    +0.000 OA
ATOM     21  C   UNL     1       5.614   3.607  15.984  0.00  0.00    +0.000 C 
ENDBRANCH  19  20
ENDBRANCH   1  14
BRANCH   1  24
ATOM     22  C   UNL     1       5.621   6.971  17.005  0.00  0.00    +0.000 C 
ATOM     23  O   UNL     1       5.203   7.074  15.855  0.00  0.00    +0.000 OA
ATOM     24  N   UNL     1       4.853   6.528  18.062  0.00  0.00    +0.000 N 
ATOM     25  H   UNL     1       5.144   6.777  18.995  0.00  0.00    +0.000 HD
BRANCH  22  27
ATOM     26  C   UNL     1       7.574   6.287  18.429  0.00  0.00    +0.000 C 
ATOM     27  C   UNL     1       7.054   7.270  17.394  0.00  0.00    +0.000 C 
ENDBRANCH  22  27
ENDBRANCH   1  24
TORSDOF 6
ENDMDL
MODEL 7
REMARK VINA RESULT:      -7.7      0.968      1.860
REMARK  Name = 
REMARK  8 active torsions:
REMARK  status: ('A' for Active; 'I' for Inactive)
REMARK    1  A    between atoms: C_1  and  C_2
REMARK    2  A    between atoms: C_2  and  C_3
REMARK    3  A    between atoms: N_5  and  C_6
REMARK    4  A    between atoms: C_6  and  C_7
REMARK    5  A    between atoms: C_6  and  C_15
REMARK    6  A    between atoms: C_12  and  O_13
REMARK    7  A    between atoms: O_13  and  C_14
REMARK    8  A    between atoms: C_24  and  O_25
REMARK                            x       y       z     vdW  Elec       q    Type
REMARK                         _______ _______ _______ _____ _____    ______ ____
ROOT
ATOM      1  C   UNL     1       3.835   5.168  19.111  0.00  0.00    +0.000 C 
ENDROOT
BRANCH   1   2
ATOM      2  C   UNL     1       3.084   6.490  18.966  0.00  0.00    +0.000 A 
ATOM      3  C   UNL     1       3.296   7.247  17.801  0.00  0.00    +0.000 A 
ATOM      4  C   UNL     1       2.653   8.466  17.599  0.00  0.00    +0.000 A 
ATOM      5  C   UNL     1       1.764   8.956  18.563  0.00  0.00    +0.000 A 
ATOM      6  C   UNL     1       1.070  10.155  18.377  0.00  0.00    +0.000 A 
ATOM      7  C   UNL     1       0.183  10.593  19.353  0.00  0.00    +0.000 A 
ATOM      8  C   UNL     1       0.038   9.828  20.495  0.00  0.00    +0.000 A 
ATOM      9  N   UNL     1       0.704   8.669  20.718  0.00  0.00    +0.000 NA
ATOM     10  C   UNL     1       1.547   8.240  19.753  0.00  0.00    +0.000 A 
ATOM     11  C   UNL     1       2.240   7.037  19.936  0.00  0.00    +0.000 A 
BRANCH  11  12
ATOM     12  O   UNL     1       2.066   6.398  21.144  0.00  0.00    +0.000 OA
ATOM     13  H   UNL     1       2.682   5.634  21.103  0.00  0.00    +0.000 HD
ENDBRANCH  11  12
ENDBRANCH   1   2
BRANCH   1  14
ATOM     14  C   UNL     1       5.273   5.147  18.587  0.00  0.00    +0.000 A 
ATOM     15  C   UNL     1       6.338   5.499  19.453  0.00  0.00    +0.000 A 
ATOM     16  C   UNL     1       7.678   5.394  19.071  0.00  0.00    +0.000 A 
ATOM     17  C   UNL     1       7.996   4.955  17.796  0.00  0.00    +0.000 A 
ATOM     18  C   UNL     1       6.971   4.620  16.913  0.00  0.00    +0.000 A 
ATOM     19  C   UNL     1       5.618   4.711  17.288  0.00  0.00    +0.000 A 
BRANCH  19  20
ATOM     20  O   UNL     1       4.774   4.192  16.341  0.00  0.00    +0.000 OA
ATOM     21  C   UNL     1       5.227   4.159  14.993  0.00  0.00    +0.000 C 
ENDBRANCH  19  20
ENDBRANCH   1  14
BRANCH   1  24
ATOM     22  C   UNL     1       2.969   2.854  19.241  0.00  0.00    +0.000 C 
ATOM     23  O   UNL     1       3.682   2.565  20.198  0.00  0.00    +0.000 OA
ATOM     24  N   UNL     1       2.997   4.080  18.608  0.00  0.00    +0.000 N 
ATOM     25  H   UNL     1       2.188   4.354  18.073  0.00  0.00    +0.000 HD
BRANCH  22  27
ATOM     26  C   UNL     1       0.558   2.302  18.800  0.00  0.00    +0.000 C 
ATOM     27  C   UNL     1       2.004   1.876  18.603  0.00  0.00    +0.000 C 
ENDBRANCH  22  27
ENDBRANCH   1  24
TORSDOF 6
ENDMDL
MODEL 8
REMARK VINA RESULT:      -7.6      1.507      3.871
REMARK  Name = 
REMARK  8 active torsions:
REMARK  status: ('A' for Active; 'I' for Inactive)
REMARK    1  A    between atoms: C_1  and  C_2
REMARK    2  A    between atoms: C_2  and  C_3
REMARK    3  A    between atoms: N_5  and  C_6
REMARK    4  A    between atoms: C_6  and  C_7
REMARK    5  A    between atoms: C_6  and  C_15
REMARK    6  A    between atoms: C_12  and  O_13
REMARK    7  A    between atoms: O_13  and  C_14
REMARK    8  A    between atoms: C_24  and  O_25
REMARK                            x       y       z     vdW  Elec       q    Type
REMARK                         _______ _______ _______ _____ _____    ______ ____
ROOT
ATOM      1  C   UNL     1       3.426   5.666  18.208  0.00  0.00    +0.000 C 
ENDROOT
BRANCH   1   2
ATOM      2  C   UNL     1       2.716   6.964  18.585  0.00  0.00    +0.000 A 
ATOM      3  C   UNL     1       2.639   7.981  17.617  0.00  0.00    +0.000 A 
ATOM      4  C   UNL     1       2.014   9.197  17.889  0.00  0.00    +0.000 A 
ATOM      5  C   UNL     1       1.433   9.421  19.142  0.00  0.00    +0.000 A 
ATOM      6  C   UNL     1       0.762  10.611  19.436  0.00  0.00    +0.000 A 
ATOM      7  C   UNL     1       0.185  10.782  20.689  0.00  0.00    +0.000 A 
ATOM      8  C   UNL     1       0.320   9.764  21.614  0.00  0.00    +0.000 A 
ATOM      9  N   UNL     1       0.975   8.604  21.372  0.00  0.00    +0.000 NA
ATOM     10  C   UNL     1       1.513   8.438  20.143  0.00  0.00    +0.000 A 
ATOM     11  C   UNL     1       2.183   7.244  19.846  0.00  0.00    +0.000 A 
BRANCH  11  12
ATOM     12  O   UNL     1       2.312   6.333  20.871  0.00  0.00    +0.000 OA
ATOM     13  H   UNL     1       3.256   6.063  20.836  0.00  0.00    +0.000 HD
ENDBRANCH  11  12
ENDBRANCH   1   2
BRANCH   1  14
ATOM     14  C   UNL     1       2.674   4.370  18.520  0.00  0.00    +0.000 A 
ATOM     15  C   UNL     1       1.371   4.174  17.998  0.00  0.00    +0.000 A 
ATOM     16  C   UNL     1       0.677   2.971  18.154  0.00  0.00    +0.000 A 
ATOM     17  C   UNL     1       1.258   1.930  18.860  0.00  0.00    +0.000 A 
ATOM     18  C   UNL     1       2.530   2.097  19.402  0.00  0.00    +0.000 A 
ATOM     19  C   UNL     1       3.244   3.300  19.245  0.00  0.00    +0.000 A 
BRANCH  19  20
ATOM     20  O   UNL     1       4.530   3.212  19.713  0.00  0.00    +0.000 OA
ATOM     21  C   UNL     1       4.899   2.039  20.428  0.00  0.00    +0.000 C 
ENDBRANCH  19  20
ENDBRANCH   1  14
BRANCH   1  24
ATOM     22  C   UNL     1       5.869   5.823  17.855  0.00  0.00    +0.000 C 
ATOM     23  O   UNL     1       5.765   5.831  16.632  0.00  0.00    +0.000 OA
ATOM     24  N   UNL     1       4.797   5.702  18.714  0.00  0.00    +0.000 N 
ATOM     25  H   UNL     1       4.911   6.027  19.662  0.00  0.00    +0.000 HD
BRANCH  22  27
ATOM     26  C   UNL     1       7.944   7.183  18.256  0.00  0.00    +0.000 C 
ATOM     27  C   UNL     1       7.202   5.894  18.571  0.00  0.00    +0.000 C 
ENDBRANCH  22  27
ENDBRANCH   1  24
TORSDOF 6
ENDMDL
MODEL 9
REMARK VINA RESULT:      -7.5      1.291      2.147
REMARK  Name = 
REMARK  8 active torsions:
REMARK  status: ('A' for Active; 'I' for Inactive)
REMARK    1  A    between atoms: C_1  and  C_2
REMARK    2  A    between atoms: C_2  and  C_3
REMARK    3  A    between atoms: N_5  and  C_6
REMARK    4  A    between atoms: C_6  and  C_7
REMARK    5  A    between atoms: C_6  and  C_15
REMARK    6  A    between atoms: C_12  and  O_13
REMARK    7  A    between atoms: O_13  and  C_14
REMARK    8  A    between atoms: C_24  and  O_25
REMARK                            x       y       z     vdW  Elec       q    Type
REMARK                         _______ _______ _______ _____ _____    ______ ____
ROOT
ATOM      1  C   UNL     1       3.753   5.655  19.284  0.00  0.00    +0.000 C 
ENDROOT
BRANCH   1   2
ATOM      2  C   UNL     1       2.902   6.909  19.101  0.00  0.00    +0.000 A 
ATOM      3  C   UNL     1       3.046   7.638  17.908  0.00  0.00    +0.000 A 
ATOM      4  C   UNL     1       2.310   8.798  17.671  0.00  0.00    +0.000 A 
ATOM      5  C   UNL     1       1.394   9.252  18.626  0.00  0.00    +0.000 A 
ATOM      6  C   UNL     1       0.608  10.387  18.405  0.00  0.00    +0.000 A 
ATOM      7  C   UNL     1      -0.302  10.791  19.375  0.00  0.00    +0.000 A 
ATOM      8  C   UNL     1      -0.379  10.058  20.544  0.00  0.00    +0.000 A 
ATOM      9  N   UNL     1       0.375   8.962  20.800  0.00  0.00    +0.000 NA
ATOM     10  C   UNL     1       1.241   8.565  19.842  0.00  0.00    +0.000 A 
ATOM     11  C   UNL     1       2.026   7.425  20.061  0.00  0.00    +0.000 A 
BRANCH  11  12
ATOM     12  O   UNL     1       1.911   6.818  21.292  0.00  0.00    +0.000 OA
ATOM     13  H   UNL     1       2.797   6.931  21.700  0.00  0.00    +0.000 HD
ENDBRANCH  11  12
ENDBRANCH   1   2
BRANCH   1  14
ATOM     14  C   UNL     1       4.546   5.192  18.060  0.00  0.00    +0.000 A 
ATOM     15  C   UNL     1       5.911   5.550  17.934  0.00  0.00    +0.000 A 
ATOM     16  C   UNL     1       6.717   5.069  16.899  0.00  0.00    +0.000 A 
ATOM     17  C   UNL     1       6.175   4.230  15.939  0.00  0.00    +0.000 A 
ATOM     18  C   UNL     1       4.831   3.873  16.024  0.00  0.00    +0.000 A 
ATOM     19  C   UNL     1       4.010   4.343  17.066  0.00  0.00    +0.000 A 
BRANCH  19  20
ATOM     20  O   UNL     1       2.769   3.759  17.060  0.00  0.00    +0.000 OA
ATOM     21  C   UNL     1       2.695   2.352  17.257  0.00  0.00    +0.000 C 
ENDBRANCH  19  20
ENDBRANCH   1  14
BRANCH   1  24
ATOM     22  C   UNL     1       3.524   3.463  20.409  0.00  0.00    +0.000 C 
ATOM     23  O   UNL     1       4.719   3.205  20.307  0.00  0.00    +0.000 OA
ATOM     24  N   UNL     1       2.942   4.609  19.905  0.00  0.00    +0.000 N 
ATOM     25  H   UNL     1       2.063   4.904  20.300  0.00  0.00    +0.000 HD
BRANCH  22  27
ATOM     26  C   UNL     1       1.112   3.075  20.997  0.00  0.00    +0.000 C 
ATOM     27  C   UNL     1       2.527   2.524  21.058  0.00  0.00    +0.000 C 
ENDBRANCH  22  27
ENDBRANCH   1  24
TORSDOF 6
ENDMDL
