MODEL 1
REMARK VINA RESULT:      -7.8      0.000      0.000
REMARK  Name = 
REMARK  7 active torsions:
REMARK  status: ('A' for Active; 'I' for Inactive)
REMARK    1  A    between atoms: C_2  and  C_3
REMARK    2  A    between atoms: C_3  and  C_4
REMARK    3  A    between atoms: N_9  and  C_10
REMARK    4  A    between atoms: C_10  and  C_11
REMARK    5  A    between atoms: C_11  and  S_12
REMARK    6  A    between atoms: S_12  and  N_15
REMARK    7  A    between atoms: N_18  and  C_19
REMARK                            x       y       z     vdW  Elec       q    Type
REMARK                         _______ _______ _______ _____ _____    ______ ____
ROOT
ATOM      1  S   UNL     1       6.846   6.111  16.465  0.00  0.00    +0.000 S 
ATOM      2  O   UNL     1       5.587   6.812  16.318  0.00  0.00    +0.000 OA
ATOM      3  O   UNL     1       7.730   5.976  15.329  0.00  0.00    +0.000 OA
ENDROOT
BRANCH   1   4
ATOM      4  N   UNL     1       6.541   4.541  17.044  0.00  0.00    +0.000 NA
ATOM      5  C   UNL     1       6.618   4.299  18.527  0.00  0.00    +0.000 C 
ATOM      6  C   UNL     1       5.451   4.955  19.280  0.00  0.00    +0.000 C 
ATOM      7  N   UNL     1       4.172   4.502  18.714  0.00  0.00    +0.000 N 
ATOM      8  C   UNL     1       4.013   4.602  17.252  0.00  0.00    +0.000 C 
ATOM      9  C   UNL     1       5.233   3.969  16.542  0.00  0.00    +0.000 C 
BRANCH   7  10
ATOM     10  C   UNL     1       3.148   4.044  19.516  0.00  0.00    +0.000 A 
ATOM     11  C   UNL     1       1.815   4.430  19.313  0.00  0.00    +0.000 A 
ATOM     12  C   UNL     1       0.780   3.932  20.111  0.00  0.00    +0.000 A 
ATOM     13  C   UNL     1       1.059   3.031  21.134  0.00  0.00    +0.000 A 
ATOM     14  C   UNL     1       2.372   2.634  21.358  0.00  0.00    +0.000 A 
ATOM     15  C   UNL     1       3.396   3.136  20.555  0.00  0.00    +0.000 A 
ENDBRANCH   7  10
ENDBRANCH   1   4
BRANCH   1  16
ATOM     16  C   UNL     1       7.738   6.911  17.782  0.00  0.00    +0.000 C 
BRANCH  16  17
ATOM     17  C   UNL     1       7.671   8.415  17.660  0.00  0.00    +0.000 C 
BRANCH  17  20
ATOM     18  O   UNL     1       8.318  11.174  17.573  0.00  0.00    +0.000 OA
ATOM     19  C   UNL     1       8.884  10.457  18.395  0.00  0.00    +0.000 C 
ATOM     20  N   UNL     1       8.668   9.096  18.472  0.00  0.00    +0.000 N 
ATOM     21  H   UNL     1       9.176   8.556  19.163  0.00  0.00    +0.000 HD
BRANCH  19  22
ATOM     22  C   UNL     1       9.850  10.999  19.434  0.00  0.00    +0.000 C 
BRANCH  22  23
ATOM     23  C   UNL     1      10.658  12.133  18.882  0.00  0.00    +0.000 A 
ATOM     24  C   UNL     1      11.720  12.075  18.000  0.00  0.00    +0.000 A 
ATOM     25  C   UNL     1      12.206  13.366  17.647  0.00  0.00    +0.000 A 
ATOM     26  C   UNL     1      11.503  14.370  18.275  0.00  0.00    +0.000 A 
ATOM     27  S   UNL     1      10.267  13.753  19.283  0.00  0.00    +0.000 S 
ENDBRANCH  22  23
ENDBRANCH  19  22
ENDBRANCH  17  20
ENDBRANCH  16  17
ENDBRANCH   1  16
TORSDOF 7
ENDMDL
MODEL 2
REMARK VINA RESULT:      -7.7      1.093      1.598
REMARK  Name = 
REMARK  7 active torsions:
REMARK  status: ('A' for Active; 'I' for Inactive)
REMARK    1  A    between atoms: C_2  and  C_3
REMARK    2  A    between atoms: C_3  and  C_4
REMARK    3  A    between atoms: N_9  and  C_10
REMARK    4  A    between atoms: C_10  and  C_11
REMARK    5  A    between atoms: C_11  and  S_12
REMARK    6  A    between atoms: S_12  and  N_15
REMARK    7  A    between atoms: N_18  and  C_19
REMARK                            x       y       z     vdW  Elec       q    Type
REMARK                         _______ _______ _______ _____ _____    ______ ____
ROOT
ATOM      1  S   UNL     1       6.445   5.972  16.086  0.00  0.00    +0.000 S 
ATOM      2  O   UNL     1       5.244   6.179  15.303  0.00  0.00    +0.000 OA
ATOM      3  O   UNL     1       7.739   6.033  15.445  0.00  0.00    +0.000 OA
ENDROOT
BRANCH   1   4
ATOM      4  N   UNL     1       6.347   4.461  16.860  0.00  0.00    +0.000 NA
ATOM      5  C   UNL     1       6.487   4.414  18.357  0.00  0.00    +0.000 C 
ATOM      6  C   UNL     1       5.268   5.017  19.071  0.00  0.00    +0.000 C 
ATOM      7  N   UNL     1       4.040   4.350  18.611  0.00  0.00    +0.000 N 
ATOM      8  C   UNL     1       3.836   4.249  17.155  0.00  0.00    +0.000 C 
ATOM      9  C   UNL     1       5.107   3.681  16.481  0.00  0.00    +0.000 C 
BRANCH   7  10
ATOM     10  C   UNL     1       3.099   3.877  19.502  0.00  0.00    +0.000 A 
ATOM     11  C   UNL     1       3.430   2.974  20.523  0.00  0.00    +0.000 A 
ATOM     12  C   UNL     1       2.475   2.528  21.442  0.00  0.00    +0.000 A 
ATOM     13  C   UNL     1       1.162   2.980  21.360  0.00  0.00    +0.000 A 
ATOM     14  C   UNL     1       0.807   3.874  20.356  0.00  0.00    +0.000 A 
ATOM     15  C   UNL     1       1.768   4.313  19.445  0.00  0.00    +0.000 A 
ENDBRANCH   7  10
ENDBRANCH   1   4
BRANCH   1  16
ATOM     16  C   UNL     1       6.416   7.160  17.411  0.00  0.00    +0.000 C 
BRANCH  16  17
ATOM     17  C   UNL     1       7.800   7.690  17.708  0.00  0.00    +0.000 C 
BRANCH  17  20
ATOM     18  O   UNL     1       9.242   9.480  19.367  0.00  0.00    +0.000 OA
ATOM     19  C   UNL     1       8.672   9.921  18.373  0.00  0.00    +0.000 C 
ATOM     20  N   UNL     1       7.905   9.131  17.540  0.00  0.00    +0.000 N 
ATOM     21  H   UNL     1       7.448   9.557  16.743  0.00  0.00    +0.000 HD
BRANCH  19  22
ATOM     22  C   UNL     1       8.779  11.371  17.937  0.00  0.00    +0.000 C 
BRANCH  22  23
ATOM     23  C   UNL     1       9.892  12.071  18.654  0.00  0.00    +0.000 A 
ATOM     24  C   UNL     1       9.823  12.826  19.809  0.00  0.00    +0.000 A 
ATOM     25  C   UNL     1      11.101  13.287  20.235  0.00  0.00    +0.000 A 
ATOM     26  C   UNL     1      12.106  12.875  19.390  0.00  0.00    +0.000 A 
ATOM     27  S   UNL     1      11.506  11.938  18.091  0.00  0.00    +0.000 S 
ENDBRANCH  22  23
ENDBRANCH  19  22
ENDBRANCH  17  20
ENDBRANCH  16  17
ENDBRANCH   1  16
TORSDOF 7
ENDMDL
MODEL 3
REMARK VINA RESULT:      -7.7      0.951      1.151
REMARK  Name = 
REMARK  7 active torsions:
REMARK  status: ('A' for Active; 'I' for Inactive)
REMARK    1  A    between atoms: C_2  and  C_3
REMARK    2  A    between atoms: C_3  and  C_4
REMARK    3  A    between atoms: N_9  and  C_10
REMARK    4  A    between atoms: C_10  and  C_11
REMARK    5  A    between atoms: C_11  and  S_12
REMARK    6  A    between atoms: S_12  and  N_15
REMARK    7  A    between atoms: N_18  and  C_19
REMARK                            x       y       z     vdW  Elec       q    Type
REMARK                         _______ _______ _______ _____ _____    ______ ____
ROOT
ATOM      1  S   UNL     1       7.061   6.519  17.050  0.00  0.00    +0.000 S 
ATOM      2  O   UNL     1       5.779   7.187  16.957  0.00  0.00    +0.000 OA
ATOM      3  O   UNL     1       7.830   6.270  15.852  0.00  0.00    +0.000 OA
ENDROOT
BRANCH   1   4
ATOM      4  N   UNL     1       6.848   5.018  17.823  0.00  0.00    +0.000 NA
ATOM      5  C   UNL     1       6.327   5.008  19.234  0.00  0.00    +0.000 C 
ATOM      6  C   UNL     1       4.848   5.413  19.306  0.00  0.00    +0.000 C 
ATOM      7  N   UNL     1       4.049   4.554  18.418  0.00  0.00    +0.000 N 
ATOM      8  C   UNL     1       4.517   4.409  17.028  0.00  0.00    +0.000 C 
ATOM      9  C   UNL     1       6.020   4.047  17.009  0.00  0.00    +0.000 C 
BRANCH   7  10
ATOM     10  C   UNL     1       2.891   3.945  18.853  0.00  0.00    +0.000 A 
ATOM     11  C   UNL     1       2.580   2.618  18.521  0.00  0.00    +0.000 A 
ATOM     12  C   UNL     1       1.420   1.998  18.996  0.00  0.00    +0.000 A 
ATOM     13  C   UNL     1       0.542   2.696  19.819  0.00  0.00    +0.000 A 
ATOM     14  C   UNL     1       0.826   4.013  20.162  0.00  0.00    +0.000 A 
ATOM     15  C   UNL     1       1.987   4.621  19.683  0.00  0.00    +0.000 A 
ENDBRANCH   7  10
ENDBRANCH   1   4
BRANCH   1  16
ATOM     16  C   UNL     1       8.062   7.466  18.177  0.00  0.00    +0.000 C 
BRANCH  16  17
ATOM     17  C   UNL     1       7.941   8.948  17.911  0.00  0.00    +0.000 C 
BRANCH  17  20
ATOM     18  O   UNL     1       8.426  11.724  17.593  0.00  0.00    +0.000 OA
ATOM     19  C   UNL     1       9.089  11.096  18.415  0.00  0.00    +0.000 C 
ATOM     20  N   UNL     1       8.955   9.734  18.597  0.00  0.00    +0.000 N 
ATOM     21  H   UNL     1       9.542   9.270  19.281  0.00  0.00    +0.000 HD
BRANCH  19  22
ATOM     22  C   UNL     1      10.097  11.756  19.338  0.00  0.00    +0.000 C 
BRANCH  22  23
ATOM     23  C   UNL     1      10.888  12.803  18.616  0.00  0.00    +0.000 A 
ATOM     24  C   UNL     1      11.830  12.627  17.622  0.00  0.00    +0.000 A 
ATOM     25  C   UNL     1      12.333  13.863  17.123  0.00  0.00    +0.000 A 
ATOM     26  C   UNL     1      11.763  14.944  17.756  0.00  0.00    +0.000 A 
ATOM     27  S   UNL     1      10.628  14.466  18.943  0.00  0.00    +0.000 S 
ENDBRANCH  22  23
ENDBRANCH  19  22
ENDBRANCH  17  20
ENDBRANCH  16  17
ENDBRANCH   1  16
TORSDOF 7
ENDMDL
MODEL 4
REMARK VINA RESULT:      -7.6      1.437      2.085
REMARK  Name = 
REMARK  7 active torsions:
REMARK  status: ('A' for Active; 'I' for Inactive)
REMARK    1  A    between atoms: C_2  and  C_3
REMARK    2  A    between atoms: C_3  and  C_4
REMARK    3  A    between atoms: N_9  and  C_10
REMARK    4  A    between atoms: C_10  and  C_11
REMARK    5  A    between atoms: C_11  and  S_12
REMARK    6  A    between atoms: S_12  and  N_15
REMARK    7  A    between atoms: N_18  and  C_19
REMARK                            x       y       z     vdW  Elec       q    Type
REMARK                         _______ _______ _______ _____ _____    ______ ____
ROOT
ATOM      1  S   UNL     1       6.926   6.369  16.819  0.00  0.00    +0.000 S 
ATOM      2  O   UNL     1       5.649   7.043  16.705  0.00  0.00    +0.000 OA
ATOM      3  O   UNL     1       7.767   6.221  15.653  0.00  0.00    +0.000 OA
ENDROOT
BRANCH   1   4
ATOM      4  N   UNL     1       6.675   4.809  17.449  0.00  0.00    +0.000 NA
ATOM      5  C   UNL     1       6.372   4.671  18.916  0.00  0.00    +0.000 C 
ATOM      6  C   UNL     1       4.970   5.191  19.268  0.00  0.00    +0.000 C 
ATOM      7  N   UNL     1       3.963   4.520  18.432  0.00  0.00    +0.000 N 
ATOM      8  C   UNL     1       4.200   4.507  16.977  0.00  0.00    +0.000 C 
ATOM      9  C   UNL     1       5.638   4.020  16.679  0.00  0.00    +0.000 C 
BRANCH   7  10
ATOM     10  C   UNL     1       2.825   3.965  18.978  0.00  0.00    +0.000 A 
ATOM     11  C   UNL     1       2.432   4.225  20.299  0.00  0.00    +0.000 A 
ATOM     12  C   UNL     1       1.258   3.684  20.832  0.00  0.00    +0.000 A 
ATOM     13  C   UNL     1       0.446   2.869  20.050  0.00  0.00    +0.000 A 
ATOM     14  C   UNL     1       0.814   2.595  18.738  0.00  0.00    +0.000 A 
ATOM     15  C   UNL     1       1.987   3.140  18.216  0.00  0.00    +0.000 A 
ENDBRANCH   7  10
ENDBRANCH   1   4
BRANCH   1  16
ATOM     16  C   UNL     1       7.853   7.219  18.079  0.00  0.00    +0.000 C 
BRANCH  16  17
ATOM     17  C   UNL     1       7.899   8.707  17.822  0.00  0.00    +0.000 C 
BRANCH  17  20
ATOM     18  O   UNL     1       8.541  11.466  17.712  0.00  0.00    +0.000 OA
ATOM     19  C   UNL     1       9.170  10.741  18.479  0.00  0.00    +0.000 C 
ATOM     20  N   UNL     1       8.959   9.379  18.558  0.00  0.00    +0.000 N 
ATOM     21  H   UNL     1       9.520   8.832  19.200  0.00  0.00    +0.000 HD
BRANCH  19  22
ATOM     22  C   UNL     1      10.217  11.271  19.442  0.00  0.00    +0.000 C 
BRANCH  22  23
ATOM     23  C   UNL     1       9.583  12.018  20.574  0.00  0.00    +0.000 A 
ATOM     24  C   UNL     1       8.873  11.507  21.643  0.00  0.00    +0.000 A 
ATOM     25  C   UNL     1       8.471  12.517  22.563  0.00  0.00    +0.000 A 
ATOM     26  C   UNL     1       8.884  13.769  22.166  0.00  0.00    +0.000 A 
ATOM     27  S   UNL     1       9.749  13.720  20.691  0.00  0.00    +0.000 S 
ENDBRANCH  22  23
ENDBRANCH  19  22
ENDBRANCH  17  20
ENDBRANCH  16  17
ENDBRANCH   1  16
TORSDOF 7
ENDMDL
MODEL 5
REMARK VINA RESULT:      -7.5      1.743      2.307
REMARK  Name = 
REMARK  7 active torsions:
REMARK  status: ('A' for Active; 'I' for Inactive)
REMARK    1  A    between atoms: C_2  and  C_3
REMARK    2  A    between atoms: C_3  and  C_4
REMARK    3  A    between atoms: N_9  and  C_10
REMARK    4  A    between atoms: C_10  and  C_11
REMARK    5  A    between atoms: C_11  and  S_12
REMARK    6  A    between atoms: S_12  and  N_15
REMARK    7  A    between atoms: N_18  and  C_19
REMARK                            x       y       z     vdW  Elec       q    Type
REMARK                         _______ _______ _______ _____ _____    ______ ____
ROOT
ATOM      1  S   UNL     1       6.904   6.098  16.814  0.00  0.00    +0.000 S 
ATOM      2  O   UNL     1       7.713   6.026  15.615  0.00  0.00    +0.000 OA
ATOM      3  O   UNL     1       7.250   5.291  17.963  0.00  0.00    +0.000 OA
ENDROOT
BRANCH   1   4
ATOM      4  N   UNL     1       5.292   5.731  16.418  0.00  0.00    +0.000 NA
ATOM      5  C   UNL     1       4.874   4.286  16.386  0.00  0.00    +0.000 C 
ATOM      6  C   UNL     1       4.816   3.672  17.793  0.00  0.00    +0.000 C 
ATOM      7  N   UNL     1       3.940   4.480  18.656  0.00  0.00    +0.000 N 
ATOM      8  C   UNL     1       4.192   5.931  18.696  0.00  0.00    +0.000 C 
ATOM      9  C   UNL     1       4.288   6.492  17.257  0.00  0.00    +0.000 C 
BRANCH   7  10
ATOM     10  C   UNL     1       2.954   3.902  19.427  0.00  0.00    +0.000 A 
ATOM     11  C   UNL     1       3.130   3.657  20.797  0.00  0.00    +0.000 A 
ATOM     12  C   UNL     1       2.110   3.102  21.577  0.00  0.00    +0.000 A 
ATOM     13  C   UNL     1       0.886   2.781  21.001  0.00  0.00    +0.000 A 
ATOM     14  C   UNL     1       0.686   3.012  19.645  0.00  0.00    +0.000 A 
ATOM     15  C   UNL     1       1.709   3.566  18.876  0.00  0.00    +0.000 A 
ENDBRANCH   7  10
ENDBRANCH   1   4
BRANCH   1  16
ATOM     16  C   UNL     1       6.866   7.805  17.316  0.00  0.00    +0.000 C 
BRANCH  16  17
ATOM     17  C   UNL     1       8.111   8.183  18.086  0.00  0.00    +0.000 C 
BRANCH  17  20
ATOM     18  O   UNL     1       9.235  10.130  19.813  0.00  0.00    +0.000 OA
ATOM     19  C   UNL     1       9.222  10.346  18.604  0.00  0.00    +0.000 C 
ATOM     20  N   UNL     1       8.649   9.478  17.697  0.00  0.00    +0.000 N 
ATOM     21  H   UNL     1       8.658   9.719  16.713  0.00  0.00    +0.000 HD
BRANCH  19  22
ATOM     22  C   UNL     1       9.866  11.570  17.979  0.00  0.00    +0.000 C 
BRANCH  22  23
ATOM     23  C   UNL     1       8.912  12.724  17.940  0.00  0.00    +0.000 A 
ATOM     24  C   UNL     1       7.685  12.796  17.309  0.00  0.00    +0.000 A 
ATOM     25  C   UNL     1       7.025  14.037  17.542  0.00  0.00    +0.000 A 
ATOM     26  C   UNL     1       7.771  14.875  18.339  0.00  0.00    +0.000 A 
ATOM     27  S   UNL     1       9.257  14.166  18.801  0.00  0.00    +0.000 S 
ENDBRANCH  22  23
ENDBRANCH  19  22
ENDBRANCH  17  20
ENDBRANCH  16  17
ENDBRANCH   1  16
TORSDOF 7
ENDMDL
MODEL 6
REMARK VINA RESULT:      -7.4      1.190      1.348
REMARK  Name = 
REMARK  7 active torsions:
REMARK  status: ('A' for Active; 'I' for Inactive)
REMARK    1  A    between atoms: C_2  and  C_3
REMARK    2  A    between atoms: C_3  and  C_4
REMARK    3  A    between atoms: N_9  and  C_10
REMARK    4  A    between atoms: C_10  and  C_11
REMARK    5  A    between atoms: C_11  and  S_12
REMARK    6  A    between atoms: S_12  and  N_15
REMARK    7  A    between atoms: N_18  and  C_19
REMARK                            x       y       z     vdW  Elec       q    Type
REMARK                         _______ _______ _______ _____ _____    ______ ____
ROOT
ATOM      1  S   UNL     1       6.963   6.266  16.577  0.00  0.00    +0.000 S 
ATOM      2  O   UNL     1       5.697   6.959  16.458  0.00  0.00    +0.000 OA
ATOM      3  O   UNL     1       7.695   5.897  15.386  0.00  0.00    +0.000 OA
ENDROOT
BRANCH   1   4
ATOM      4  N   UNL     1       6.731   4.841  17.476  0.00  0.00    +0.000 NA
ATOM      5  C   UNL     1       6.337   4.964  18.922  0.00  0.00    +0.000 C 
ATOM      6  C   UNL     1       4.896   5.470  19.087  0.00  0.00    +0.000 C 
ATOM      7  N   UNL     1       3.974   4.604  18.337  0.00  0.00    +0.000 N 
ATOM      8  C   UNL     1       4.307   4.330  16.928  0.00  0.00    +0.000 C 
ATOM      9  C   UNL     1       5.779   3.870  16.811  0.00  0.00    +0.000 C 
BRANCH   7  10
ATOM     10  C   UNL     1       2.824   4.103  18.912  0.00  0.00    +0.000 A 
ATOM     11  C   UNL     1       1.926   3.297  18.197  0.00  0.00    +0.000 A 
ATOM     12  C   UNL     1       0.781   2.766  18.801  0.00  0.00    +0.000 A 
ATOM     13  C   UNL     1       0.511   3.031  20.139  0.00  0.00    +0.000 A 
ATOM     14  C   UNL     1       1.384   3.828  20.869  0.00  0.00    +0.000 A 
ATOM     15  C   UNL     1       2.523   4.352  20.258  0.00  0.00    +0.000 A 
ENDBRANCH   7  10
ENDBRANCH   1   4
BRANCH   1  16
ATOM     16  C   UNL     1       8.017   7.274  17.596  0.00  0.00    +0.000 C 
BRANCH  16  17
ATOM     17  C   UNL     1       7.393   8.622  17.873  0.00  0.00    +0.000 C 
BRANCH  17  20
ATOM     18  O   UNL     1       9.043  10.026  19.702  0.00  0.00    +0.000 OA
ATOM     19  C   UNL     1       9.085  10.328  18.512  0.00  0.00    +0.000 C 
ATOM     20  N   UNL     1       8.279   9.734  17.563  0.00  0.00    +0.000 N 
ATOM     21  H   UNL     1       8.350  10.037  16.598  0.00  0.00    +0.000 HD
BRANCH  19  22
ATOM     22  C   UNL     1      10.050  11.361  17.959  0.00  0.00    +0.000 C 
BRANCH  22  23
ATOM     23  C   UNL     1      10.177  12.534  18.881  0.00  0.00    +0.000 A 
ATOM     24  C   UNL     1      11.218  12.839  19.736  0.00  0.00    +0.000 A 
ATOM     25  C   UNL     1      11.019  14.075  20.416  0.00  0.00    +0.000 A 
ATOM     26  C   UNL     1       9.830  14.672  20.063  0.00  0.00    +0.000 A 
ATOM     27  S   UNL     1       8.962  13.743  18.918  0.00  0.00    +0.000 S 
ENDBRANCH  22  23
ENDBRANCH  19  22
ENDBRANCH  17  20
ENDBRANCH  16  17
ENDBRANCH   1  16
TORSDOF 7
ENDMDL
MODEL 7
REMARK VINA RESULT:      -7.3      1.418      2.324
REMARK  Name = 
REMARK  7 active torsions:
REMARK  status: ('A' for Active; 'I' for Inactive)
REMARK    1  A    between atoms: C_2  and  C_3
REMARK    2  A    between atoms: C_3  and  C_4
REMARK    3  A    between atoms: N_9  and  C_10
REMARK    4  A    between atoms: C_10  and  C_11
REMARK    5  A    between atoms: C_11  and  S_12
REMARK    6  A    between atoms: S_12  and  N_15
REMARK    7  A    between atoms: N_18  and  C_19
REMARK                            x       y       z     vdW  Elec       q    Type
REMARK                         _______ _______ _______ _____ _____    ______ ____
ROOT
ATOM      1  S   UNL     1       7.141   5.717  16.898  0.00  0.00    +0.000 S 
ATOM      2  O   UNL     1       7.766   6.213  15.689  0.00  0.00    +0.000 OA
ATOM      3  O   UNL     1       7.464   4.395  17.384  0.00  0.00    +0.000 OA
ENDROOT
BRANCH   1   4
ATOM      4  N   UNL     1       5.451   5.776  16.711  0.00  0.00    +0.000 NA
ATOM      5  C   UNL     1       4.713   4.489  16.464  0.00  0.00    +0.000 C 
ATOM      6  C   UNL     1       4.685   3.591  17.710  0.00  0.00    +0.000 C 
ATOM      7  N   UNL     1       4.127   4.336  18.850  0.00  0.00    +0.000 N 
ATOM      8  C   UNL     1       4.708   5.661  19.134  0.00  0.00    +0.000 C 
ATOM      9  C   UNL     1       4.756   6.506  17.840  0.00  0.00    +0.000 C 
BRANCH   7  10
ATOM     10  C   UNL     1       3.135   3.803  19.645  0.00  0.00    +0.000 A 
ATOM     11  C   UNL     1       3.422   2.945  20.716  0.00  0.00    +0.000 A 
ATOM     12  C   UNL     1       2.410   2.437  21.538  0.00  0.00    +0.000 A 
ATOM     13  C   UNL     1       1.083   2.780  21.304  0.00  0.00    +0.000 A 
ATOM     14  C   UNL     1       0.771   3.627  20.247  0.00  0.00    +0.000 A 
ATOM     15  C   UNL     1       1.788   4.129  19.435  0.00  0.00    +0.000 A 
ENDBRANCH   7  10
ENDBRANCH   1   4
BRANCH   1  16
ATOM     16  C   UNL     1       7.492   6.892  18.188  0.00  0.00    +0.000 C 
BRANCH  16  17
ATOM     17  C   UNL     1       7.667   8.287  17.632  0.00  0.00    +0.000 C 
BRANCH  17  20
ATOM     18  O   UNL     1       8.090  11.089  17.698  0.00  0.00    +0.000 OA
ATOM     19  C   UNL     1       8.927  10.350  18.210  0.00  0.00    +0.000 C 
ATOM     20  N   UNL     1       8.827   8.974  18.177  0.00  0.00    +0.000 N 
ATOM     21  H   UNL     1       9.559   8.419  18.606  0.00  0.00    +0.000 HD
BRANCH  19  22
ATOM     22  C   UNL     1      10.138  10.874  18.961  0.00  0.00    +0.000 C 
BRANCH  22  23
ATOM     23  C   UNL     1       9.728  11.669  20.162  0.00  0.00    +0.000 A 
ATOM     24  C   UNL     1       8.973  11.257  21.242  0.00  0.00    +0.000 A 
ATOM     25  C   UNL     1       8.837  12.273  22.232  0.00  0.00    +0.000 A 
ATOM     26  C   UNL     1       9.489  13.431  21.873  0.00  0.00    +0.000 A 
ATOM     27  S   UNL     1      10.257  13.289  20.352  0.00  0.00    +0.000 S 
ENDBRANCH  22  23
ENDBRANCH  19  22
ENDBRANCH  17  20
ENDBRANCH  16  17
ENDBRANCH   1  16
TORSDOF 7
ENDMDL
MODEL 8
REMARK VINA RESULT:      -7.3      5.792      7.701
REMARK  Name = 
REMARK  7 active torsions:
REMARK  status: ('A' for Active; 'I' for Inactive)
REMARK    1  A    between atoms: C_2  and  C_3
REMARK    2  A    between atoms: C_3  and  C_4
REMARK    3  A    between atoms: N_9  and  C_10
REMARK    4  A    between atoms: C_10  and  C_11
REMARK    5  A    between atoms: C_11  and  S_12
REMARK    6  A    between atoms: S_12  and  N_15
REMARK    7  A    between atoms: N_18  and  C_19
REMARK                            x       y       z     vdW  Elec       q    Type
REMARK                         _______ _______ _______ _____ _____    ______ ____
ROOT
ATOM      1  S   UNL     1       1.624   3.259  20.658  0.00  0.00    +0.000 S 
ATOM      2  O   UNL     1       1.422   2.642  21.953  0.00  0.00    +0.000 OA
ATOM      3  O   UNL     1       0.483   3.599  19.839  0.00  0.00    +0.000 OA
ENDROOT
BRANCH   1   4
ATOM      4  N   UNL     1       2.628   2.258  19.718  0.00  0.00    +0.000 NA
ATOM      5  C   UNL     1       2.409   2.220  18.231  0.00  0.00    +0.000 C 
ATOM      6  C   UNL     1       2.840   3.528  17.551  0.00  0.00    +0.000 C 
ATOM      7  N   UNL     1       4.237   3.834  17.894  0.00  0.00    +0.000 N 
ATOM      8  C   UNL     1       4.597   3.808  19.324  0.00  0.00    +0.000 C 
ATOM      9  C   UNL     1       4.101   2.493  19.971  0.00  0.00    +0.000 C 
BRANCH   7  10
ATOM     10  C   UNL     1       5.161   4.172  16.928  0.00  0.00    +0.000 A 
ATOM     11  C   UNL     1       6.485   4.507  17.251  0.00  0.00    +0.000 A 
ATOM     12  C   UNL     1       7.423   4.815  16.260  0.00  0.00    +0.000 A 
ATOM     13  C   UNL     1       7.055   4.792  14.919  0.00  0.00    +0.000 A 
ATOM     14  C   UNL     1       5.750   4.465  14.573  0.00  0.00    +0.000 A 
ATOM     15  C   UNL     1       4.822   4.158  15.568  0.00  0.00    +0.000 A 
ENDBRANCH   7  10
ENDBRANCH   1   4
BRANCH   1  16
ATOM     16  C   UNL     1       2.584   4.734  20.926  0.00  0.00    +0.000 C 
BRANCH  16  17
ATOM     17  C   UNL     1       2.084   5.880  20.079  0.00  0.00    +0.000 C 
BRANCH  17  20
ATOM     18  O   UNL     1       1.825   8.546  19.150  0.00  0.00    +0.000 OA
ATOM     19  C   UNL     1       1.536   8.293  20.316  0.00  0.00    +0.000 C 
ATOM     20  N   UNL     1       1.681   7.036  20.866  0.00  0.00    +0.000 N 
ATOM     21  H   UNL     1       1.438   6.894  21.839  0.00  0.00    +0.000 HD
BRANCH  19  22
ATOM     22  C   UNL     1       0.955   9.328  21.264  0.00  0.00    +0.000 C 
BRANCH  22  23
ATOM     23  C   UNL     1       0.526  10.558  20.525  0.00  0.00    +0.000 A 
ATOM     24  C   UNL     1       1.175  11.775  20.442  0.00  0.00    +0.000 A 
ATOM     25  C   UNL     1       0.497  12.697  19.594  0.00  0.00    +0.000 A 
ATOM     26  C   UNL     1      -0.652  12.158  19.061  0.00  0.00    +0.000 A 
ATOM     27  S   UNL     1      -0.906  10.549  19.582  0.00  0.00    +0.000 S 
ENDBRANCH  22  23
ENDBRANCH  19  22
ENDBRANCH  17  20
ENDBRANCH  16  17
ENDBRANCH   1  16
TORSDOF 7
ENDMDL
MODEL 9
REMARK VINA RESULT:      -7.2      1.380      1.824
REMARK  Name = 
REMARK  7 active torsions:
REMARK  status: ('A' for Active; 'I' for Inactive)
REMARK    1  A    between atoms: C_2  and  C_3
REMARK    2  A    between atoms: C_3  and  C_4
REMARK    3  A    between atoms: N_9  and  C_10
REMARK    4  A    between atoms: C_10  and  C_11
REMARK    5  A    between atoms: C_11  and  S_12
REMARK    6  A    between atoms: S_12  and  N_15
REMARK    7  A    between atoms: N_18  and  C_19
REMARK                            x       y       z     vdW  Elec       q    Type
REMARK                         _______ _______ _______ _____ _____    ______ ____
ROOT
ATOM      1  S   UNL     1       7.163   6.734  17.303  0.00  0.00    +0.000 S 
ATOM      2  O   UNL     1       5.894   7.431  17.345  0.00  0.00    +0.000 OA
ATOM      3  O   UNL     1       7.825   6.524  16.036  0.00  0.00    +0.000 OA
ENDROOT
BRANCH   1   4
ATOM      4  N   UNL     1       6.979   5.205  18.026  0.00  0.00    +0.000 NA
ATOM      5  C   UNL     1       6.435   5.137  19.427  0.00  0.00    +0.000 C 
ATOM      6  C   UNL     1       4.944   5.500  19.485  0.00  0.00    +0.000 C 
ATOM      7  N   UNL     1       4.185   4.647  18.558  0.00  0.00    +0.000 N 
ATOM      8  C   UNL     1       4.679   4.558  17.172  0.00  0.00    +0.000 C 
ATOM      9  C   UNL     1       6.192   4.237  17.169  0.00  0.00    +0.000 C 
BRANCH   7  10
ATOM     10  C   UNL     1       3.036   3.994  18.953  0.00  0.00    +0.000 A 
ATOM     11  C   UNL     1       2.860   3.530  20.265  0.00  0.00    +0.000 A 
ATOM     12  C   UNL     1       1.677   2.899  20.664  0.00  0.00    +0.000 A 
ATOM     13  C   UNL     1       0.640   2.720  19.755  0.00  0.00    +0.000 A 
ATOM     14  C   UNL     1       0.790   3.169  18.448  0.00  0.00    +0.000 A 
ATOM     15  C   UNL     1       1.974   3.797  18.061  0.00  0.00    +0.000 A 
ENDBRANCH   7  10
ENDBRANCH   1   4
BRANCH   1  16
ATOM     16  C   UNL     1       8.276   7.609  18.382  0.00  0.00    +0.000 C 
BRANCH  16  17
ATOM     17  C   UNL     1       8.300   9.088  18.070  0.00  0.00    +0.000 C 
BRANCH  17  20
ATOM     18  O   UNL     1      10.124  11.221  17.673  0.00  0.00    +0.000 OA
ATOM     19  C   UNL     1       9.787  10.933  18.819  0.00  0.00    +0.000 C 
ATOM     20  N   UNL     1       8.946   9.878  19.106  0.00  0.00    +0.000 N 
ATOM     21  H   UNL     1       8.715   9.682  20.074  0.00  0.00    +0.000 HD
BRANCH  19  22
ATOM     22  C   UNL     1      10.231  11.730  20.033  0.00  0.00    +0.000 C 
BRANCH  22  23
ATOM     23  C   UNL     1      10.028  13.198  19.822  0.00  0.00    +0.000 A 
ATOM     24  C   UNL     1       8.840  13.904  19.819  0.00  0.00    +0.000 A 
ATOM     25  C   UNL     1       9.039  15.304  19.648  0.00  0.00    +0.000 A 
ATOM     26  C   UNL     1      10.372  15.623  19.521  0.00  0.00    +0.000 A 
ATOM     27  S   UNL     1      11.373  14.239  19.607  0.00  0.00    +0.000 S 
ENDBRANCH  22  23
ENDBRANCH  19  22
ENDBRANCH  17  20
ENDBRANCH  16  17
ENDBRANCH   1  16
TORSDOF 7
ENDMDL
