MODEL 1
REMARK VINA RESULT:      -7.9      0.000      0.000
REMARK  Name = 
REMARK  8 active torsions:
REMARK  status: ('A' for Active; 'I' for Inactive)
REMARK    1  A    between atoms: C_1  and  C_2
REMARK    2  A    between atoms: C_2  and  N_3
REMARK    3  A    between atoms: C_6  and  C_7
REMARK    4  A    between atoms: C_11  and  N_12
REMARK    5  A    between atoms: N_12  and  C_13
REMARK    6  A    between atoms: N_12  and  S_20
REMARK    7  A    between atoms: C_13  and  C_14
REMARK    8  A    between atoms: S_20  and  C_21
REMARK                            x       y       z     vdW  Elec       q    Type
REMARK                         _______ _______ _______ _____ _____    ______ ____
ROOT
ATOM      1  C   UNL     1       7.182   4.995  15.809  0.00  0.00    +0.000 C 
ATOM      2  O   UNL     1       7.940   4.425  16.594  0.00  0.00    +0.000 OA
ATOM      3  N   UNL     1       6.436   6.107  16.172  0.00  0.00    +0.000 N 
ATOM      4  C   UNL     1       6.441   6.774  17.462  0.00  0.00    +0.000 C 
ATOM      5  C   UNL     1       4.898   6.694  17.475  0.00  0.00    +0.000 C 
ATOM      6  C   UNL     1       4.988   6.215  16.005  0.00  0.00    +0.000 C 
ENDROOT
BRANCH   1  10
ATOM      7  N   UNL     1       6.335   3.578  12.664  0.00  0.00    +0.000 N 
ATOM      8  C   UNL     1       7.176   4.527  12.168  0.00  0.00    +0.000 A 
ATOM      9  C   UNL     1       7.664   5.200  13.265  0.00  0.00    +0.000 A 
ATOM     10  C   UNL     1       7.058   4.584  14.395  0.00  0.00    +0.000 A 
ATOM     11  N   UNL     1       6.262   3.571  14.002  0.00  0.00    +0.000 NA
BRANCH   7  13
ATOM     12  C   UNL     1       4.283   3.354  11.331  0.00  0.00    +0.000 C 
ATOM     13  C   UNL     1       5.502   2.658  11.911  0.00  0.00    +0.000 C 
ENDBRANCH   7  13
ENDBRANCH   1  10
BRANCH   5  14
ATOM     14  N   UNL     1       4.184   5.780  18.475  0.00  0.00    +0.000 NA
BRANCH  14  15
ATOM     15  S   UNL     1       4.693   4.165  18.722  0.00  0.00    +0.000 S 
ATOM     16  C   UNL     1       3.467   3.561  19.864  0.00  0.00    +0.000 C 
ATOM     17  O   UNL     1       4.545   3.426  17.495  0.00  0.00    +0.000 OA
ATOM     18  O   UNL     1       5.962   4.184  19.419  0.00  0.00    +0.000 OA
ENDBRANCH  14  15
BRANCH  14  19
ATOM     19  C   UNL     1       2.719   6.034  18.613  0.00  0.00    +0.000 C 
BRANCH  19  20
ATOM     20  C   UNL     1       2.270   7.471  18.721  0.00  0.00    +0.000 A 
ATOM     21  C   UNL     1       1.712   7.991  19.892  0.00  0.00    +0.000 A 
ATOM     22  C   UNL     1       1.272   9.314  19.928  0.00  0.00    +0.000 A 
ATOM     23  C   UNL     1       1.400  10.086  18.786  0.00  0.00    +0.000 A 
ATOM     24  N   UNL     1       1.920   9.622  17.635  0.00  0.00    +0.000 NA
ATOM     25  C   UNL     1       2.344   8.338  17.630  0.00  0.00    +0.000 A 
ENDBRANCH  19  20
ENDBRANCH  14  19
ENDBRANCH   5  14
TORSDOF 6
ENDMDL
MODEL 2
REMARK VINA RESULT:      -7.7      0.903      1.034
REMARK  Name = 
REMARK  8 active torsions:
REMARK  status: ('A' for Active; 'I' for Inactive)
REMARK    1  A    between atoms: C_1  and  C_2
REMARK    2  A    between atoms: C_2  and  N_3
REMARK    3  A    between atoms: C_6  and  C_7
REMARK    4  A    between atoms: C_11  and  N_12
REMARK    5  A    between atoms: N_12  and  C_13
REMARK    6  A    between atoms: N_12  and  S_20
REMARK    7  A    between atoms: C_13  and  C_14
REMARK    8  A    between atoms: S_20  and  C_21
REMARK                            x       y       z     vdW  Elec       q    Type
REMARK                         _______ _______ _______ _____ _____    ______ ____
ROOT
ATOM      1  C   UNL     1       7.190   4.856  15.752  0.00  0.00    +0.000 C 
ATOM      2  O   UNL     1       7.819   4.169  16.556  0.00  0.00    +0.000 OA
ATOM      3  N   UNL     1       6.608   6.065  16.104  0.00  0.00    +0.000 N 
ATOM      4  C   UNL     1       6.661   6.710  17.404  0.00  0.00    +0.000 C 
ATOM      5  C   UNL     1       5.125   6.867  17.356  0.00  0.00    +0.000 C 
ATOM      6  C   UNL     1       5.201   6.395  15.883  0.00  0.00    +0.000 C 
ENDROOT
BRANCH   1  10
ATOM      7  N   UNL     1       6.324   3.536  12.569  0.00  0.00    +0.000 N 
ATOM      8  C   UNL     1       7.186   4.481  12.100  0.00  0.00    +0.000 A 
ATOM      9  C   UNL     1       7.684   5.116  13.215  0.00  0.00    +0.000 A 
ATOM     10  C   UNL     1       7.062   4.483  14.328  0.00  0.00    +0.000 A 
ATOM     11  N   UNL     1       6.247   3.496  13.907  0.00  0.00    +0.000 NA
BRANCH   7  13
ATOM     12  C   UNL     1       4.185   3.337  11.379  0.00  0.00    +0.000 C 
ATOM     13  C   UNL     1       5.476   2.653  11.791  0.00  0.00    +0.000 C 
ENDBRANCH   7  13
ENDBRANCH   1  10
BRANCH   5  14
ATOM     14  N   UNL     1       4.240   6.063  18.313  0.00  0.00    +0.000 NA
BRANCH  14  15
ATOM     15  S   UNL     1       4.694   4.499  18.839  0.00  0.00    +0.000 S 
ATOM     16  C   UNL     1       4.394   3.517  17.384  0.00  0.00    +0.000 C 
ATOM     17  O   UNL     1       6.111   4.474  19.096  0.00  0.00    +0.000 OA
ATOM     18  O   UNL     1       3.756   4.066  19.854  0.00  0.00    +0.000 OA
ENDBRANCH  14  15
BRANCH  14  19
ATOM     19  C   UNL     1       2.775   6.300  18.152  0.00  0.00    +0.000 C 
BRANCH  19  20
ATOM     20  C   UNL     1       2.170   7.454  18.915  0.00  0.00    +0.000 A 
ATOM     21  C   UNL     1       1.869   7.369  20.277  0.00  0.00    +0.000 A 
ATOM     22  C   UNL     1       1.271   8.447  20.928  0.00  0.00    +0.000 A 
ATOM     23  C   UNL     1       0.985   9.587  20.196  0.00  0.00    +0.000 A 
ATOM     24  N   UNL     1       1.247   9.707  18.882  0.00  0.00    +0.000 NA
ATOM     25  C   UNL     1       1.832   8.648  18.277  0.00  0.00    +0.000 A 
ENDBRANCH  19  20
ENDBRANCH  14  19
ENDBRANCH   5  14
TORSDOF 6
ENDMDL
MODEL 3
REMARK VINA RESULT:      -7.6      1.029      1.411
REMARK  Name = 
REMARK  8 active torsions:
REMARK  status: ('A' for Active; 'I' for Inactive)
REMARK    1  A    between atoms: C_1  and  C_2
REMARK    2  A    between atoms: C_2  and  N_3
REMARK    3  A    between atoms: C_6  and  C_7
REMARK    4  A    between atoms: C_11  and  N_12
REMARK    5  A    between atoms: N_12  and  C_13
REMARK    6  A    between atoms: N_12  and  S_20
REMARK    7  A    between atoms: C_13  and  C_14
REMARK    8  A    between atoms: S_20  and  C_21
REMARK                            x       y       z     vdW  Elec       q    Type
REMARK                         _______ _______ _______ _____ _____    ______ ____
ROOT
ATOM      1  C   UNL     1       7.171   4.922  15.781  0.00  0.00    +0.000 C 
ATOM      2  O   UNL     1       7.825   4.261  16.586  0.00  0.00    +0.000 OA
ATOM      3  N   UNL     1       6.551   6.113  16.129  0.00  0.00    +0.000 N 
ATOM      4  C   UNL     1       6.588   6.767  17.425  0.00  0.00    +0.000 C 
ATOM      5  C   UNL     1       5.047   6.873  17.382  0.00  0.00    +0.000 C 
ATOM      6  C   UNL     1       5.133   6.395  15.911  0.00  0.00    +0.000 C 
ENDROOT
BRANCH   1  10
ATOM      7  N   UNL     1       6.296   3.606  12.599  0.00  0.00    +0.000 N 
ATOM      8  C   UNL     1       7.216   4.497  12.134  0.00  0.00    +0.000 A 
ATOM      9  C   UNL     1       7.726   5.120  13.251  0.00  0.00    +0.000 A 
ATOM     10  C   UNL     1       7.050   4.537  14.359  0.00  0.00    +0.000 A 
ATOM     11  N   UNL     1       6.192   3.589  13.935  0.00  0.00    +0.000 NA
BRANCH   7  13
ATOM     12  C   UNL     1       6.149   1.546  11.269  0.00  0.00    +0.000 C 
ATOM     13  C   UNL     1       5.417   2.759  11.816  0.00  0.00    +0.000 C 
ENDBRANCH   7  13
ENDBRANCH   1  10
BRANCH   5  14
ATOM     14  N   UNL     1       4.193   6.045  18.346  0.00  0.00    +0.000 NA
BRANCH  14  15
ATOM     15  S   UNL     1       4.708   4.508  18.893  0.00  0.00    +0.000 S 
ATOM     16  C   UNL     1       4.440   3.494  17.454  0.00  0.00    +0.000 C 
ATOM     17  O   UNL     1       6.126   4.540  19.144  0.00  0.00    +0.000 OA
ATOM     18  O   UNL     1       3.791   4.054  19.918  0.00  0.00    +0.000 OA
ENDBRANCH  14  15
BRANCH  14  19
ATOM     19  C   UNL     1       2.719   6.221  18.179  0.00  0.00    +0.000 C 
BRANCH  19  20
ATOM     20  C   UNL     1       2.116   7.520  18.656  0.00  0.00    +0.000 A 
ATOM     21  C   UNL     1       1.884   8.594  17.792  0.00  0.00    +0.000 A 
ATOM     22  C   UNL     1       1.365   9.789  18.289  0.00  0.00    +0.000 A 
ATOM     23  C   UNL     1       1.093   9.881  19.643  0.00  0.00    +0.000 A 
ATOM     24  N   UNL     1       1.313   8.877  20.512  0.00  0.00    +0.000 NA
ATOM     25  C   UNL     1       1.812   7.728  20.002  0.00  0.00    +0.000 A 
ENDBRANCH  19  20
ENDBRANCH  14  19
ENDBRANCH   5  14
TORSDOF 6
ENDMDL
MODEL 4
REMARK VINA RESULT:      -7.5      1.007      1.364
REMARK  Name = 
REMARK  8 active torsions:
REMARK  status: ('A' for Active; 'I' for Inactive)
REMARK    1  A    between atoms: C_1  and  C_2
REMARK    2  A    between atoms: C_2  and  N_3
REMARK    3  A    between atoms: C_6  and  C_7
REMARK    4  A    between atoms: C_11  and  N_12
REMARK    5  A    between atoms: N_12  and  C_13
REMARK    6  A    between atoms: N_12  and  S_20
REMARK    7  A    between atoms: C_13  and  C_14
REMARK    8  A    between atoms: S_20  and  C_21
REMARK                            x       y       z     vdW  Elec       q    Type
REMARK                         _______ _______ _______ _____ _____    ______ ____
ROOT
ATOM      1  C   UNL     1       7.059   4.876  15.923  0.00  0.00    +0.000 C 
ATOM      2  O   UNL     1       7.812   4.304  16.711  0.00  0.00    +0.000 OA
ATOM      3  N   UNL     1       6.239   5.926  16.310  0.00  0.00    +0.000 N 
ATOM      4  C   UNL     1       6.152   6.521  17.632  0.00  0.00    +0.000 C 
ATOM      5  C   UNL     1       4.616   6.360  17.569  0.00  0.00    +0.000 C 
ATOM      6  C   UNL     1       4.796   5.968  16.081  0.00  0.00    +0.000 C 
ENDROOT
BRANCH   1  10
ATOM      7  N   UNL     1       6.402   3.621  12.665  0.00  0.00    +0.000 N 
ATOM      8  C   UNL     1       7.268   4.595  12.268  0.00  0.00    +0.000 A 
ATOM      9  C   UNL     1       7.688   5.211  13.425  0.00  0.00    +0.000 A 
ATOM     10  C   UNL     1       7.019   4.537  14.485  0.00  0.00    +0.000 A 
ATOM     11  N   UNL     1       6.252   3.545  13.995  0.00  0.00    +0.000 NA
BRANCH   7  13
ATOM     12  C   UNL     1       4.266   3.344  11.486  0.00  0.00    +0.000 C 
ATOM     13  C   UNL     1       5.618   2.741  11.819  0.00  0.00    +0.000 C 
ENDBRANCH   7  13
ENDBRANCH   1  10
BRANCH   5  14
ATOM     14  N   UNL     1       3.910   5.357  18.485  0.00  0.00    +0.000 NA
BRANCH  14  15
ATOM     15  S   UNL     1       3.254   3.902  17.870  0.00  0.00    +0.000 S 
ATOM     16  C   UNL     1       2.801   3.039  19.361  0.00  0.00    +0.000 C 
ATOM     17  O   UNL     1       2.041   4.191  17.150  0.00  0.00    +0.000 OA
ATOM     18  O   UNL     1       4.319   3.148  17.240  0.00  0.00    +0.000 OA
ENDBRANCH  14  15
BRANCH  14  19
ATOM     19  C   UNL     1       3.178   5.971  19.633  0.00  0.00    +0.000 C 
BRANCH  19  20
ATOM     20  C   UNL     1       2.388   7.228  19.359  0.00  0.00    +0.000 A 
ATOM     21  C   UNL     1       2.298   7.788  18.082  0.00  0.00    +0.000 A 
ATOM     22  C   UNL     1       1.591   8.974  17.889  0.00  0.00    +0.000 A 
ATOM     23  C   UNL     1       0.992   9.574  18.983  0.00  0.00    +0.000 A 
ATOM     24  N   UNL     1       1.063   9.076  20.230  0.00  0.00    +0.000 NA
ATOM     25  C   UNL     1       1.750   7.921  20.388  0.00  0.00    +0.000 A 
ENDBRANCH  19  20
ENDBRANCH  14  19
ENDBRANCH   5  14
TORSDOF 6
ENDMDL
MODEL 5
REMARK VINA RESULT:      -7.2      2.110      3.986
REMARK  Name = 
REMARK  8 active torsions:
REMARK  status: ('A' for Active; 'I' for Inactive)
REMARK    1  A    between atoms: C_1  and  C_2
REMARK    2  A    between atoms: C_2  and  N_3
REMARK    3  A    between atoms: C_6  and  C_7
REMARK    4  A    between atoms: C_11  and  N_12
REMARK    5  A    between atoms: N_12  and  C_13
REMARK    6  A    between atoms: N_12  and  S_20
REMARK    7  A    between atoms: C_13  and  C_14
REMARK    8  A    between atoms: S_20  and  C_21
REMARK                            x       y       z     vdW  Elec       q    Type
REMARK                         _______ _______ _______ _____ _____    ______ ____
ROOT
ATOM      1  C   UNL     1       7.102   4.943  15.705  0.00  0.00    +0.000 C 
ATOM      2  O   UNL     1       7.667   4.260  16.558  0.00  0.00    +0.000 OA
ATOM      3  N   UNL     1       6.531   6.172  15.997  0.00  0.00    +0.000 N 
ATOM      4  C   UNL     1       6.524   6.845  17.284  0.00  0.00    +0.000 C 
ATOM      5  C   UNL     1       4.998   7.036  17.144  0.00  0.00    +0.000 C 
ATOM      6  C   UNL     1       5.147   6.530  15.687  0.00  0.00    +0.000 C 
ENDROOT
BRANCH   1  10
ATOM      7  N   UNL     1       6.395   3.568  12.506  0.00  0.00    +0.000 N 
ATOM      8  C   UNL     1       7.297   4.490  12.066  0.00  0.00    +0.000 A 
ATOM      9  C   UNL     1       7.742   5.141  13.194  0.00  0.00    +0.000 A 
ATOM     10  C   UNL     1       7.048   4.542  14.283  0.00  0.00    +0.000 A 
ATOM     11  N   UNL     1       6.243   3.558  13.838  0.00  0.00    +0.000 NA
BRANCH   7  13
ATOM     12  C   UNL     1       4.211   3.280  11.421  0.00  0.00    +0.000 C 
ATOM     13  C   UNL     1       5.578   2.681  11.700  0.00  0.00    +0.000 C 
ENDBRANCH   7  13
ENDBRANCH   1  10
BRANCH   5  14
ATOM     14  N   UNL     1       4.040   6.273  18.063  0.00  0.00    +0.000 NA
BRANCH  14  15
ATOM     15  S   UNL     1       2.569   6.972  18.589  0.00  0.00    +0.000 S 
ATOM     16  C   UNL     1       1.371   5.777  18.032  0.00  0.00    +0.000 C 
ATOM     17  O   UNL     1       2.534   6.984  20.028  0.00  0.00    +0.000 OA
ATOM     18  O   UNL     1       2.345   8.191  17.839  0.00  0.00    +0.000 OA
ENDBRANCH  14  15
BRANCH  14  19
ATOM     19  C   UNL     1       4.708   5.350  19.028  0.00  0.00    +0.000 C 
BRANCH  19  20
ATOM     20  C   UNL     1       4.410   3.875  18.897  0.00  0.00    +0.000 A 
ATOM     21  C   UNL     1       3.908   3.319  17.718  0.00  0.00    +0.000 A 
ATOM     22  C   UNL     1       3.608   1.959  17.661  0.00  0.00    +0.000 A 
ATOM     23  C   UNL     1       3.817   1.186  18.790  0.00  0.00    +0.000 A 
ATOM     24  N   UNL     1       4.287   1.682  19.949  0.00  0.00    +0.000 NA
ATOM     25  C   UNL     1       4.575   3.004  19.975  0.00  0.00    +0.000 A 
ENDBRANCH  19  20
ENDBRANCH  14  19
ENDBRANCH   5  14
TORSDOF 6
ENDMDL
MODEL 6
REMARK VINA RESULT:      -7.1      2.682      3.462
REMARK  Name = 
REMARK  8 active torsions:
REMARK  status: ('A' for Active; 'I' for Inactive)
REMARK    1  A    between atoms: C_1  and  C_2
REMARK    2  A    between atoms: C_2  and  N_3
REMARK    3  A    between atoms: C_6  and  C_7
REMARK    4  A    between atoms: C_11  and  N_12
REMARK    5  A    between atoms: N_12  and  C_13
REMARK    6  A    between atoms: N_12  and  S_20
REMARK    7  A    between atoms: C_13  and  C_14
REMARK    8  A    between atoms: S_20  and  C_21
REMARK                            x       y       z     vdW  Elec       q    Type
REMARK                         _______ _______ _______ _____ _____    ______ ____
ROOT
ATOM      1  C   UNL     1       6.429   5.067  14.235  0.00  0.00    +0.000 C 
ATOM      2  O   UNL     1       7.569   5.527  14.292  0.00  0.00    +0.000 OA
ATOM      3  N   UNL     1       5.407   5.510  15.061  0.00  0.00    +0.000 N 
ATOM      4  C   UNL     1       5.491   6.557  16.064  0.00  0.00    +0.000 C 
ATOM      5  C   UNL     1       4.855   5.589  17.086  0.00  0.00    +0.000 C 
ATOM      6  C   UNL     1       4.587   4.634  15.896  0.00  0.00    +0.000 C 
ENDROOT
BRANCH   1  10
ATOM      7  N   UNL     1       4.862   3.023  11.787  0.00  0.00    +0.000 N 
ATOM      8  C   UNL     1       6.092   2.443  11.688  0.00  0.00    +0.000 A 
ATOM      9  C   UNL     1       6.881   3.088  12.613  0.00  0.00    +0.000 A 
ATOM     10  C   UNL     1       6.038   4.053  13.233  0.00  0.00    +0.000 A 
ATOM     11  N   UNL     1       4.793   3.978  12.725  0.00  0.00    +0.000 NA
BRANCH   7  13
ATOM     12  C   UNL     1       3.301   3.973  10.147  0.00  0.00    +0.000 C 
ATOM     13  C   UNL     1       3.695   2.758  10.967  0.00  0.00    +0.000 C 
ENDBRANCH   7  13
ENDBRANCH   1  10
BRANCH   5  14
ATOM     14  N   UNL     1       5.684   5.050  18.254  0.00  0.00    +0.000 NA
BRANCH  14  15
ATOM     15  S   UNL     1       7.389   5.195  18.274  0.00  0.00    +0.000 S 
ATOM     16  C   UNL     1       7.623   6.896  17.801  0.00  0.00    +0.000 C 
ATOM     17  O   UNL     1       7.865   5.051  19.626  0.00  0.00    +0.000 OA
ATOM     18  O   UNL     1       7.932   4.372  17.213  0.00  0.00    +0.000 OA
ENDBRANCH  14  15
BRANCH  14  19
ATOM     19  C   UNL     1       5.123   3.828  18.903  0.00  0.00    +0.000 C 
BRANCH  19  20
ATOM     20  C   UNL     1       3.662   3.852  19.283  0.00  0.00    +0.000 A 
ATOM     21  C   UNL     1       3.143   4.782  20.187  0.00  0.00    +0.000 A 
ATOM     22  C   UNL     1       1.794   4.736  20.538  0.00  0.00    +0.000 A 
ATOM     23  C   UNL     1       0.996   3.754  19.976  0.00  0.00    +0.000 A 
ATOM     24  N   UNL     1       1.457   2.831  19.112  0.00  0.00    +0.000 NA
ATOM     25  C   UNL     1       2.768   2.904  18.784  0.00  0.00    +0.000 A 
ENDBRANCH  19  20
ENDBRANCH  14  19
ENDBRANCH   5  14
TORSDOF 6
ENDMDL
MODEL 7
REMARK VINA RESULT:      -7.1      3.082      4.778
REMARK  Name = 
REMARK  8 active torsions:
REMARK  status: ('A' for Active; 'I' for Inactive)
REMARK    1  A    between atoms: C_1  and  C_2
REMARK    2  A    between atoms: C_2  and  N_3
REMARK    3  A    between atoms: C_6  and  C_7
REMARK    4  A    between atoms: C_11  and  N_12
REMARK    5  A    between atoms: N_12  and  C_13
REMARK    6  A    between atoms: N_12  and  S_20
REMARK    7  A    between atoms: C_13  and  C_14
REMARK    8  A    between atoms: S_20  and  C_21
REMARK                            x       y       z     vdW  Elec       q    Type
REMARK                         _______ _______ _______ _____ _____    ______ ____
ROOT
ATOM      1  C   UNL     1       6.080   6.229  16.933  0.00  0.00    +0.000 C 
ATOM      2  O   UNL     1       5.548   6.509  15.858  0.00  0.00    +0.000 OA
ATOM      3  N   UNL     1       5.795   5.058  17.618  0.00  0.00    +0.000 N 
ATOM      4  C   UNL     1       4.892   4.001  17.199  0.00  0.00    +0.000 C 
ATOM      5  C   UNL     1       4.217   4.067  18.586  0.00  0.00    +0.000 C 
ATOM      6  C   UNL     1       5.371   5.007  19.017  0.00  0.00    +0.000 C 
ENDROOT
BRANCH   1  10
ATOM      7  N   UNL     1       8.227   8.834  18.042  0.00  0.00    +0.000 N 
ATOM      8  C   UNL     1       8.714   7.881  18.884  0.00  0.00    +0.000 A 
ATOM      9  C   UNL     1       8.016   6.732  18.590  0.00  0.00    +0.000 A 
ATOM     10  C   UNL     1       7.117   7.086  17.545  0.00  0.00    +0.000 A 
ATOM     11  N   UNL     1       7.282   8.379  17.206  0.00  0.00    +0.000 NA
BRANCH   7  13
ATOM     12  C   UNL     1       9.446  10.631  19.188  0.00  0.00    +0.000 C 
ATOM     13  C   UNL     1       8.574  10.242  18.008  0.00  0.00    +0.000 C 
ENDBRANCH   7  13
ENDBRANCH   1  10
BRANCH   5  14
ATOM     14  N   UNL     1       2.786   4.596  18.720  0.00  0.00    +0.000 NA
BRANCH  14  15
ATOM     15  S   UNL     1       1.469   3.535  18.981  0.00  0.00    +0.000 S 
ATOM     16  C   UNL     1       2.294   1.989  19.298  0.00  0.00    +0.000 C 
ATOM     17  O   UNL     1       0.781   3.916  20.187  0.00  0.00    +0.000 OA
ATOM     18  O   UNL     1       0.742   3.390  17.736  0.00  0.00    +0.000 OA
ENDBRANCH  14  15
BRANCH  14  19
ATOM     19  C   UNL     1       2.495   5.814  17.907  0.00  0.00    +0.000 C 
BRANCH  19  20
ATOM     20  C   UNL     1       2.111   7.070  18.652  0.00  0.00    +0.000 A 
ATOM     21  C   UNL     1       1.911   7.083  20.035  0.00  0.00    +0.000 A 
ATOM     22  C   UNL     1       1.515   8.259  20.671  0.00  0.00    +0.000 A 
ATOM     23  C   UNL     1       1.325   9.396  19.904  0.00  0.00    +0.000 A 
ATOM     24  N   UNL     1       1.495   9.425  18.570  0.00  0.00    +0.000 NA
ATOM     25  C   UNL     1       1.885   8.271  17.979  0.00  0.00    +0.000 A 
ENDBRANCH  19  20
ENDBRANCH  14  19
ENDBRANCH   5  14
TORSDOF 6
ENDMDL
MODEL 8
REMARK VINA RESULT:      -6.9      2.639      3.349
REMARK  Name = 
REMARK  8 active torsions:
REMARK  status: ('A' for Active; 'I' for Inactive)
REMARK    1  A    between atoms: C_1  and  C_2
REMARK    2  A    between atoms: C_2  and  N_3
REMARK    3  A    between atoms: C_6  and  C_7
REMARK    4  A    between atoms: C_11  and  N_12
REMARK    5  A    between atoms: N_12  and  C_13
REMARK    6  A    between atoms: N_12  and  S_20
REMARK    7  A    between atoms: C_13  and  C_14
REMARK    8  A    between atoms: S_20  and  C_21
REMARK                            x       y       z     vdW  Elec       q    Type
REMARK                         _______ _______ _______ _____ _____    ______ ____
ROOT
ATOM      1  C   UNL     1       6.640   5.221  14.586  0.00  0.00    +0.000 C 
ATOM      2  O   UNL     1       7.794   5.608  14.769  0.00  0.00    +0.000 OA
ATOM      3  N   UNL     1       5.573   5.688  15.340  0.00  0.00    +0.000 N 
ATOM      4  C   UNL     1       5.624   6.682  16.398  0.00  0.00    +0.000 C 
ATOM      5  C   UNL     1       4.842   5.710  17.308  0.00  0.00    +0.000 C 
ATOM      6  C   UNL     1       4.631   4.827  16.053  0.00  0.00    +0.000 C 
ENDROOT
BRANCH   1  10
ATOM      7  N   UNL     1       5.108   3.233  12.073  0.00  0.00    +0.000 N 
ATOM      8  C   UNL     1       6.390   2.902  11.751  0.00  0.00    +0.000 A 
ATOM      9  C   UNL     1       7.183   3.565  12.660  0.00  0.00    +0.000 A 
ATOM     10  C   UNL     1       6.286   4.280  13.503  0.00  0.00    +0.000 A 
ATOM     11  N   UNL     1       5.012   4.041  13.138  0.00  0.00    +0.000 NA
BRANCH   7  13
ATOM     12  C   UNL     1       3.519   3.894  10.320  0.00  0.00    +0.000 C 
ATOM     13  C   UNL     1       3.898   2.860  11.365  0.00  0.00    +0.000 C 
ENDBRANCH   7  13
ENDBRANCH   1  10
BRANCH   5  14
ATOM     14  N   UNL     1       5.528   5.069  18.517  0.00  0.00    +0.000 NA
BRANCH  14  15
ATOM     15  S   UNL     1       7.212   5.232  18.772  0.00  0.00    +0.000 S 
ATOM     16  C   UNL     1       7.532   6.856  18.114  0.00  0.00    +0.000 C 
ATOM     17  O   UNL     1       7.479   5.276  20.187  0.00  0.00    +0.000 OA
ATOM     18  O   UNL     1       7.899   4.279  17.925  0.00  0.00    +0.000 OA
ENDBRANCH  14  15
BRANCH  14  19
ATOM     19  C   UNL     1       4.919   3.781  18.968  0.00  0.00    +0.000 C 
BRANCH  19  20
ATOM     20  C   UNL     1       3.463   3.803  19.363  0.00  0.00    +0.000 A 
ATOM     21  C   UNL     1       2.530   2.918  18.815  0.00  0.00    +0.000 A 
ATOM     22  C   UNL     1       1.187   3.007  19.180  0.00  0.00    +0.000 A 
ATOM     23  C   UNL     1       0.809   3.983  20.086  0.00  0.00    +0.000 A 
ATOM     24  N   UNL     1       1.671   4.862  20.628  0.00  0.00    +0.000 NA
ATOM     25  C   UNL     1       2.969   4.750  20.260  0.00  0.00    +0.000 A 
ENDBRANCH  19  20
ENDBRANCH  14  19
ENDBRANCH   5  14
TORSDOF 6
ENDMDL
MODEL 9
REMARK VINA RESULT:      -6.9      3.160      4.812
REMARK  Name = 
REMARK  8 active torsions:
REMARK  status: ('A' for Active; 'I' for Inactive)
REMARK    1  A    between atoms: C_1  and  C_2
REMARK    2  A    between atoms: C_2  and  N_3
REMARK    3  A    between atoms: C_6  and  C_7
REMARK    4  A    between atoms: C_11  and  N_12
REMARK    5  A    between atoms: N_12  and  C_13
REMARK    6  A    between atoms: N_12  and  S_20
REMARK    7  A    between atoms: C_13  and  C_14
REMARK    8  A    between atoms: S_20  and  C_21
REMARK                            x       y       z     vdW  Elec       q    Type
REMARK                         _______ _______ _______ _____ _____    ______ ____
ROOT
ATOM      1  C   UNL     1       5.720   6.130  16.987  0.00  0.00    +0.000 C 
ATOM      2  O   UNL     1       5.012   6.528  16.061  0.00  0.00    +0.000 OA
ATOM      3  N   UNL     1       5.569   4.871  17.548  0.00  0.00    +0.000 N 
ATOM      4  C   UNL     1       4.622   3.846  17.146  0.00  0.00    +0.000 C 
ATOM      5  C   UNL     1       4.188   3.710  18.623  0.00  0.00    +0.000 C 
ATOM      6  C   UNL     1       5.386   4.625  18.978  0.00  0.00    +0.000 C 
ENDROOT
BRANCH   1  10
ATOM      7  N   UNL     1       8.042   8.633  17.970  0.00  0.00    +0.000 N 
ATOM      8  C   UNL     1       8.567   7.642  18.744  0.00  0.00    +0.000 A 
ATOM      9  C   UNL     1       7.807   6.524  18.482  0.00  0.00    +0.000 A 
ATOM     10  C   UNL     1       6.834   6.936  17.528  0.00  0.00    +0.000 A 
ATOM     11  N   UNL     1       7.014   8.232  17.209  0.00  0.00    +0.000 NA
BRANCH   7  13
ATOM     12  C   UNL     1       9.219  10.415  19.182  0.00  0.00    +0.000 C 
ATOM     13  C   UNL     1       8.434  10.029  17.941  0.00  0.00    +0.000 C 
ENDBRANCH   7  13
ENDBRANCH   1  10
BRANCH   5  14
ATOM     14  N   UNL     1       2.794   4.167  19.059  0.00  0.00    +0.000 NA
BRANCH  14  15
ATOM     15  S   UNL     1       1.743   3.121  19.913  0.00  0.00    +0.000 S 
ATOM     16  C   UNL     1       2.715   2.711  21.349  0.00  0.00    +0.000 C 
ATOM     17  O   UNL     1       0.594   3.862  20.365  0.00  0.00    +0.000 OA
ATOM     18  O   UNL     1       1.577   1.907  19.142  0.00  0.00    +0.000 OA
ENDBRANCH  14  15
BRANCH  14  19
ATOM     19  C   UNL     1       2.139   5.139  18.133  0.00  0.00    +0.000 C 
BRANCH  19  20
ATOM     20  C   UNL     1       1.993   6.563  18.610  0.00  0.00    +0.000 A 
ATOM     21  C   UNL     1       2.065   7.652  17.737  0.00  0.00    +0.000 A 
ATOM     22  C   UNL     1       1.967   8.951  18.233  0.00  0.00    +0.000 A 
ATOM     23  C   UNL     1       1.802   9.130  19.596  0.00  0.00    +0.000 A 
ATOM     24  N   UNL     1       1.740   8.112  20.473  0.00  0.00    +0.000 NA
ATOM     25  C   UNL     1       1.832   6.861  19.964  0.00  0.00    +0.000 A 
ENDBRANCH  19  20
ENDBRANCH  14  19
ENDBRANCH   5  14
TORSDOF 6
ENDMDL
