MODEL 1
REMARK VINA RESULT:      -8.3      0.000      0.000
REMARK  Name = 
REMARK  6 active torsions:
REMARK  status: ('A' for Active; 'I' for Inactive)
REMARK    1  A    between atoms: N_1  and  C_2
REMARK    2  A    between atoms: C_2  and  C_3
REMARK    3  A    between atoms: C_2  and  C_18
REMARK    4  A    between atoms: C_3  and  C_4
REMARK    5  A    between atoms: C_12  and  C_13
REMARK    6  A    between atoms: C_18  and  C_19
REMARK                            x       y       z     vdW  Elec       q    Type
REMARK                         _______ _______ _______ _____ _____    ______ ____
ROOT
ATOM      1  C   UNL     1       4.136   5.314  19.354  0.00  0.00    +0.000 C 
ENDROOT
BRANCH   1   2
ATOM      2  C   UNL     1       4.197   4.516  18.055  0.00  0.00    +0.000 C 
ATOM      3  O   UNL     1       3.147   4.169  17.531  0.00  0.00    +0.000 OA
ATOM      4  N   UNL     1       5.393   4.206  17.446  0.00  0.00    +0.000 N 
ATOM      5  C   UNL     1       6.687   4.614  17.987  0.00  0.00    +0.000 C 
ATOM      6  C   UNL     1       7.322   5.648  17.036  0.00  0.00    +0.000 C 
ATOM      7  N   UNL     1       7.149   5.229  15.645  0.00  0.00    +0.000 N 
ATOM      8  N   UNL     1       7.762   5.749  14.595  0.00  0.00    +0.000 NA
ATOM      9  N   UNL     1       7.382   5.115  13.491  0.00  0.00    +0.000 NA
ATOM     10  C   UNL     1       6.487   4.171  13.857  0.00  0.00    +0.000 A 
ATOM     11  C   UNL     1       6.328   4.260  15.224  0.00  0.00    +0.000 A 
ATOM     12  C   UNL     1       5.438   3.495  16.159  0.00  0.00    +0.000 C 
BRANCH  10  13
ATOM     13  C   UNL     1       5.797   3.248  12.905  0.00  0.00    +0.000 C 
ATOM     14  F   UNL     1       4.713   3.887  12.334  0.00  0.00    +0.000 F 
ATOM     15  F   UNL     1       6.675   2.852  11.915  0.00  0.00    +0.000 F 
ENDBRANCH  10  13
ENDBRANCH   1   2
BRANCH   1  16
ATOM     16  C   UNL     1       2.745   5.911  19.712  0.00  0.00    +0.000 C 
BRANCH  16  17
ATOM     17  N   UNL     1       1.715   4.872  19.609  0.00  0.00    +0.000 NA
ATOM     18  H   UNL     1       1.576   4.611  18.606  0.00  0.00    +0.000 HD
ATOM     19  H   UNL     1       0.805   5.228  19.984  0.00  0.00    +0.000 HD
ENDBRANCH  16  17
BRANCH  16  20
ATOM     20  C   UNL     1       2.366   7.098  18.790  0.00  0.00    +0.000 C 
BRANCH  20  21
ATOM     21  C   UNL     1       1.718   8.248  19.535  0.00  0.00    +0.000 A 
ATOM     22  C   UNL     1       1.488   8.153  20.921  0.00  0.00    +0.000 A 
ATOM     23  C   UNL     1       0.916   9.219  21.622  0.00  0.00    +0.000 A 
ATOM     24  F   UNL     1       0.701   9.114  22.958  0.00  0.00    +0.000 F 
ATOM     25  C   UNL     1       0.574  10.396  20.950  0.00  0.00    +0.000 A 
ATOM     26  F   UNL     1       0.029  11.435  21.631  0.00  0.00    +0.000 F 
ATOM     27  C   UNL     1       0.799  10.504  19.577  0.00  0.00    +0.000 A 
ATOM     28  C   UNL     1       1.365   9.439  18.867  0.00  0.00    +0.000 A 
ATOM     29  F   UNL     1       1.579   9.580  17.535  0.00  0.00    +0.000 F 
ENDBRANCH  20  21
ENDBRANCH  16  20
ENDBRANCH   1  16
TORSDOF 6
ENDMDL
MODEL 2
REMARK VINA RESULT:      -8.2      1.355      2.291
REMARK  Name = 
REMARK  6 active torsions:
REMARK  status: ('A' for Active; 'I' for Inactive)
REMARK    1  A    between atoms: N_1  and  C_2
REMARK    2  A    between atoms: C_2  and  C_3
REMARK    3  A    between atoms: C_2  and  C_18
REMARK    4  A    between atoms: C_3  and  C_4
REMARK    5  A    between atoms: C_12  and  C_13
REMARK    6  A    between atoms: C_18  and  C_19
REMARK                            x       y       z     vdW  Elec       q    Type
REMARK                         _______ _______ _______ _____ _____    ______ ____
ROOT
ATOM      1  C   UNL     1       2.589   5.541  19.510  0.00  0.00    +0.000 C 
ENDROOT
BRANCH   1   2
ATOM      2  C   UNL     1       3.035   4.817  18.243  0.00  0.00    +0.000 C 
ATOM      3  O   UNL     1       2.193   4.544  17.398  0.00  0.00    +0.000 OA
ATOM      4  N   UNL     1       4.354   4.495  18.014  0.00  0.00    +0.000 N 
ATOM      5  C   UNL     1       5.423   4.819  18.955  0.00  0.00    +0.000 C 
ATOM      6  C   UNL     1       6.344   5.879  18.318  0.00  0.00    +0.000 C 
ATOM      7  N   UNL     1       6.604   5.549  16.917  0.00  0.00    +0.000 N 
ATOM      8  N   UNL     1       7.524   6.103  16.145  0.00  0.00    +0.000 NA
ATOM      9  N   UNL     1       7.492   5.551  14.938  0.00  0.00    +0.000 NA
ATOM     10  C   UNL     1       6.509   4.623  14.945  0.00  0.00    +0.000 A 
ATOM     11  C   UNL     1       5.935   4.639  16.199  0.00  0.00    +0.000 A 
ATOM     12  C   UNL     1       4.783   3.858  16.758  0.00  0.00    +0.000 C 
BRANCH  10  13
ATOM     13  C   UNL     1       6.130   3.786  13.766  0.00  0.00    +0.000 C 
ATOM     14  F   UNL     1       4.820   4.042  13.410  0.00  0.00    +0.000 F 
ATOM     15  F   UNL     1       6.963   4.071  12.701  0.00  0.00    +0.000 F 
ENDBRANCH  10  13
ENDBRANCH   1   2
BRANCH   1  16
ATOM     16  C   UNL     1       2.045   6.983  19.304  0.00  0.00    +0.000 C 
BRANCH  16  17
ATOM     17  N   UNL     1       2.905   7.713  18.368  0.00  0.00    +0.000 NA
ATOM     18  H   UNL     1       3.391   8.492  18.869  0.00  0.00    +0.000 HD
ATOM     19  H   UNL     1       2.330   8.126  17.597  0.00  0.00    +0.000 HD
ENDBRANCH  16  17
BRANCH  16  20
ATOM     20  C   UNL     1       1.961   7.769  20.638  0.00  0.00    +0.000 C 
BRANCH  20  21
ATOM     21  C   UNL     1       1.014   8.951  20.575  0.00  0.00    +0.000 A 
ATOM     22  C   UNL     1       0.575   9.440  19.330  0.00  0.00    +0.000 A 
ATOM     23  C   UNL     1      -0.320  10.513  19.262  0.00  0.00    +0.000 A 
ATOM     24  F   UNL     1      -0.736  10.972  18.055  0.00  0.00    +0.000 F 
ATOM     25  C   UNL     1      -0.793  11.105  20.436  0.00  0.00    +0.000 A 
ATOM     26  F   UNL     1      -1.670  12.138  20.372  0.00  0.00    +0.000 F 
ATOM     27  C   UNL     1      -0.368  10.628  21.677  0.00  0.00    +0.000 A 
ATOM     28  C   UNL     1       0.533   9.559  21.753  0.00  0.00    +0.000 A 
ATOM     29  F   UNL     1       0.920   9.113  22.975  0.00  0.00    +0.000 F 
ENDBRANCH  20  21
ENDBRANCH  16  20
ENDBRANCH   1  16
TORSDOF 6
ENDMDL
MODEL 3
REMARK VINA RESULT:      -8.2      1.049      1.133
REMARK  Name = 
REMARK  6 active torsions:
REMARK  status: ('A' for Active; 'I' for Inactive)
REMARK    1  A    between atoms: N_1  and  C_2
REMARK    2  A    between atoms: C_2  and  C_3
REMARK    3  A    between atoms: C_2  and  C_18
REMARK    4  A    between atoms: C_3  and  C_4
REMARK    5  A    between atoms: C_12  and  C_13
REMARK    6  A    between atoms: C_18  and  C_19
REMARK                            x       y       z     vdW  Elec       q    Type
REMARK                         _______ _______ _______ _____ _____    ______ ____
ROOT
ATOM      1  C   UNL     1       2.636   4.025  19.148  0.00  0.00    +0.000 C 
ENDROOT
BRANCH   1   2
ATOM      2  C   UNL     1       3.208   3.550  17.816  0.00  0.00    +0.000 C 
ATOM      3  O   UNL     1       2.432   3.188  16.941  0.00  0.00    +0.000 OA
ATOM      4  N   UNL     1       4.562   3.549  17.562  0.00  0.00    +0.000 N 
ATOM      5  C   UNL     1       5.550   4.000  18.538  0.00  0.00    +0.000 C 
ATOM      6  C   UNL     1       6.207   5.296  18.021  0.00  0.00    +0.000 C 
ATOM      7  N   UNL     1       6.509   5.176  16.595  0.00  0.00    +0.000 N 
ATOM      8  N   UNL     1       7.273   5.994  15.890  0.00  0.00    +0.000 NA
ATOM      9  N   UNL     1       7.343   5.576  14.632  0.00  0.00    +0.000 NA
ATOM     10  C   UNL     1       6.585   4.460  14.537  0.00  0.00    +0.000 A 
ATOM     11  C   UNL     1       6.042   4.221  15.781  0.00  0.00    +0.000 A 
ATOM     12  C   UNL     1       5.098   3.154  16.250  0.00  0.00    +0.000 C 
BRANCH  10  13
ATOM     13  C   UNL     1       6.378   3.686  13.275  0.00  0.00    +0.000 C 
ATOM     14  F   UNL     1       5.046   3.729  12.911  0.00  0.00    +0.000 F 
ATOM     15  F   UNL     1       7.152   4.221  12.263  0.00  0.00    +0.000 F 
ENDBRANCH  10  13
ENDBRANCH   1   2
BRANCH   1  16
ATOM     16  C   UNL     1       1.844   5.362  19.102  0.00  0.00    +0.000 C 
BRANCH  16  17
ATOM     17  N   UNL     1       1.457   5.666  17.721  0.00  0.00    +0.000 NA
ATOM     18  H   UNL     1       2.182   5.300  17.062  0.00  0.00    +0.000 HD
ATOM     19  H   UNL     1       1.383   6.701  17.586  0.00  0.00    +0.000 HD
ENDBRANCH  16  17
BRANCH  16  20
ATOM     20  C   UNL     1       2.667   6.546  19.673  0.00  0.00    +0.000 C 
BRANCH  20  21
ATOM     21  C   UNL     1       1.819   7.759  19.997  0.00  0.00    +0.000 A 
ATOM     22  C   UNL     1       1.167   7.855  21.242  0.00  0.00    +0.000 A 
ATOM     23  C   UNL     1       0.405   8.984  21.560  0.00  0.00    +0.000 A 
ATOM     24  F   UNL     1      -0.216   9.064  22.765  0.00  0.00    +0.000 F 
ATOM     25  C   UNL     1       0.290  10.033  20.644  0.00  0.00    +0.000 A 
ATOM     26  F   UNL     1      -0.440  11.132  20.956  0.00  0.00    +0.000 F 
ATOM     27  C   UNL     1       0.932   9.951  19.407  0.00  0.00    +0.000 A 
ATOM     28  C   UNL     1       1.692   8.822  19.079  0.00  0.00    +0.000 A 
ATOM     29  F   UNL     1       2.312   8.778  17.873  0.00  0.00    +0.000 F 
ENDBRANCH  20  21
ENDBRANCH  16  20
ENDBRANCH   1  16
TORSDOF 6
ENDMDL
MODEL 4
REMARK VINA RESULT:      -8.1      3.855      8.543
REMARK  Name = 
REMARK  6 active torsions:
REMARK  status: ('A' for Active; 'I' for Inactive)
REMARK    1  A    between atoms: N_1  and  C_2
REMARK    2  A    between atoms: C_2  and  C_3
REMARK    3  A    between atoms: C_2  and  C_18
REMARK    4  A    between atoms: C_3  and  C_4
REMARK    5  A    between atoms: C_12  and  C_13
REMARK    6  A    between atoms: C_18  and  C_19
REMARK                            x       y       z     vdW  Elec       q    Type
REMARK                         _______ _______ _______ _____ _____    ______ ____
ROOT
ATOM      1  C   UNL     1       3.321   7.624  17.756  0.00  0.00    +0.000 C 
ENDROOT
BRANCH   1   2
ATOM      2  C   UNL     1       2.385   7.715  18.958  0.00  0.00    +0.000 C 
ATOM      3  O   UNL     1       2.546   6.934  19.886  0.00  0.00    +0.000 OA
ATOM      4  N   UNL     1       1.393   8.668  19.040  0.00  0.00    +0.000 N 
ATOM      5  C   UNL     1       1.161   9.659  17.992  0.00  0.00    +0.000 C 
ATOM      6  C   UNL     1       1.519  11.056  18.539  0.00  0.00    +0.000 C 
ATOM      7  N   UNL     1       1.005  11.214  19.899  0.00  0.00    +0.000 N 
ATOM      8  N   UNL     1       0.928  12.349  20.575  0.00  0.00    +0.000 NA
ATOM      9  N   UNL     1       0.396  12.127  21.772  0.00  0.00    +0.000 NA
ATOM     10  C   UNL     1       0.140  10.803  21.858  0.00  0.00    +0.000 A 
ATOM     11  C   UNL     1       0.546  10.224  20.675  0.00  0.00    +0.000 A 
ATOM     12  C   UNL     1       0.542   8.790  20.233  0.00  0.00    +0.000 C 
BRANCH  10  13
ATOM     13  C   UNL     1      -0.445  10.134  23.061  0.00  0.00    +0.000 C 
ATOM     14  F   UNL     1      -1.572  10.816  23.476  0.00  0.00    +0.000 F 
ATOM     15  F   UNL     1      -0.781   8.829  22.755  0.00  0.00    +0.000 F 
ENDBRANCH  10  13
ENDBRANCH   1   2
BRANCH   1  16
ATOM     16  C   UNL     1       4.404   6.511  17.830  0.00  0.00    +0.000 C 
BRANCH  16  17
ATOM     17  N   UNL     1       5.617   6.948  17.131  0.00  0.00    +0.000 NA
ATOM     18  H   UNL     1       5.601   6.599  16.145  0.00  0.00    +0.000 HD
ATOM     19  H   UNL     1       6.466   6.559  17.604  0.00  0.00    +0.000 HD
ENDBRANCH  16  17
BRANCH  16  20
ATOM     20  C   UNL     1       3.912   5.178  17.212  0.00  0.00    +0.000 C 
BRANCH  20  21
ATOM     21  C   UNL     1       3.224   4.274  18.215  0.00  0.00    +0.000 A 
ATOM     22  C   UNL     1       3.975   3.625  19.214  0.00  0.00    +0.000 A 
ATOM     23  C   UNL     1       3.345   2.811  20.161  0.00  0.00    +0.000 A 
ATOM     24  F   UNL     1       4.082   2.193  21.120  0.00  0.00    +0.000 F 
ATOM     25  C   UNL     1       1.959   2.640  20.127  0.00  0.00    +0.000 A 
ATOM     26  F   UNL     1       1.346   1.860  21.052  0.00  0.00    +0.000 F 
ATOM     27  C   UNL     1       1.202   3.279  19.143  0.00  0.00    +0.000 A 
ATOM     28  C   UNL     1       1.826   4.091  18.188  0.00  0.00    +0.000 A 
ATOM     29  F   UNL     1       1.061   4.705  17.251  0.00  0.00    +0.000 F 
ENDBRANCH  20  21
ENDBRANCH  16  20
ENDBRANCH   1  16
TORSDOF 6
ENDMDL
MODEL 5
REMARK VINA RESULT:      -8.0      1.215      1.414
REMARK  Name = 
REMARK  6 active torsions:
REMARK  status: ('A' for Active; 'I' for Inactive)
REMARK    1  A    between atoms: N_1  and  C_2
REMARK    2  A    between atoms: C_2  and  C_3
REMARK    3  A    between atoms: C_2  and  C_18
REMARK    4  A    between atoms: C_3  and  C_4
REMARK    5  A    between atoms: C_12  and  C_13
REMARK    6  A    between atoms: C_18  and  C_19
REMARK                            x       y       z     vdW  Elec       q    Type
REMARK                         _______ _______ _______ _____ _____    ______ ____
ROOT
ATOM      1  C   UNL     1       2.467   5.314  19.356  0.00  0.00    +0.000 C 
ENDROOT
BRANCH   1   2
ATOM      2  C   UNL     1       2.972   4.598  18.107  0.00  0.00    +0.000 C 
ATOM      3  O   UNL     1       2.159   4.258  17.258  0.00  0.00    +0.000 OA
ATOM      4  N   UNL     1       4.312   4.356  17.897  0.00  0.00    +0.000 N 
ATOM      5  C   UNL     1       5.347   4.763  18.844  0.00  0.00    +0.000 C 
ATOM      6  C   UNL     1       6.207   5.869  18.198  0.00  0.00    +0.000 C 
ATOM      7  N   UNL     1       6.503   5.532  16.806  0.00  0.00    +0.000 N 
ATOM      8  N   UNL     1       7.395   6.130  16.034  0.00  0.00    +0.000 NA
ATOM      9  N   UNL     1       7.412   5.556  14.836  0.00  0.00    +0.000 NA
ATOM     10  C   UNL     1       6.489   4.569  14.850  0.00  0.00    +0.000 A 
ATOM     11  C   UNL     1       5.901   4.570  16.096  0.00  0.00    +0.000 A 
ATOM     12  C   UNL     1       4.794   3.727  16.658  0.00  0.00    +0.000 C 
BRANCH  10  13
ATOM     13  C   UNL     1       6.178   3.689  13.682  0.00  0.00    +0.000 C 
ATOM     14  F   UNL     1       4.874   3.894  13.274  0.00  0.00    +0.000 F 
ATOM     15  F   UNL     1       7.038   3.971  12.638  0.00  0.00    +0.000 F 
ENDBRANCH  10  13
ENDBRANCH   1   2
BRANCH   1  16
ATOM     16  C   UNL     1       1.897   6.743  19.129  0.00  0.00    +0.000 C 
BRANCH  16  17
ATOM     17  N   UNL     1       2.243   7.211  17.783  0.00  0.00    +0.000 NA
ATOM     18  H   UNL     1       2.107   6.435  17.094  0.00  0.00    +0.000 HD
ATOM     19  H   UNL     1       3.247   7.506  17.750  0.00  0.00    +0.000 HD
ENDBRANCH  16  17
BRANCH  16  20
ATOM     20  C   UNL     1       2.432   7.756  20.174  0.00  0.00    +0.000 C 
BRANCH  20  21
ATOM     21  C   UNL     1       1.364   8.698  20.692  0.00  0.00    +0.000 A 
ATOM     22  C   UNL     1       0.964   8.640  22.041  0.00  0.00    +0.000 A 
ATOM     23  C   UNL     1      -0.001   9.524  22.535  0.00  0.00    +0.000 A 
ATOM     24  F   UNL     1      -0.376   9.458  23.838  0.00  0.00    +0.000 F 
ATOM     25  C   UNL     1      -0.573  10.479  21.691  0.00  0.00    +0.000 A 
ATOM     26  F   UNL     1      -1.502  11.343  22.172  0.00  0.00    +0.000 F 
ATOM     27  C   UNL     1      -0.185  10.549  20.352  0.00  0.00    +0.000 A 
ATOM     28  C   UNL     1       0.776   9.664  19.849  0.00  0.00    +0.000 A 
ATOM     29  F   UNL     1       1.140   9.764  18.545  0.00  0.00    +0.000 F 
ENDBRANCH  20  21
ENDBRANCH  16  20
ENDBRANCH   1  16
TORSDOF 6
ENDMDL
MODEL 6
REMARK VINA RESULT:      -8.0      3.434      4.949
REMARK  Name = 
REMARK  6 active torsions:
REMARK  status: ('A' for Active; 'I' for Inactive)
REMARK    1  A    between atoms: N_1  and  C_2
REMARK    2  A    between atoms: C_2  and  C_3
REMARK    3  A    between atoms: C_2  and  C_18
REMARK    4  A    between atoms: C_3  and  C_4
REMARK    5  A    between atoms: C_12  and  C_13
REMARK    6  A    between atoms: C_18  and  C_19
REMARK                            x       y       z     vdW  Elec       q    Type
REMARK                         _______ _______ _______ _____ _____    ______ ____
ROOT
ATOM      1  C   UNL     1       1.674   8.528  18.754  0.00  0.00    +0.000 C 
ENDROOT
BRANCH   1   2
ATOM      2  C   UNL     1       2.663   7.863  17.801  0.00  0.00    +0.000 C 
ATOM      3  O   UNL     1       3.147   8.532  16.899  0.00  0.00    +0.000 OA
ATOM      4  N   UNL     1       3.046   6.548  17.949  0.00  0.00    +0.000 N 
ATOM      5  C   UNL     1       2.543   5.693  19.022  0.00  0.00    +0.000 C 
ATOM      6  C   UNL     1       3.703   5.364  19.984  0.00  0.00    +0.000 C 
ATOM      7  N   UNL     1       4.913   5.045  19.226  0.00  0.00    +0.000 N 
ATOM      8  N   UNL     1       6.014   4.499  19.714  0.00  0.00    +0.000 NA
ATOM      9  N   UNL     1       6.906   4.334  18.743  0.00  0.00    +0.000 NA
ATOM     10  C   UNL     1       6.350   4.805  17.605  0.00  0.00    +0.000 A 
ATOM     11  C   UNL     1       5.092   5.274  17.920  0.00  0.00    +0.000 A 
ATOM     12  C   UNL     1       4.052   5.937  17.067  0.00  0.00    +0.000 C 
BRANCH  10  13
ATOM     13  C   UNL     1       7.037   4.825  16.277  0.00  0.00    +0.000 C 
ATOM     14  F   UNL     1       6.272   4.154  15.343  0.00  0.00    +0.000 F 
ATOM     15  F   UNL     1       7.228   6.130  15.866  0.00  0.00    +0.000 F 
ENDBRANCH  10  13
ENDBRANCH   1   2
BRANCH   1  16
ATOM     16  C   UNL     1       0.932   9.774  18.191  0.00  0.00    +0.000 C 
BRANCH  16  17
ATOM     17  N   UNL     1       1.879  10.878  18.005  0.00  0.00    +0.000 NA
ATOM     18  H   UNL     1       1.852  11.201  17.010  0.00  0.00    +0.000 HD
ATOM     19  H   UNL     1       2.852  10.560  18.221  0.00  0.00    +0.000 HD
ENDBRANCH  16  17
BRANCH  16  20
ATOM     20  C   UNL     1      -0.215  10.238  19.125  0.00  0.00    +0.000 C 
BRANCH  20  21
ATOM     21  C   UNL     1      -1.502  10.540  18.383  0.00  0.00    +0.000 A 
ATOM     22  C   UNL     1      -1.796   9.874  17.177  0.00  0.00    +0.000 A 
ATOM     23  C   UNL     1      -2.993  10.126  16.500  0.00  0.00    +0.000 A 
ATOM     24  F   UNL     1      -3.264   9.476  15.339  0.00  0.00    +0.000 F 
ATOM     25  C   UNL     1      -3.915  11.038  17.021  0.00  0.00    +0.000 A 
ATOM     26  F   UNL     1      -5.081  11.275  16.371  0.00  0.00    +0.000 F 
ATOM     27  C   UNL     1      -3.637  11.703  18.217  0.00  0.00    +0.000 A 
ATOM     28  C   UNL     1      -2.437  11.461  18.897  0.00  0.00    +0.000 A 
ATOM     29  F   UNL     1      -2.202  12.116  20.062  0.00  0.00    +0.000 F 
ENDBRANCH  20  21
ENDBRANCH  16  20
ENDBRANCH   1  16
TORSDOF 6
ENDMDL
MODEL 7
REMARK VINA RESULT:      -7.9      3.116      4.905
REMARK  Name = 
REMARK  6 active torsions:
REMARK  status: ('A' for Active; 'I' for Inactive)
REMARK    1  A    between atoms: N_1  and  C_2
REMARK    2  A    between atoms: C_2  and  C_3
REMARK    3  A    between atoms: C_2  and  C_18
REMARK    4  A    between atoms: C_3  and  C_4
REMARK    5  A    between atoms: C_12  and  C_13
REMARK    6  A    between atoms: C_18  and  C_19
REMARK                            x       y       z     vdW  Elec       q    Type
REMARK                         _______ _______ _______ _____ _____    ______ ____
ROOT
ATOM      1  C   UNL     1       3.207   6.391  19.454  0.00  0.00    +0.000 C 
ENDROOT
BRANCH   1   2
ATOM      2  C   UNL     1       3.462   5.530  18.220  0.00  0.00    +0.000 C 
ATOM      3  O   UNL     1       2.531   5.311  17.457  0.00  0.00    +0.000 OA
ATOM      4  N   UNL     1       4.710   5.025  17.928  0.00  0.00    +0.000 N 
ATOM      5  C   UNL     1       5.880   5.273  18.767  0.00  0.00    +0.000 C 
ATOM      6  C   UNL     1       6.874   6.159  17.990  0.00  0.00    +0.000 C 
ATOM      7  N   UNL     1       6.982   5.703  16.604  0.00  0.00    +0.000 N 
ATOM      8  N   UNL     1       7.901   6.079  15.731  0.00  0.00    +0.000 NA
ATOM      9  N   UNL     1       7.710   5.454  14.575  0.00  0.00    +0.000 NA
ATOM     10  C   UNL     1       6.623   4.664  14.721  0.00  0.00    +0.000 A 
ATOM     11  C   UNL     1       6.152   4.840  16.005  0.00  0.00    +0.000 A 
ATOM     12  C   UNL     1       4.959   4.255  16.700  0.00  0.00    +0.000 C 
BRANCH  10  13
ATOM     13  C   UNL     1       6.054   3.803  13.639  0.00  0.00    +0.000 C 
ATOM     14  F   UNL     1       4.766   4.209  13.345  0.00  0.00    +0.000 F 
ATOM     15  F   UNL     1       6.838   3.895  12.505  0.00  0.00    +0.000 F 
ENDBRANCH  10  13
ENDBRANCH   1   2
BRANCH   1  16
ATOM     16  C   UNL     1       1.869   6.121  20.198  0.00  0.00    +0.000 C 
BRANCH  16  17
ATOM     17  N   UNL     1       1.520   7.276  21.032  0.00  0.00    +0.000 NA
ATOM     18  H   UNL     1       2.181   8.063  20.840  0.00  0.00    +0.000 HD
ATOM     19  H   UNL     1       1.594   7.025  22.046  0.00  0.00    +0.000 HD
ENDBRANCH  16  17
BRANCH  16  20
ATOM     20  C   UNL     1       1.942   4.853  21.087  0.00  0.00    +0.000 C 
BRANCH  20  21
ATOM     21  C   UNL     1       2.491   3.644  20.356  0.00  0.00    +0.000 A 
ATOM     22  C   UNL     1       3.739   3.103  20.722  0.00  0.00    +0.000 A 
ATOM     23  C   UNL     1       4.241   1.971  20.072  0.00  0.00    +0.000 A 
ATOM     24  F   UNL     1       5.444   1.459  20.436  0.00  0.00    +0.000 F 
ATOM     25  C   UNL     1       3.502   1.361  19.055  0.00  0.00    +0.000 A 
ATOM     26  F   UNL     1       3.983   0.257  18.431  0.00  0.00    +0.000 F 
ATOM     27  C   UNL     1       2.263   1.887  18.684  0.00  0.00    +0.000 A 
ATOM     28  C   UNL     1       1.756   3.023  19.326  0.00  0.00    +0.000 A 
ATOM     29  F   UNL     1       0.544   3.503  18.948  0.00  0.00    +0.000 F 
ENDBRANCH  20  21
ENDBRANCH  16  20
ENDBRANCH   1  16
TORSDOF 6
ENDMDL
MODEL 8
REMARK VINA RESULT:      -7.9      1.677      2.433
REMARK  Name = 
REMARK  6 active torsions:
REMARK  status: ('A' for Active; 'I' for Inactive)
REMARK    1  A    between atoms: N_1  and  C_2
REMARK    2  A    between atoms: C_2  and  C_3
REMARK    3  A    between atoms: C_2  and  C_18
REMARK    4  A    between atoms: C_3  and  C_4
REMARK    5  A    between atoms: C_12  and  C_13
REMARK    6  A    between atoms: C_18  and  C_19
REMARK                            x       y       z     vdW  Elec       q    Type
REMARK                         _______ _______ _______ _____ _____    ______ ____
ROOT
ATOM      1  C   UNL     1       2.266   5.567  19.484  0.00  0.00    +0.000 C 
ENDROOT
BRANCH   1   2
ATOM      2  C   UNL     1       2.782   4.862  18.234  0.00  0.00    +0.000 C 
ATOM      3  O   UNL     1       1.992   4.613  17.333  0.00  0.00    +0.000 OA
ATOM      4  N   UNL     1       4.110   4.530  18.080  0.00  0.00    +0.000 N 
ATOM      5  C   UNL     1       5.122   4.825  19.091  0.00  0.00    +0.000 C 
ATOM      6  C   UNL     1       6.091   5.887  18.532  0.00  0.00    +0.000 C 
ATOM      7  N   UNL     1       6.433   5.579  17.144  0.00  0.00    +0.000 N 
ATOM      8  N   UNL     1       7.404   6.138  16.440  0.00  0.00    +0.000 NA
ATOM      9  N   UNL     1       7.442   5.608  15.223  0.00  0.00    +0.000 NA
ATOM     10  C   UNL     1       6.451   4.691  15.153  0.00  0.00    +0.000 A 
ATOM     11  C   UNL     1       5.801   4.690  16.368  0.00  0.00    +0.000 A 
ATOM     12  C   UNL     1       4.609   3.912  16.841  0.00  0.00    +0.000 C 
BRANCH  10  13
ATOM     13  C   UNL     1       6.138   3.879  13.937  0.00  0.00    +0.000 C 
ATOM     14  F   UNL     1       4.827   4.091  13.557  0.00  0.00    +0.000 F 
ATOM     15  F   UNL     1       6.982   4.236  12.903  0.00  0.00    +0.000 F 
ENDBRANCH  10  13
ENDBRANCH   1   2
BRANCH   1  16
ATOM     16  C   UNL     1       2.436   7.113  19.503  0.00  0.00    +0.000 C 
BRANCH  16  17
ATOM     17  N   UNL     1       2.140   7.632  20.842  0.00  0.00    +0.000 NA
ATOM     18  H   UNL     1       2.238   6.865  21.547  0.00  0.00    +0.000 HD
ATOM     19  H   UNL     1       1.158   7.991  20.882  0.00  0.00    +0.000 HD
ENDBRANCH  16  17
BRANCH  16  20
ATOM     20  C   UNL     1       1.515   7.813  18.471  0.00  0.00    +0.000 C 
BRANCH  20  21
ATOM     21  C   UNL     1       1.396   9.307  18.694  0.00  0.00    +0.000 A 
ATOM     22  C   UNL     1       2.297  10.190  18.067  0.00  0.00    +0.000 A 
ATOM     23  C   UNL     1       2.179  11.572  18.246  0.00  0.00    +0.000 A 
ATOM     24  F   UNL     1       3.053  12.410  17.635  0.00  0.00    +0.000 F 
ATOM     25  C   UNL     1       1.156  12.090  19.044  0.00  0.00    +0.000 A 
ATOM     26  F   UNL     1       1.034  13.430  19.209  0.00  0.00    +0.000 F 
ATOM     27  C   UNL     1       0.255  11.226  19.670  0.00  0.00    +0.000 A 
ATOM     28  C   UNL     1       0.371   9.841  19.501  0.00  0.00    +0.000 A 
ATOM     29  F   UNL     1      -0.527   9.029  20.114  0.00  0.00    +0.000 F 
ENDBRANCH  20  21
ENDBRANCH  16  20
ENDBRANCH   1  16
TORSDOF 6
ENDMDL
MODEL 9
REMARK VINA RESULT:      -7.8      3.822      8.509
REMARK  Name = 
REMARK  6 active torsions:
REMARK  status: ('A' for Active; 'I' for Inactive)
REMARK    1  A    between atoms: N_1  and  C_2
REMARK    2  A    between atoms: C_2  and  C_3
REMARK    3  A    between atoms: C_2  and  C_18
REMARK    4  A    between atoms: C_3  and  C_4
REMARK    5  A    between atoms: C_12  and  C_13
REMARK    6  A    between atoms: C_18  and  C_19
REMARK                            x       y       z     vdW  Elec       q    Type
REMARK                         _______ _______ _______ _____ _____    ______ ____
ROOT
ATOM      1  C   UNL     1       3.612   7.479  17.485  0.00  0.00    +0.000 C 
ENDROOT
BRANCH   1   2
ATOM      2  C   UNL     1       2.705   7.517  18.710  0.00  0.00    +0.000 C 
ATOM      3  O   UNL     1       2.927   6.738  19.628  0.00  0.00    +0.000 OA
ATOM      4  N   UNL     1       1.671   8.420  18.824  0.00  0.00    +0.000 N 
ATOM      5  C   UNL     1       1.364   9.406  17.791  0.00  0.00    +0.000 C 
ATOM      6  C   UNL     1       1.669  10.815  18.339  0.00  0.00    +0.000 C 
ATOM      7  N   UNL     1       1.183  10.939  19.713  0.00  0.00    +0.000 N 
ATOM      8  N   UNL     1       1.069  12.064  20.399  0.00  0.00    +0.000 NA
ATOM      9  N   UNL     1       0.579  11.810  21.607  0.00  0.00    +0.000 NA
ATOM     10  C   UNL     1       0.389  10.474  21.690  0.00  0.00    +0.000 A 
ATOM     11  C   UNL     1       0.792   9.923  20.492  0.00  0.00    +0.000 A 
ATOM     12  C   UNL     1       0.845   8.494  20.040  0.00  0.00    +0.000 C 
BRANCH  10  13
ATOM     13  C   UNL     1      -0.132   9.770  22.902  0.00  0.00    +0.000 C 
ATOM     14  F   UNL     1      -0.942  10.621  23.628  0.00  0.00    +0.000 F 
ATOM     15  F   UNL     1      -0.856   8.656  22.522  0.00  0.00    +0.000 F 
ENDBRANCH  10  13
ENDBRANCH   1   2
BRANCH   1  16
ATOM     16  C   UNL     1       4.766   6.437  17.534  0.00  0.00    +0.000 C 
BRANCH  16  17
ATOM     17  N   UNL     1       5.935   6.952  16.814  0.00  0.00    +0.000 NA
ATOM     18  H   UNL     1       5.809   6.805  15.786  0.00  0.00    +0.000 HD
ATOM     19  H   UNL     1       6.798   6.443  17.115  0.00  0.00    +0.000 HD
ENDBRANCH  16  17
BRANCH  16  20
ATOM     20  C   UNL     1       4.348   5.076  16.920  0.00  0.00    +0.000 C 
BRANCH  20  21
ATOM     21  C   UNL     1       3.625   4.176  17.903  0.00  0.00    +0.000 A 
ATOM     22  C   UNL     1       2.273   3.844  17.695  0.00  0.00    +0.000 A 
ATOM     23  C   UNL     1       1.606   2.992  18.581  0.00  0.00    +0.000 A 
ATOM     24  F   UNL     1       0.302   2.679  18.368  0.00  0.00    +0.000 F 
ATOM     25  C   UNL     1       2.282   2.456  19.681  0.00  0.00    +0.000 A 
ATOM     26  F   UNL     1       1.639   1.622  20.535  0.00  0.00    +0.000 F 
ATOM     27  C   UNL     1       3.623   2.776  19.897  0.00  0.00    +0.000 A 
ATOM     28  C   UNL     1       4.296   3.633  19.018  0.00  0.00    +0.000 A 
ATOM     29  F   UNL     1       5.603   3.916  19.251  0.00  0.00    +0.000 F 
ENDBRANCH  20  21
ENDBRANCH  16  20
ENDBRANCH   1  16
TORSDOF 6
ENDMDL
