MODEL 1
REMARK VINA RESULT:      -8.8      0.000      0.000
REMARK  Name = 
REMARK  6 active torsions:
REMARK  status: ('A' for Active; 'I' for Inactive)
REMARK    1  A    between atoms: C_1  and  C_2
REMARK    2  A    between atoms: C_4  and  C_5
REMARK    3  A    between atoms: C_5  and  C_6
REMARK    4  A    between atoms: C_10  and  C_11
REMARK    5  A    between atoms: N_21  and  C_22
REMARK    6  A    between atoms: C_26  and  C_27
REMARK                            x       y       z     vdW  Elec       q    Type
REMARK                         _______ _______ _______ _____ _____    ______ ____
ROOT
ATOM      1  C   UNL     1       2.862   5.226  18.763  0.00  0.00    +0.000 C 
ATOM      2  N   UNL     1       1.915   4.323  18.005  0.00  0.00    +0.000 NA
ATOM      3  C   UNL     1       1.391   3.522  18.871  0.00  0.00    +0.000 C 
ATOM      4  N   UNL     1       0.517   2.564  18.489  0.00  0.00    +0.000 N 
ATOM      5  N   UNL     1       1.765   3.690  20.152  0.00  0.00    +0.000 N 
ATOM      6  C   UNL     1       1.350   2.974  21.329  0.00  0.00    +0.000 C 
ATOM      7  C   UNL     1       2.708   4.677  20.206  0.00  0.00    +0.000 C 
ATOM      8  O   UNL     1       3.298   5.040  21.217  0.00  0.00    +0.000 OA
ATOM      9  H   UNL     1       0.175   2.690  17.541  0.00  0.00    +0.000 HD
ATOM     10  H   UNL     1      -0.195   2.272  19.141  0.00  0.00    +0.000 HD
ENDROOT
BRANCH   1  14
ATOM     11  C   UNL     1       6.192   3.738  15.224  0.00  0.00    +0.000 C 
ATOM     12  C   UNL     1       5.881   4.338  16.562  0.00  0.00    +0.000 A 
ATOM     13  C   UNL     1       4.563   4.472  16.994  0.00  0.00    +0.000 A 
ATOM     14  C   UNL     1       4.298   5.037  18.248  0.00  0.00    +0.000 A 
ATOM     15  C   UNL     1       5.403   5.453  19.008  0.00  0.00    +0.000 A 
ATOM     16  C   UNL     1       6.693   5.278  18.516  0.00  0.00    +0.000 A 
ATOM     17  C   UNL     1       7.886   5.692  19.324  0.00  0.00    +0.000 C 
ATOM     18  N   UNL     1       6.939   4.728  17.308  0.00  0.00    +0.000 NA
ENDBRANCH   1  14
BRANCH   1  19
ATOM     19  C   UNL     1       2.360   6.687  18.676  0.00  0.00    +0.000 A 
ATOM     20  C   UNL     1       2.696   7.529  17.604  0.00  0.00    +0.000 A 
ATOM     21  C   UNL     1       2.361   8.881  17.622  0.00  0.00    +0.000 A 
ATOM     22  C   UNL     1       1.682   9.420  18.713  0.00  0.00    +0.000 A 
ATOM     23  C   UNL     1       1.296   8.617  19.797  0.00  0.00    +0.000 A 
ATOM     24  C   UNL     1       1.610   7.243  19.734  0.00  0.00    +0.000 A 
BRANCH  23  25
ATOM     25  C   UNL     1       0.662   9.197  20.994  0.00  0.00    +0.000 A 
ATOM     26  C   UNL     1       1.110   8.985  22.288  0.00  0.00    +0.000 A 
ATOM     27  N   UNL     1       0.578   9.556  23.393  0.00  0.00    +0.000 NA
ATOM     28  C   UNL     1      -0.461  10.374  23.183  0.00  0.00    +0.000 A 
ATOM     29  N   UNL     1      -1.002  10.663  21.991  0.00  0.00    +0.000 NA
ATOM     30  C   UNL     1      -0.419  10.065  20.929  0.00  0.00    +0.000 A 
ENDBRANCH  23  25
ENDBRANCH   1  19
TORSDOF 3
ENDMDL
MODEL 2
REMARK VINA RESULT:      -8.8      0.033      1.572
REMARK  Name = 
REMARK  6 active torsions:
REMARK  status: ('A' for Active; 'I' for Inactive)
REMARK    1  A    between atoms: C_1  and  C_2
REMARK    2  A    between atoms: C_4  and  C_5
REMARK    3  A    between atoms: C_5  and  C_6
REMARK    4  A    between atoms: C_10  and  C_11
REMARK    5  A    between atoms: N_21  and  C_22
REMARK    6  A    between atoms: C_26  and  C_27
REMARK                            x       y       z     vdW  Elec       q    Type
REMARK                         _______ _______ _______ _____ _____    ______ ____
ROOT
ATOM      1  C   UNL     1       2.870   5.265  18.759  0.00  0.00    +0.000 C 
ATOM      2  N   UNL     1       1.932   4.356  17.997  0.00  0.00    +0.000 NA
ATOM      3  C   UNL     1       1.411   3.550  18.861  0.00  0.00    +0.000 C 
ATOM      4  N   UNL     1       0.544   2.587  18.474  0.00  0.00    +0.000 N 
ATOM      5  N   UNL     1       1.780   3.719  20.143  0.00  0.00    +0.000 N 
ATOM      6  C   UNL     1       1.366   2.999  21.318  0.00  0.00    +0.000 C 
ATOM      7  C   UNL     1       2.716   4.713  20.201  0.00  0.00    +0.000 C 
ATOM      8  O   UNL     1       3.301   5.079  21.213  0.00  0.00    +0.000 OA
ATOM      9  H   UNL     1       0.205   2.712  17.526  0.00  0.00    +0.000 HD
ATOM     10  H   UNL     1      -0.168   2.289  19.123  0.00  0.00    +0.000 HD
ENDROOT
BRANCH   1  14
ATOM     11  C   UNL     1       7.904   5.690  19.307  0.00  0.00    +0.000 C 
ATOM     12  C   UNL     1       6.702   5.281  18.511  0.00  0.00    +0.000 A 
ATOM     13  C   UNL     1       5.416   5.479  19.009  0.00  0.00    +0.000 A 
ATOM     14  C   UNL     1       4.308   5.086  18.247  0.00  0.00    +0.000 A 
ATOM     15  C   UNL     1       4.568   4.493  17.002  0.00  0.00    +0.000 A 
ATOM     16  C   UNL     1       5.880   4.335  16.564  0.00  0.00    +0.000 A 
ATOM     17  C   UNL     1       6.176   3.727  15.226  0.00  0.00    +0.000 C 
ATOM     18  N   UNL     1       6.941   4.721  17.304  0.00  0.00    +0.000 NA
ENDBRANCH   1  14
BRANCH   1  19
ATOM     19  C   UNL     1       2.358   6.722  18.673  0.00  0.00    +0.000 A 
ATOM     20  C   UNL     1       2.687   7.567  17.600  0.00  0.00    +0.000 A 
ATOM     21  C   UNL     1       2.343   8.917  17.618  0.00  0.00    +0.000 A 
ATOM     22  C   UNL     1       1.662   9.451  18.710  0.00  0.00    +0.000 A 
ATOM     23  C   UNL     1       1.282   8.645  19.795  0.00  0.00    +0.000 A 
ATOM     24  C   UNL     1       1.606   7.274  19.732  0.00  0.00    +0.000 A 
BRANCH  23  25
ATOM     25  C   UNL     1       0.647   9.221  20.992  0.00  0.00    +0.000 A 
ATOM     26  C   UNL     1       1.078   8.986  22.289  0.00  0.00    +0.000 A 
ATOM     27  N   UNL     1       0.545   9.552  23.396  0.00  0.00    +0.000 NA
ATOM     28  C   UNL     1      -0.478  10.390  23.185  0.00  0.00    +0.000 A 
ATOM     29  N   UNL     1      -1.002  10.703  21.992  0.00  0.00    +0.000 NA
ATOM     30  C   UNL     1      -0.419  10.108  20.928  0.00  0.00    +0.000 A 
ENDBRANCH  23  25
ENDBRANCH   1  19
TORSDOF 3
ENDMDL
MODEL 3
REMARK VINA RESULT:      -8.8      1.857      6.962
REMARK  Name = 
REMARK  6 active torsions:
REMARK  status: ('A' for Active; 'I' for Inactive)
REMARK    1  A    between atoms: C_1  and  C_2
REMARK    2  A    between atoms: C_4  and  C_5
REMARK    3  A    between atoms: C_5  and  C_6
REMARK    4  A    between atoms: C_10  and  C_11
REMARK    5  A    between atoms: N_21  and  C_22
REMARK    6  A    between atoms: C_26  and  C_27
REMARK                            x       y       z     vdW  Elec       q    Type
REMARK                         _______ _______ _______ _____ _____    ______ ____
ROOT
ATOM      1  C   UNL     1       2.979   5.032  19.391  0.00  0.00    +0.000 C 
ATOM      2  N   UNL     1       2.905   4.318  20.721  0.00  0.00    +0.000 NA
ATOM      3  C   UNL     1       2.132   3.298  20.554  0.00  0.00    +0.000 C 
ATOM      4  N   UNL     1       1.842   2.472  21.585  0.00  0.00    +0.000 N 
ATOM      5  N   UNL     1       1.637   3.112  19.317  0.00  0.00    +0.000 N 
ATOM      6  C   UNL     1       0.774   2.072  18.823  0.00  0.00    +0.000 C 
ATOM      7  C   UNL     1       2.047   4.146  18.523  0.00  0.00    +0.000 C 
ATOM      8  O   UNL     1       1.726   4.311  17.352  0.00  0.00    +0.000 OA
ATOM      9  H   UNL     1       2.443   2.613  22.391  0.00  0.00    +0.000 HD
ATOM     10  H   UNL     1       1.650   1.502  21.388  0.00  0.00    +0.000 HD
ENDROOT
BRANCH   1  14
ATOM     11  C   UNL     1       2.075   9.680  17.546  0.00  0.00    +0.000 C 
ATOM     12  C   UNL     1       1.984   8.665  18.645  0.00  0.00    +0.000 A 
ATOM     13  C   UNL     1       2.521   7.389  18.484  0.00  0.00    +0.000 A 
ATOM     14  C   UNL     1       2.421   6.458  19.525  0.00  0.00    +0.000 A 
ATOM     15  C   UNL     1       1.762   6.874  20.693  0.00  0.00    +0.000 A 
ATOM     16  C   UNL     1       1.258   8.167  20.787  0.00  0.00    +0.000 A 
ATOM     17  C   UNL     1       0.574   8.637  22.035  0.00  0.00    +0.000 C 
ATOM     18  N   UNL     1       1.363   9.060  19.779  0.00  0.00    +0.000 NA
ENDBRANCH   1  14
BRANCH   1  19
ATOM     19  C   UNL     1       4.431   4.982  18.860  0.00  0.00    +0.000 A 
ATOM     20  C   UNL     1       5.532   5.317  19.665  0.00  0.00    +0.000 A 
ATOM     21  C   UNL     1       6.813   5.412  19.125  0.00  0.00    +0.000 A 
ATOM     22  C   UNL     1       7.021   5.174  17.768  0.00  0.00    +0.000 A 
ATOM     23  C   UNL     1       5.961   4.806  16.925  0.00  0.00    +0.000 A 
ATOM     24  C   UNL     1       4.682   4.676  17.505  0.00  0.00    +0.000 A 
BRANCH  23  25
ATOM     25  C   UNL     1       6.156   4.645  15.474  0.00  0.00    +0.000 A 
ATOM     26  C   UNL     1       7.178   5.248  14.757  0.00  0.00    +0.000 A 
ATOM     27  N   UNL     1       7.408   5.065  13.436  0.00  0.00    +0.000 NA
ATOM     28  C   UNL     1       6.561   4.240  12.807  0.00  0.00    +0.000 A 
ATOM     29  N   UNL     1       5.528   3.599  13.370  0.00  0.00    +0.000 NA
ATOM     30  C   UNL     1       5.359   3.820  14.692  0.00  0.00    +0.000 A 
ENDBRANCH  23  25
ENDBRANCH   1  19
TORSDOF 3
ENDMDL
MODEL 4
REMARK VINA RESULT:      -8.8      1.271      1.293
REMARK  Name = 
REMARK  6 active torsions:
REMARK  status: ('A' for Active; 'I' for Inactive)
REMARK    1  A    between atoms: C_1  and  C_2
REMARK    2  A    between atoms: C_4  and  C_5
REMARK    3  A    between atoms: C_5  and  C_6
REMARK    4  A    between atoms: C_10  and  C_11
REMARK    5  A    between atoms: N_21  and  C_22
REMARK    6  A    between atoms: C_26  and  C_27
REMARK                            x       y       z     vdW  Elec       q    Type
REMARK                         _______ _______ _______ _____ _____    ______ ____
ROOT
ATOM      1  C   UNL     1       3.483   5.434  18.142  0.00  0.00    +0.000 C 
ATOM      2  N   UNL     1       2.614   4.399  17.465  0.00  0.00    +0.000 NA
ATOM      3  C   UNL     1       2.441   3.443  18.316  0.00  0.00    +0.000 C 
ATOM      4  N   UNL     1       1.725   2.344  17.987  0.00  0.00    +0.000 N 
ATOM      5  N   UNL     1       3.011   3.601  19.524  0.00  0.00    +0.000 N 
ATOM      6  C   UNL     1       2.984   2.731  20.669  0.00  0.00    +0.000 C 
ATOM      7  C   UNL     1       3.724   4.767  19.522  0.00  0.00    +0.000 C 
ATOM      8  O   UNL     1       4.409   5.180  20.449  0.00  0.00    +0.000 OA
ATOM      9  H   UNL     1       1.190   2.457  17.132  0.00  0.00    +0.000 HD
ATOM     10  H   UNL     1       1.226   1.857  18.716  0.00  0.00    +0.000 HD
ENDROOT
BRANCH   1  14
ATOM     11  C   UNL     1       6.621   4.257  14.323  0.00  0.00    +0.000 C 
ATOM     12  C   UNL     1       6.289   5.051  15.550  0.00  0.00    +0.000 A 
ATOM     13  C   UNL     1       5.088   4.848  16.227  0.00  0.00    +0.000 A 
ATOM     14  C   UNL     1       4.801   5.604  17.370  0.00  0.00    +0.000 A 
ATOM     15  C   UNL     1       5.759   6.551  17.768  0.00  0.00    +0.000 A 
ATOM     16  C   UNL     1       6.941   6.692  17.049  0.00  0.00    +0.000 A 
ATOM     17  C   UNL     1       7.987   7.678  17.473  0.00  0.00    +0.000 C 
ATOM     18  N   UNL     1       7.212   5.955  15.950  0.00  0.00    +0.000 NA
ENDBRANCH   1  14
BRANCH   1  19
ATOM     19  C   UNL     1       2.685   6.750  18.303  0.00  0.00    +0.000 A 
ATOM     20  C   UNL     1       2.645   7.727  17.295  0.00  0.00    +0.000 A 
ATOM     21  C   UNL     1       2.048   8.966  17.520  0.00  0.00    +0.000 A 
ATOM     22  C   UNL     1       1.478   9.254  18.758  0.00  0.00    +0.000 A 
ATOM     23  C   UNL     1       1.463   8.303  19.790  0.00  0.00    +0.000 A 
ATOM     24  C   UNL     1       2.036   7.042  19.522  0.00  0.00    +0.000 A 
BRANCH  23  25
ATOM     25  C   UNL     1       0.947   8.633  21.129  0.00  0.00    +0.000 A 
ATOM     26  C   UNL     1       1.717   9.176  22.145  0.00  0.00    +0.000 A 
ATOM     27  N   UNL     1       1.248   9.541  23.361  0.00  0.00    +0.000 NA
ATOM     28  C   UNL     1      -0.060   9.339  23.564  0.00  0.00    +0.000 A 
ATOM     29  N   UNL     1      -0.919   8.816  22.678  0.00  0.00    +0.000 NA
ATOM     30  C   UNL     1      -0.387   8.481  21.483  0.00  0.00    +0.000 A 
ENDBRANCH  23  25
ENDBRANCH   1  19
TORSDOF 3
ENDMDL
MODEL 5
REMARK VINA RESULT:      -8.8      1.862      7.062
REMARK  Name = 
REMARK  6 active torsions:
REMARK  status: ('A' for Active; 'I' for Inactive)
REMARK    1  A    between atoms: C_1  and  C_2
REMARK    2  A    between atoms: C_4  and  C_5
REMARK    3  A    between atoms: C_5  and  C_6
REMARK    4  A    between atoms: C_10  and  C_11
REMARK    5  A    between atoms: N_21  and  C_22
REMARK    6  A    between atoms: C_26  and  C_27
REMARK                            x       y       z     vdW  Elec       q    Type
REMARK                         _______ _______ _______ _____ _____    ______ ____
ROOT
ATOM      1  C   UNL     1       2.926   5.032  19.341  0.00  0.00    +0.000 C 
ATOM      2  N   UNL     1       2.836   4.295  20.658  0.00  0.00    +0.000 NA
ATOM      3  C   UNL     1       2.063   3.280  20.465  0.00  0.00    +0.000 C 
ATOM      4  N   UNL     1       1.760   2.437  21.479  0.00  0.00    +0.000 N 
ATOM      5  N   UNL     1       1.579   3.118  19.221  0.00  0.00    +0.000 N 
ATOM      6  C   UNL     1       0.718   2.090  18.699  0.00  0.00    +0.000 C 
ATOM      7  C   UNL     1       2.000   4.164  18.449  0.00  0.00    +0.000 C 
ATOM      8  O   UNL     1       1.690   4.351  17.278  0.00  0.00    +0.000 OA
ATOM      9  H   UNL     1       2.353   2.562  22.292  0.00  0.00    +0.000 HD
ATOM     10  H   UNL     1       1.567   1.471  21.262  0.00  0.00    +0.000 HD
ENDROOT
BRANCH   1  14
ATOM     11  C   UNL     1       0.618   8.675  22.029  0.00  0.00    +0.000 C 
ATOM     12  C   UNL     1       1.281   8.192  20.775  0.00  0.00    +0.000 A 
ATOM     13  C   UNL     1       1.753   6.884  20.676  0.00  0.00    +0.000 A 
ATOM     14  C   UNL     1       2.371   6.457  19.494  0.00  0.00    +0.000 A 
ATOM     15  C   UNL     1       2.491   7.399  18.460  0.00  0.00    +0.000 A 
ATOM     16  C   UNL     1       1.988   8.686  18.625  0.00  0.00    +0.000 A 
ATOM     17  C   UNL     1       2.083   9.697  17.523  0.00  0.00    +0.000 C 
ATOM     18  N   UNL     1       1.388   9.087  19.767  0.00  0.00    +0.000 NA
ENDBRANCH   1  14
BRANCH   1  19
ATOM     19  C   UNL     1       4.383   4.987  18.823  0.00  0.00    +0.000 A 
ATOM     20  C   UNL     1       5.475   5.326  19.638  0.00  0.00    +0.000 A 
ATOM     21  C   UNL     1       6.761   5.425  19.110  0.00  0.00    +0.000 A 
ATOM     22  C   UNL     1       6.982   5.187  17.755  0.00  0.00    +0.000 A 
ATOM     23  C   UNL     1       5.930   4.814  16.902  0.00  0.00    +0.000 A 
ATOM     24  C   UNL     1       4.647   4.680  17.471  0.00  0.00    +0.000 A 
BRANCH  23  25
ATOM     25  C   UNL     1       6.139   4.653  15.453  0.00  0.00    +0.000 A 
ATOM     26  C   UNL     1       7.185   5.231  14.751  0.00  0.00    +0.000 A 
ATOM     27  N   UNL     1       7.427   5.046  13.433  0.00  0.00    +0.000 NA
ATOM     28  C   UNL     1       6.567   4.245  12.790  0.00  0.00    +0.000 A 
ATOM     29  N   UNL     1       5.511   3.629  13.339  0.00  0.00    +0.000 NA
ATOM     30  C   UNL     1       5.331   3.851  14.659  0.00  0.00    +0.000 A 
ENDBRANCH  23  25
ENDBRANCH   1  19
TORSDOF 3
ENDMDL
MODEL 6
REMARK VINA RESULT:      -8.7      1.226      1.962
REMARK  Name = 
REMARK  6 active torsions:
REMARK  status: ('A' for Active; 'I' for Inactive)
REMARK    1  A    between atoms: C_1  and  C_2
REMARK    2  A    between atoms: C_4  and  C_5
REMARK    3  A    between atoms: C_5  and  C_6
REMARK    4  A    between atoms: C_10  and  C_11
REMARK    5  A    between atoms: N_21  and  C_22
REMARK    6  A    between atoms: C_26  and  C_27
REMARK                            x       y       z     vdW  Elec       q    Type
REMARK                         _______ _______ _______ _____ _____    ______ ____
ROOT
ATOM      1  C   UNL     1       3.428   5.412  18.152  0.00  0.00    +0.000 C 
ATOM      2  N   UNL     1       2.545   4.382  17.485  0.00  0.00    +0.000 NA
ATOM      3  C   UNL     1       2.368   3.432  18.341  0.00  0.00    +0.000 C 
ATOM      4  N   UNL     1       1.640   2.338  18.022  0.00  0.00    +0.000 N 
ATOM      5  N   UNL     1       2.948   3.588  19.545  0.00  0.00    +0.000 N 
ATOM      6  C   UNL     1       2.921   2.723  20.694  0.00  0.00    +0.000 C 
ATOM      7  C   UNL     1       3.672   4.747  19.533  0.00  0.00    +0.000 C 
ATOM      8  O   UNL     1       4.368   5.158  20.454  0.00  0.00    +0.000 OA
ATOM      9  H   UNL     1       1.100   2.453  17.170  0.00  0.00    +0.000 HD
ATOM     10  H   UNL     1       1.141   1.859  18.756  0.00  0.00    +0.000 HD
ENDROOT
BRANCH   1  14
ATOM     11  C   UNL     1       7.982   7.545  17.424  0.00  0.00    +0.000 C 
ATOM     12  C   UNL     1       6.911   6.574  17.030  0.00  0.00    +0.000 A 
ATOM     13  C   UNL     1       5.727   6.483  17.759  0.00  0.00    +0.000 A 
ATOM     14  C   UNL     1       4.743   5.566  17.371  0.00  0.00    +0.000 A 
ATOM     15  C   UNL     1       5.019   4.768  16.250  0.00  0.00    +0.000 A 
ATOM     16  C   UNL     1       6.220   4.920  15.563  0.00  0.00    +0.000 A 
ATOM     17  C   UNL     1       6.522   4.095  14.349  0.00  0.00    +0.000 C 
ATOM     18  N   UNL     1       7.162   5.811  15.942  0.00  0.00    +0.000 NA
ENDBRANCH   1  14
BRANCH   1  19
ATOM     19  C   UNL     1       2.644   6.736  18.313  0.00  0.00    +0.000 A 
ATOM     20  C   UNL     1       2.617   7.714  17.307  0.00  0.00    +0.000 A 
ATOM     21  C   UNL     1       2.033   8.959  17.531  0.00  0.00    +0.000 A 
ATOM     22  C   UNL     1       1.464   9.252  18.769  0.00  0.00    +0.000 A 
ATOM     23  C   UNL     1       1.436   8.300  19.799  0.00  0.00    +0.000 A 
ATOM     24  C   UNL     1       1.996   7.033  19.531  0.00  0.00    +0.000 A 
BRANCH  23  25
ATOM     25  C   UNL     1       0.921   8.634  21.138  0.00  0.00    +0.000 A 
ATOM     26  C   UNL     1       1.691   9.182  22.151  0.00  0.00    +0.000 A 
ATOM     27  N   UNL     1       1.223   9.550  23.366  0.00  0.00    +0.000 NA
ATOM     28  C   UNL     1      -0.085   9.348  23.571  0.00  0.00    +0.000 A 
ATOM     29  N   UNL     1      -0.944   8.821  22.688  0.00  0.00    +0.000 NA
ATOM     30  C   UNL     1      -0.413   8.482  21.493  0.00  0.00    +0.000 A 
ENDBRANCH  23  25
ENDBRANCH   1  19
TORSDOF 3
ENDMDL
MODEL 7
REMARK VINA RESULT:      -8.4      3.419      8.466
REMARK  Name = 
REMARK  6 active torsions:
REMARK  status: ('A' for Active; 'I' for Inactive)
REMARK    1  A    between atoms: C_1  and  C_2
REMARK    2  A    between atoms: C_4  and  C_5
REMARK    3  A    between atoms: C_5  and  C_6
REMARK    4  A    between atoms: C_10  and  C_11
REMARK    5  A    between atoms: N_21  and  C_22
REMARK    6  A    between atoms: C_26  and  C_27
REMARK                            x       y       z     vdW  Elec       q    Type
REMARK                         _______ _______ _______ _____ _____    ______ ____
ROOT
ATOM      1  C   UNL     1       0.709  10.825  19.157  0.00  0.00    +0.000 C 
ATOM      2  N   UNL     1       1.604  11.346  18.055  0.00  0.00    +0.000 NA
ATOM      3  C   UNL     1       2.272  12.333  18.552  0.00  0.00    +0.000 C 
ATOM      4  N   UNL     1       3.143  13.033  17.790  0.00  0.00    +0.000 N 
ATOM      5  N   UNL     1       2.048  12.621  19.846  0.00  0.00    +0.000 N 
ATOM      6  C   UNL     1       2.642  13.637  20.674  0.00  0.00    +0.000 C 
ATOM      7  C   UNL     1       1.067  11.794  20.315  0.00  0.00    +0.000 C 
ATOM      8  O   UNL     1       0.586  11.831  21.442  0.00  0.00    +0.000 OA
ATOM      9  H   UNL     1       3.359  12.577  16.910  0.00  0.00    +0.000 HD
ATOM     10  H   UNL     1       3.944  13.453  18.236  0.00  0.00    +0.000 HD
ENDROOT
BRANCH   1  14
ATOM     11  C   UNL     1      -3.980  12.645  19.880  0.00  0.00    +0.000 C 
ATOM     12  C   UNL     1      -2.994  11.839  19.090  0.00  0.00    +0.000 A 
ATOM     13  C   UNL     1      -1.670  11.724  19.508  0.00  0.00    +0.000 A 
ATOM     14  C   UNL     1      -0.767  10.968  18.751  0.00  0.00    +0.000 A 
ATOM     15  C   UNL     1      -1.260  10.364  17.583  0.00  0.00    +0.000 A 
ATOM     16  C   UNL     1      -2.598  10.514  17.232  0.00  0.00    +0.000 A 
ATOM     17  C   UNL     1      -3.150   9.856  16.003  0.00  0.00    +0.000 C 
ATOM     18  N   UNL     1      -3.463  11.242  17.971  0.00  0.00    +0.000 NA
ENDBRANCH   1  14
BRANCH   1  19
ATOM     19  C   UNL     1       1.117   9.376  19.510  0.00  0.00    +0.000 A 
ATOM     20  C   UNL     1       0.865   8.815  20.772  0.00  0.00    +0.000 A 
ATOM     21  C   UNL     1       1.375   7.566  21.118  0.00  0.00    +0.000 A 
ATOM     22  C   UNL     1       2.149   6.849  20.208  0.00  0.00    +0.000 A 
ATOM     23  C   UNL     1       2.406   7.349  18.921  0.00  0.00    +0.000 A 
ATOM     24  C   UNL     1       1.843   8.597  18.583  0.00  0.00    +0.000 A 
BRANCH  23  25
ATOM     25  C   UNL     1       3.300   6.641  17.989  0.00  0.00    +0.000 A 
ATOM     26  C   UNL     1       4.292   7.261  17.244  0.00  0.00    +0.000 A 
ATOM     27  N   UNL     1       5.160   6.619  16.428  0.00  0.00    +0.000 NA
ATOM     28  C   UNL     1       5.015   5.290  16.354  0.00  0.00    +0.000 A 
ATOM     29  N   UNL     1       4.098   4.564  17.009  0.00  0.00    +0.000 NA
ATOM     30  C   UNL     1       3.268   5.265  17.811  0.00  0.00    +0.000 A 
ENDBRANCH  23  25
ENDBRANCH   1  19
TORSDOF 3
ENDMDL
MODEL 8
REMARK VINA RESULT:      -8.3      3.432      8.383
REMARK  Name = 
REMARK  6 active torsions:
REMARK  status: ('A' for Active; 'I' for Inactive)
REMARK    1  A    between atoms: C_1  and  C_2
REMARK    2  A    between atoms: C_4  and  C_5
REMARK    3  A    between atoms: C_5  and  C_6
REMARK    4  A    between atoms: C_10  and  C_11
REMARK    5  A    between atoms: N_21  and  C_22
REMARK    6  A    between atoms: C_26  and  C_27
REMARK                            x       y       z     vdW  Elec       q    Type
REMARK                         _______ _______ _______ _____ _____    ______ ____
ROOT
ATOM      1  C   UNL     1       0.674  10.917  19.207  0.00  0.00    +0.000 C 
ATOM      2  N   UNL     1       1.576  11.431  18.108  0.00  0.00    +0.000 NA
ATOM      3  C   UNL     1       2.251  12.412  18.607  0.00  0.00    +0.000 C 
ATOM      4  N   UNL     1       3.131  13.105  17.848  0.00  0.00    +0.000 N 
ATOM      5  N   UNL     1       2.026  12.702  19.900  0.00  0.00    +0.000 N 
ATOM      6  C   UNL     1       2.625  13.713  20.730  0.00  0.00    +0.000 C 
ATOM      7  C   UNL     1       1.037  11.882  20.366  0.00  0.00    +0.000 C 
ATOM      8  O   UNL     1       0.552  11.924  21.491  0.00  0.00    +0.000 OA
ATOM      9  H   UNL     1       3.345  12.647  16.968  0.00  0.00    +0.000 HD
ATOM     10  H   UNL     1       3.933  13.519  18.297  0.00  0.00    +0.000 HD
ENDROOT
BRANCH   1  14
ATOM     11  C   UNL     1      -3.233   9.969  16.099  0.00  0.00    +0.000 C 
ATOM     12  C   UNL     1      -2.659  10.615  17.324  0.00  0.00    +0.000 A 
ATOM     13  C   UNL     1      -1.312  10.461  17.646  0.00  0.00    +0.000 A 
ATOM     14  C   UNL     1      -0.799  11.072  18.796  0.00  0.00    +0.000 A 
ATOM     15  C   UNL     1      -1.697  11.813  19.581  0.00  0.00    +0.000 A 
ATOM     16  C   UNL     1      -3.029  11.932  19.193  0.00  0.00    +0.000 A 
ATOM     17  C   UNL     1      -3.997  12.740  20.003  0.00  0.00    +0.000 C 
ATOM     18  N   UNL     1      -3.513  11.342  18.078  0.00  0.00    +0.000 NA
ENDBRANCH   1  14
BRANCH   1  19
ATOM     19  C   UNL     1       1.069   9.464  19.561  0.00  0.00    +0.000 A 
ATOM     20  C   UNL     1       0.811   8.907  20.823  0.00  0.00    +0.000 A 
ATOM     21  C   UNL     1       1.309   7.653  21.170  0.00  0.00    +0.000 A 
ATOM     22  C   UNL     1       2.078   6.929  20.261  0.00  0.00    +0.000 A 
ATOM     23  C   UNL     1       2.341   7.426  18.975  0.00  0.00    +0.000 A 
ATOM     24  C   UNL     1       1.788   8.678  18.635  0.00  0.00    +0.000 A 
BRANCH  23  25
ATOM     25  C   UNL     1       3.229   6.710  18.043  0.00  0.00    +0.000 A 
ATOM     26  C   UNL     1       4.202   7.325  17.271  0.00  0.00    +0.000 A 
ATOM     27  N   UNL     1       5.065   6.678  16.455  0.00  0.00    +0.000 NA
ATOM     28  C   UNL     1       4.935   5.346  16.410  0.00  0.00    +0.000 A 
ATOM     29  N   UNL     1       4.038   4.622  17.093  0.00  0.00    +0.000 NA
ATOM     30  C   UNL     1       3.211   5.330  17.894  0.00  0.00    +0.000 A 
ENDBRANCH  23  25
ENDBRANCH   1  19
TORSDOF 3
ENDMDL
MODEL 9
REMARK VINA RESULT:      -8.1      2.056      7.122
REMARK  Name = 
REMARK  6 active torsions:
REMARK  status: ('A' for Active; 'I' for Inactive)
REMARK    1  A    between atoms: C_1  and  C_2
REMARK    2  A    between atoms: C_4  and  C_5
REMARK    3  A    between atoms: C_5  and  C_6
REMARK    4  A    between atoms: C_10  and  C_11
REMARK    5  A    between atoms: N_21  and  C_22
REMARK    6  A    between atoms: C_26  and  C_27
REMARK                            x       y       z     vdW  Elec       q    Type
REMARK                         _______ _______ _______ _____ _____    ______ ____
ROOT
ATOM      1  C   UNL     1       3.391   5.197  19.054  0.00  0.00    +0.000 C 
ATOM      2  N   UNL     1       3.552   4.469  20.370  0.00  0.00    +0.000 NA
ATOM      3  C   UNL     1       2.877   3.372  20.274  0.00  0.00    +0.000 C 
ATOM      4  N   UNL     1       2.800   2.513  21.315  0.00  0.00    +0.000 N 
ATOM      5  N   UNL     1       2.261   3.144  19.100  0.00  0.00    +0.000 N 
ATOM      6  C   UNL     1       1.460   2.021  18.689  0.00  0.00    +0.000 C 
ATOM      7  C   UNL     1       2.462   4.222  18.284  0.00  0.00    +0.000 C 
ATOM      8  O   UNL     1       1.988   4.360  17.163  0.00  0.00    +0.000 OA
ATOM      9  H   UNL     1       3.475   2.712  22.047  0.00  0.00    +0.000 HD
ATOM     10  H   UNL     1       2.690   1.529  21.122  0.00  0.00    +0.000 HD
ENDROOT
BRANCH   1  14
ATOM     11  C   UNL     1       2.038   9.845  17.512  0.00  0.00    +0.000 C 
ATOM     12  C   UNL     1       2.055   8.760  18.545  0.00  0.00    +0.000 A 
ATOM     13  C   UNL     1       2.706   7.553  18.301  0.00  0.00    +0.000 A 
ATOM     14  C   UNL     1       2.706   6.553  19.281  0.00  0.00    +0.000 A 
ATOM     15  C   UNL     1       2.025   6.832  20.478  0.00  0.00    +0.000 A 
ATOM     16  C   UNL     1       1.405   8.065  20.657  0.00  0.00    +0.000 A 
ATOM     17  C   UNL     1       0.696   8.391  21.936  0.00  0.00    +0.000 C 
ATOM     18  N   UNL     1       1.415   9.025  19.707  0.00  0.00    +0.000 NA
ENDBRANCH   1  14
BRANCH   1  19
ATOM     19  C   UNL     1       4.767   5.307  18.356  0.00  0.00    +0.000 A 
ATOM     20  C   UNL     1       5.845   5.996  18.934  0.00  0.00    +0.000 A 
ATOM     21  C   UNL     1       7.023   6.213  18.223  0.00  0.00    +0.000 A 
ATOM     22  C   UNL     1       7.150   5.744  16.917  0.00  0.00    +0.000 A 
ATOM     23  C   UNL     1       6.115   5.022  16.302  0.00  0.00    +0.000 A 
ATOM     24  C   UNL     1       4.950   4.780  17.059  0.00  0.00    +0.000 A 
BRANCH  23  25
ATOM     25  C   UNL     1       6.204   4.605  14.892  0.00  0.00    +0.000 A 
ATOM     26  C   UNL     1       5.178   3.979  14.202  0.00  0.00    +0.000 A 
ATOM     27  N   UNL     1       5.221   3.642  12.892  0.00  0.00    +0.000 NA
ATOM     28  C   UNL     1       6.357   3.945  12.250  0.00  0.00    +0.000 A 
ATOM     29  N   UNL     1       7.428   4.539  12.792  0.00  0.00    +0.000 NA
ATOM     30  C   UNL     1       7.317   4.855  14.101  0.00  0.00    +0.000 A 
ENDBRANCH  23  25
ENDBRANCH   1  19
TORSDOF 3
ENDMDL
