MODEL 1
REMARK VINA RESULT:      -8.2      0.000      0.000
REMARK  Name = 
REMARK  7 active torsions:
REMARK  status: ('A' for Active; 'I' for Inactive)
REMARK    1  A    between atoms: C_1  and  O_2
REMARK    2  A    between atoms: O_2  and  C_3
REMARK    3  A    between atoms: C_6  and  C_7
REMARK    4  A    between atoms: C_8  and  C_9
REMARK    5  A    between atoms: C_11  and  N_12
REMARK    6  A    between atoms: C_23  and  O_24
REMARK    7  A    between atoms: O_24  and  C_25
REMARK                            x       y       z     vdW  Elec       q    Type
REMARK                         _______ _______ _______ _____ _____    ______ ____
ROOT
ATOM      1  C   UNL     1       3.592   5.666  18.819  0.00  0.00    +0.000 A 
ATOM      2  C   UNL     1       2.800   6.836  18.985  0.00  0.00    +0.000 A 
ATOM      3  C   UNL     1       1.871   6.910  20.027  0.00  0.00    +0.000 A 
ATOM      4  N   UNL     1       1.684   5.909  20.893  0.00  0.00    +0.000 NA
ATOM      5  C   UNL     1       2.436   4.791  20.776  0.00  0.00    +0.000 A 
ATOM      6  C   UNL     1       3.439   4.633  19.792  0.00  0.00    +0.000 A 
ATOM      7  C   UNL     1       4.217   3.331  19.822  0.00  0.00    +0.000 C 
ATOM      8  C   UNL     1       3.834   2.261  18.808  0.00  0.00    +0.000 C 
ATOM      9  C   UNL     1       2.355   1.966  18.530  0.00  0.00    +0.000 C 
ATOM     10  C   UNL     1       1.256   2.470  19.473  0.00  0.00    +0.000 C 
ATOM     11  C   UNL     1       1.563   2.359  20.970  0.00  0.00    +0.000 C 
ATOM     12  C   UNL     1       2.003   3.659  21.679  0.00  0.00    +0.000 C 
ENDROOT
BRANCH   1  16
ATOM     13  C   UNL     1       6.167   5.246  15.340  0.00  0.00    +0.000 A 
ATOM     14  C   UNL     1       4.991   4.498  15.459  0.00  0.00    +0.000 A 
ATOM     15  C   UNL     1       4.181   4.610  16.596  0.00  0.00    +0.000 A 
ATOM     16  C   UNL     1       4.483   5.512  17.628  0.00  0.00    +0.000 A 
ATOM     17  C   UNL     1       5.669   6.243  17.477  0.00  0.00    +0.000 A 
ATOM     18  C   UNL     1       6.553   6.067  16.399  0.00  0.00    +0.000 A 
BRANCH  13  20
ATOM     19  C   UNL     1       6.589   4.082  13.345  0.00  0.00    +0.000 C 
ATOM     20  O   UNL     1       6.936   5.165  14.211  0.00  0.00    +0.000 OA
ENDBRANCH  13  20
BRANCH  18  21
ATOM     21  O   UNL     1       7.701   6.792  16.566  0.00  0.00    +0.000 OA
ATOM     22  C   UNL     1       7.776   7.737  17.620  0.00  0.00    +0.000 C 
ENDBRANCH  18  21
ENDBRANCH   1  16
BRANCH   3  23
ATOM     23  N   UNL     1       0.983   7.971  20.190  0.00  0.00    +0.000 N 
ATOM     24  H   UNL     1       1.161   8.545  21.006  0.00  0.00    +0.000 HD
ATOM     25  H   UNL     1       0.041   7.585  20.183  0.00  0.00    +0.000 HD
ENDBRANCH   3  23
BRANCH   2  26
ATOM     26  C   UNL     1       2.911   7.976  18.118  0.00  0.00    +0.000 C 
ATOM     27  N   UNL     1       2.980   8.900  17.414  0.00  0.00    +0.000 NA
ENDBRANCH   2  26
TORSDOF 5
ENDMDL
MODEL 2
REMARK VINA RESULT:      -7.5      3.376      5.419
REMARK  Name = 
REMARK  7 active torsions:
REMARK  status: ('A' for Active; 'I' for Inactive)
REMARK    1  A    between atoms: C_1  and  O_2
REMARK    2  A    between atoms: O_2  and  C_3
REMARK    3  A    between atoms: C_6  and  C_7
REMARK    4  A    between atoms: C_8  and  C_9
REMARK    5  A    between atoms: C_11  and  N_12
REMARK    6  A    between atoms: C_23  and  O_24
REMARK    7  A    between atoms: O_24  and  C_25
REMARK                            x       y       z     vdW  Elec       q    Type
REMARK                         _______ _______ _______ _____ _____    ______ ____
ROOT
ATOM      1  C   UNL     1       3.445   5.595  17.916  0.00  0.00    +0.000 A 
ATOM      2  C   UNL     1       4.809   5.573  17.512  0.00  0.00    +0.000 A 
ATOM      3  C   UNL     1       5.454   4.353  17.291  0.00  0.00    +0.000 A 
ATOM      4  N   UNL     1       4.838   3.177  17.450  0.00  0.00    +0.000 NA
ATOM      5  C   UNL     1       3.535   3.163  17.812  0.00  0.00    +0.000 A 
ATOM      6  C   UNL     1       2.775   4.338  18.010  0.00  0.00    +0.000 A 
ATOM      7  C   UNL     1       1.316   4.146  18.379  0.00  0.00    +0.000 C 
ATOM      8  C   UNL     1       0.933   4.318  19.843  0.00  0.00    +0.000 C 
ATOM      9  C   UNL     1       1.822   3.719  20.941  0.00  0.00    +0.000 C 
ATOM     10  C   UNL     1       2.893   2.673  20.610  0.00  0.00    +0.000 C 
ATOM     11  C   UNL     1       2.483   1.602  19.593  0.00  0.00    +0.000 C 
ATOM     12  C   UNL     1       3.004   1.789  18.150  0.00  0.00    +0.000 C 
ENDROOT
BRANCH   1  16
ATOM     13  C   UNL     1       1.489   9.320  19.013  0.00  0.00    +0.000 A 
ATOM     14  C   UNL     1       1.922   9.093  17.702  0.00  0.00    +0.000 A 
ATOM     15  C   UNL     1       2.583   7.907  17.359  0.00  0.00    +0.000 A 
ATOM     16  C   UNL     1       2.783   6.880  18.295  0.00  0.00    +0.000 A 
ATOM     17  C   UNL     1       2.338   7.141  19.598  0.00  0.00    +0.000 A 
ATOM     18  C   UNL     1       1.773   8.367  19.990  0.00  0.00    +0.000 A 
BRANCH  13  20
ATOM     19  C   UNL     1      -0.497  10.547  18.759  0.00  0.00    +0.000 C 
ATOM     20  O   UNL     1       0.808  10.462  19.337  0.00  0.00    +0.000 OA
ENDBRANCH  13  20
BRANCH  18  21
ATOM     21  O   UNL     1       1.562   8.414  21.341  0.00  0.00    +0.000 OA
ATOM     22  C   UNL     1       0.233   8.457  21.833  0.00  0.00    +0.000 C 
ENDBRANCH  18  21
ENDBRANCH   1  16
BRANCH   3  23
ATOM     23  N   UNL     1       6.813   4.244  17.002  0.00  0.00    +0.000 N 
ATOM     24  H   UNL     1       7.101   4.718  16.155  0.00  0.00    +0.000 HD
ATOM     25  H   UNL     1       7.044   3.252  16.992  0.00  0.00    +0.000 HD
ENDBRANCH   3  23
BRANCH   2  26
ATOM     26  C   UNL     1       5.575   6.770  17.309  0.00  0.00    +0.000 C 
ATOM     27  N   UNL     1       6.210   7.730  17.132  0.00  0.00    +0.000 NA
ENDBRANCH   2  26
TORSDOF 5
ENDMDL
MODEL 3
REMARK VINA RESULT:      -7.2      1.035      1.035
REMARK  Name = 
REMARK  7 active torsions:
REMARK  status: ('A' for Active; 'I' for Inactive)
REMARK    1  A    between atoms: C_1  and  O_2
REMARK    2  A    between atoms: O_2  and  C_3
REMARK    3  A    between atoms: C_6  and  C_7
REMARK    4  A    between atoms: C_8  and  C_9
REMARK    5  A    between atoms: C_11  and  N_12
REMARK    6  A    between atoms: C_23  and  O_24
REMARK    7  A    between atoms: O_24  and  C_25
REMARK                            x       y       z     vdW  Elec       q    Type
REMARK                         _______ _______ _______ _____ _____    ______ ____
ROOT
ATOM      1  C   UNL     1       3.682   5.262  18.734  0.00  0.00    +0.000 A 
ATOM      2  C   UNL     1       3.065   6.540  18.839  0.00  0.00    +0.000 A 
ATOM      3  C   UNL     1       2.168   6.801  19.878  0.00  0.00    +0.000 A 
ATOM      4  N   UNL     1       1.849   5.885  20.797  0.00  0.00    +0.000 NA
ATOM      5  C   UNL     1       2.434   4.667  20.739  0.00  0.00    +0.000 A 
ATOM      6  C   UNL     1       3.394   4.315  19.762  0.00  0.00    +0.000 A 
ATOM      7  C   UNL     1       3.979   2.920  19.862  0.00  0.00    +0.000 C 
ATOM      8  C   UNL     1       3.437   1.862  18.909  0.00  0.00    +0.000 C 
ATOM      9  C   UNL     1       1.929   1.766  18.651  0.00  0.00    +0.000 C 
ATOM     10  C   UNL     1       0.922   2.471  19.568  0.00  0.00    +0.000 C 
ATOM     11  C   UNL     1       1.227   2.398  21.068  0.00  0.00    +0.000 C 
ATOM     12  C   UNL     1       1.854   3.658  21.704  0.00  0.00    +0.000 C 
ENDROOT
BRANCH   1  16
ATOM     13  C   UNL     1       6.149   4.300  15.285  0.00  0.00    +0.000 A 
ATOM     14  C   UNL     1       4.753   4.296  15.195  0.00  0.00    +0.000 A 
ATOM     15  C   UNL     1       3.960   4.572  16.315  0.00  0.00    +0.000 A 
ATOM     16  C   UNL     1       4.529   4.919  17.551  0.00  0.00    +0.000 A 
ATOM     17  C   UNL     1       5.929   4.913  17.606  0.00  0.00    +0.000 A 
ATOM     18  C   UNL     1       6.743   4.531  16.526  0.00  0.00    +0.000 A 
BRANCH  13  20
ATOM     19  C   UNL     1       6.182   3.664  13.025  0.00  0.00    +0.000 C 
ATOM     20  O   UNL     1       6.922   4.070  14.180  0.00  0.00    +0.000 OA
ENDBRANCH  13  20
BRANCH  18  21
ATOM     21  O   UNL     1       8.061   4.470  16.885  0.00  0.00    +0.000 OA
ATOM     22  C   UNL     1       8.410   4.571  18.255  0.00  0.00    +0.000 C 
ENDBRANCH  18  21
ENDBRANCH   1  16
BRANCH   3  23
ATOM     23  N   UNL     1       1.441   7.985  19.985  0.00  0.00    +0.000 N 
ATOM     24  H   UNL     1       0.876   8.205  19.175  0.00  0.00    +0.000 HD
ATOM     25  H   UNL     1       2.099   8.728  20.214  0.00  0.00    +0.000 HD
ENDBRANCH   3  23
BRANCH   2  26
ATOM     26  C   UNL     1       3.328   7.604  17.911  0.00  0.00    +0.000 C 
ATOM     27  N   UNL     1       3.548   8.479  17.175  0.00  0.00    +0.000 NA
ENDBRANCH   2  26
TORSDOF 5
ENDMDL
MODEL 4
REMARK VINA RESULT:      -6.6      3.279      5.635
REMARK  Name = 
REMARK  7 active torsions:
REMARK  status: ('A' for Active; 'I' for Inactive)
REMARK    1  A    between atoms: C_1  and  O_2
REMARK    2  A    between atoms: O_2  and  C_3
REMARK    3  A    between atoms: C_6  and  C_7
REMARK    4  A    between atoms: C_8  and  C_9
REMARK    5  A    between atoms: C_11  and  N_12
REMARK    6  A    between atoms: C_23  and  O_24
REMARK    7  A    between atoms: O_24  and  C_25
REMARK                            x       y       z     vdW  Elec       q    Type
REMARK                         _______ _______ _______ _____ _____    ______ ____
ROOT
ATOM      1  C   UNL     1       3.140   5.694  18.063  0.00  0.00    +0.000 A 
ATOM      2  C   UNL     1       4.441   5.808  17.497  0.00  0.00    +0.000 A 
ATOM      3  C   UNL     1       5.087   4.675  16.995  0.00  0.00    +0.000 A 
ATOM      4  N   UNL     1       4.530   3.460  17.026  0.00  0.00    +0.000 NA
ATOM      5  C   UNL     1       3.286   3.321  17.537  0.00  0.00    +0.000 A 
ATOM      6  C   UNL     1       2.524   4.408  18.023  0.00  0.00    +0.000 A 
ATOM      7  C   UNL     1       1.131   4.084  18.529  0.00  0.00    +0.000 C 
ATOM      8  C   UNL     1       0.936   3.992  20.037  0.00  0.00    +0.000 C 
ATOM      9  C   UNL     1       1.974   3.266  20.900  0.00  0.00    +0.000 C 
ATOM     10  C   UNL     1       3.024   2.344  20.267  0.00  0.00    +0.000 C 
ATOM     11  C   UNL     1       2.517   1.436  19.140  0.00  0.00    +0.000 C 
ATOM     12  C   UNL     1       2.843   1.885  17.698  0.00  0.00    +0.000 C 
ENDROOT
BRANCH   1  16
ATOM     13  C   UNL     1       1.299   9.117  20.014  0.00  0.00    +0.000 A 
ATOM     14  C   UNL     1       1.829   8.060  20.763  0.00  0.00    +0.000 A 
ATOM     15  C   UNL     1       2.391   6.944  20.132  0.00  0.00    +0.000 A 
ATOM     16  C   UNL     1       2.496   6.865  18.734  0.00  0.00    +0.000 A 
ATOM     17  C   UNL     1       1.955   7.939  18.016  0.00  0.00    +0.000 A 
ATOM     18  C   UNL     1       1.288   9.017  18.623  0.00  0.00    +0.000 A 
BRANCH  13  20
ATOM     19  C   UNL     1       0.037   9.939  21.815  0.00  0.00    +0.000 C 
ATOM     20  O   UNL     1       0.787  10.225  20.632  0.00  0.00    +0.000 OA
ENDBRANCH  13  20
BRANCH  18  21
ATOM     21  O   UNL     1       0.727   9.850  17.694  0.00  0.00    +0.000 OA
ATOM     22  C   UNL     1      -0.678  10.035  17.688  0.00  0.00    +0.000 C 
ENDBRANCH  18  21
ENDBRANCH   1  16
BRANCH   3  23
ATOM     23  N   UNL     1       6.399   4.683  16.528  0.00  0.00    +0.000 N 
ATOM     24  H   UNL     1       6.514   4.315  15.592  0.00  0.00    +0.000 HD
ATOM     25  H   UNL     1       6.970   4.191  17.213  0.00  0.00    +0.000 HD
ENDBRANCH   3  23
BRANCH   2  26
ATOM     26  C   UNL     1       5.140   7.059  17.409  0.00  0.00    +0.000 C 
ATOM     27  N   UNL     1       5.722   8.064  17.328  0.00  0.00    +0.000 NA
ENDBRANCH   2  26
TORSDOF 5
ENDMDL
MODEL 5
REMARK VINA RESULT:      -6.6      3.221      6.111
REMARK  Name = 
REMARK  7 active torsions:
REMARK  status: ('A' for Active; 'I' for Inactive)
REMARK    1  A    between atoms: C_1  and  O_2
REMARK    2  A    between atoms: O_2  and  C_3
REMARK    3  A    between atoms: C_6  and  C_7
REMARK    4  A    between atoms: C_8  and  C_9
REMARK    5  A    between atoms: C_11  and  N_12
REMARK    6  A    between atoms: C_23  and  O_24
REMARK    7  A    between atoms: O_24  and  C_25
REMARK                            x       y       z     vdW  Elec       q    Type
REMARK                         _______ _______ _______ _____ _____    ______ ____
ROOT
ATOM      1  C   UNL     1       3.642   5.673  18.993  0.00  0.00    +0.000 A 
ATOM      2  C   UNL     1       3.114   4.428  19.435  0.00  0.00    +0.000 A 
ATOM      3  C   UNL     1       3.884   3.266  19.335  0.00  0.00    +0.000 A 
ATOM      4  N   UNL     1       5.120   3.267  18.826  0.00  0.00    +0.000 NA
ATOM      5  C   UNL     1       5.660   4.438  18.417  0.00  0.00    +0.000 A 
ATOM      6  C   UNL     1       4.989   5.677  18.522  0.00  0.00    +0.000 A 
ATOM      7  C   UNL     1       5.751   6.901  18.050  0.00  0.00    +0.000 C 
ATOM      8  C   UNL     1       5.402   7.459  16.676  0.00  0.00    +0.000 C 
ATOM      9  C   UNL     1       5.185   6.504  15.496  0.00  0.00    +0.000 C 
ATOM     10  C   UNL     1       5.634   5.040  15.569  0.00  0.00    +0.000 C 
ATOM     11  C   UNL     1       6.997   4.796  16.227  0.00  0.00    +0.000 C 
ATOM     12  C   UNL     1       6.974   4.287  17.685  0.00  0.00    +0.000 C 
ENDROOT
BRANCH   1  16
ATOM     13  C   UNL     1       1.114   9.210  18.891  0.00  0.00    +0.000 A 
ATOM     14  C   UNL     1       1.674   8.692  17.718  0.00  0.00    +0.000 A 
ATOM     15  C   UNL     1       2.516   7.573  17.758  0.00  0.00    +0.000 A 
ATOM     16  C   UNL     1       2.783   6.896  18.959  0.00  0.00    +0.000 A 
ATOM     17  C   UNL     1       2.207   7.443  20.113  0.00  0.00    +0.000 A 
ATOM     18  C   UNL     1       1.451   8.628  20.113  0.00  0.00    +0.000 A 
BRANCH  13  20
ATOM     19  C   UNL     1       0.914  11.550  18.887  0.00  0.00    +0.000 C 
ATOM     20  O   UNL     1       0.260  10.278  18.846  0.00  0.00    +0.000 OA
ENDBRANCH  13  20
BRANCH  18  21
ATOM     21  O   UNL     1       1.132   9.022  21.383  0.00  0.00    +0.000 OA
ATOM     22  C   UNL     1      -0.189   8.826  21.858  0.00  0.00    +0.000 C 
ENDBRANCH  18  21
ENDBRANCH   1  16
BRANCH   3  23
ATOM     23  N   UNL     1       3.400   1.996  19.642  0.00  0.00    +0.000 N 
ATOM     24  H   UNL     1       4.107   1.271  19.659  0.00  0.00    +0.000 HD
ATOM     25  H   UNL     1       2.647   1.790  18.988  0.00  0.00    +0.000 HD
ENDBRANCH   3  23
BRANCH   2  26
ATOM     26  C   UNL     1       1.799   4.302  19.999  0.00  0.00    +0.000 C 
ATOM     27  N   UNL     1       0.737   4.179  20.459  0.00  0.00    +0.000 NA
ENDBRANCH   2  26
TORSDOF 5
ENDMDL
MODEL 6
REMARK VINA RESULT:      -6.6      9.562     11.827
REMARK  Name = 
REMARK  7 active torsions:
REMARK  status: ('A' for Active; 'I' for Inactive)
REMARK    1  A    between atoms: C_1  and  O_2
REMARK    2  A    between atoms: O_2  and  C_3
REMARK    3  A    between atoms: C_6  and  C_7
REMARK    4  A    between atoms: C_8  and  C_9
REMARK    5  A    between atoms: C_11  and  N_12
REMARK    6  A    between atoms: C_23  and  O_24
REMARK    7  A    between atoms: O_24  and  C_25
REMARK                            x       y       z     vdW  Elec       q    Type
REMARK                         _______ _______ _______ _____ _____    ______ ____
ROOT
ATOM      1  C   UNL     1       8.970  14.924  18.205  0.00  0.00    +0.000 A 
ATOM      2  C   UNL     1       9.666  16.134  17.926  0.00  0.00    +0.000 A 
ATOM      3  C   UNL     1      10.975  16.092  17.437  0.00  0.00    +0.000 A 
ATOM      4  N   UNL     1      11.622  14.943  17.219  0.00  0.00    +0.000 NA
ATOM      5  C   UNL     1      10.981  13.775  17.454  0.00  0.00    +0.000 A 
ATOM      6  C   UNL     1       9.642  13.703  17.898  0.00  0.00    +0.000 A 
ATOM      7  C   UNL     1       9.062  12.313  18.077  0.00  0.00    +0.000 C 
ATOM      8  C   UNL     1       8.978  11.765  19.496  0.00  0.00    +0.000 C 
ATOM      9  C   UNL     1      10.155  11.956  20.460  0.00  0.00    +0.000 C 
ATOM     10  C   UNL     1      11.537  12.381  19.949  0.00  0.00    +0.000 C 
ATOM     11  C   UNL     1      11.998  11.713  18.649  0.00  0.00    +0.000 C 
ATOM     12  C   UNL     1      11.870  12.556  17.360  0.00  0.00    +0.000 C 
ENDROOT
BRANCH   1  16
ATOM     13  C   UNL     1       5.065  15.040  20.114  0.00  0.00    +0.000 A 
ATOM     14  C   UNL     1       6.239  15.043  20.876  0.00  0.00    +0.000 A 
ATOM     15  C   UNL     1       7.495  14.971  20.260  0.00  0.00    +0.000 A 
ATOM     16  C   UNL     1       7.628  14.952  18.862  0.00  0.00    +0.000 A 
ATOM     17  C   UNL     1       6.433  14.949  18.131  0.00  0.00    +0.000 A 
ATOM     18  C   UNL     1       5.162  14.909  18.729  0.00  0.00    +0.000 A 
BRANCH  13  20
ATOM     19  C   UNL     1       3.237  13.898  21.045  0.00  0.00    +0.000 C 
ATOM     20  O   UNL     1       3.841  15.151  20.715  0.00  0.00    +0.000 OA
ENDBRANCH  13  20
BRANCH  18  21
ATOM     21  O   UNL     1       4.171  14.764  17.797  0.00  0.00    +0.000 OA
ATOM     22  C   UNL     1       3.476  15.912  17.340  0.00  0.00    +0.000 C 
ENDBRANCH  18  21
ENDBRANCH   1  16
BRANCH   3  23
ATOM     23  N   UNL     1      11.759  17.227  17.244  0.00  0.00    +0.000 N 
ATOM     24  H   UNL     1      11.702  17.623  16.314  0.00  0.00    +0.000 HD
ATOM     25  H   UNL     1      12.713  16.988  17.508  0.00  0.00    +0.000 HD
ENDBRANCH   3  23
BRANCH   2  26
ATOM     26  C   UNL     1       9.075  17.429  18.120  0.00  0.00    +0.000 C 
ATOM     27  N   UNL     1       8.617  18.487  18.279  0.00  0.00    +0.000 NA
ENDBRANCH   2  26
TORSDOF 5
ENDMDL
MODEL 7
REMARK VINA RESULT:      -6.4      9.559     11.697
REMARK  Name = 
REMARK  7 active torsions:
REMARK  status: ('A' for Active; 'I' for Inactive)
REMARK    1  A    between atoms: C_1  and  O_2
REMARK    2  A    between atoms: O_2  and  C_3
REMARK    3  A    between atoms: C_6  and  C_7
REMARK    4  A    between atoms: C_8  and  C_9
REMARK    5  A    between atoms: C_11  and  N_12
REMARK    6  A    between atoms: C_23  and  O_24
REMARK    7  A    between atoms: O_24  and  C_25
REMARK                            x       y       z     vdW  Elec       q    Type
REMARK                         _______ _______ _______ _____ _____    ______ ____
ROOT
ATOM      1  C   UNL     1       9.024  14.870  18.130  0.00  0.00    +0.000 A 
ATOM      2  C   UNL     1       9.734  16.090  17.952  0.00  0.00    +0.000 A 
ATOM      3  C   UNL     1      11.088  16.068  17.607  0.00  0.00    +0.000 A 
ATOM      4  N   UNL     1      11.766  14.928  17.438  0.00  0.00    +0.000 NA
ATOM      5  C   UNL     1      11.115  13.751  17.579  0.00  0.00    +0.000 A 
ATOM      6  C   UNL     1       9.736  13.660  17.874  0.00  0.00    +0.000 A 
ATOM      7  C   UNL     1       9.154  12.262  17.962  0.00  0.00    +0.000 C 
ATOM      8  C   UNL     1       8.922  11.684  19.352  0.00  0.00    +0.000 C 
ATOM      9  C   UNL     1       9.986  11.864  20.442  0.00  0.00    +0.000 C 
ATOM     10  C   UNL     1      11.410  12.310  20.092  0.00  0.00    +0.000 C 
ATOM     11  C   UNL     1      12.016  11.672  18.837  0.00  0.00    +0.000 C 
ATOM     12  C   UNL     1      12.020  12.540  17.559  0.00  0.00    +0.000 C 
ENDROOT
BRANCH   1  16
ATOM     13  C   UNL     1       4.935  14.846  19.611  0.00  0.00    +0.000 A 
ATOM     14  C   UNL     1       5.204  14.796  18.239  0.00  0.00    +0.000 A 
ATOM     15  C   UNL     1       6.520  14.838  17.763  0.00  0.00    +0.000 A 
ATOM     16  C   UNL     1       7.618  14.874  18.638  0.00  0.00    +0.000 A 
ATOM     17  C   UNL     1       7.312  14.924  20.005  0.00  0.00    +0.000 A 
ATOM     18  C   UNL     1       5.999  14.995  20.500  0.00  0.00    +0.000 A 
BRANCH  13  20
ATOM     19  C   UNL     1       2.839  13.813  19.381  0.00  0.00    +0.000 C 
ATOM     20  O   UNL     1       3.651  14.764  20.075  0.00  0.00    +0.000 OA
ENDBRANCH  13  20
BRANCH  18  21
ATOM     21  O   UNL     1       5.982  15.184  21.855  0.00  0.00    +0.000 OA
ATOM     22  C   UNL     1       5.862  14.060  22.710  0.00  0.00    +0.000 C 
ENDBRANCH  18  21
ENDBRANCH   1  16
BRANCH   3  23
ATOM     23  N   UNL     1      11.878  17.212  17.523  0.00  0.00    +0.000 N 
ATOM     24  H   UNL     1      11.796  17.715  16.648  0.00  0.00    +0.000 HD
ATOM     25  H   UNL     1      12.837  16.937  17.726  0.00  0.00    +0.000 HD
ENDBRANCH   3  23
BRANCH   2  26
ATOM     26  C   UNL     1       9.113  17.376  18.106  0.00  0.00    +0.000 C 
ATOM     27  N   UNL     1       8.591  18.409  18.226  0.00  0.00    +0.000 NA
ENDBRANCH   2  26
TORSDOF 5
ENDMDL
MODEL 8
REMARK VINA RESULT:      -6.1      9.945     11.967
REMARK  Name = 
REMARK  7 active torsions:
REMARK  status: ('A' for Active; 'I' for Inactive)
REMARK    1  A    between atoms: C_1  and  O_2
REMARK    2  A    between atoms: O_2  and  C_3
REMARK    3  A    between atoms: C_6  and  C_7
REMARK    4  A    between atoms: C_8  and  C_9
REMARK    5  A    between atoms: C_11  and  N_12
REMARK    6  A    between atoms: C_23  and  O_24
REMARK    7  A    between atoms: O_24  and  C_25
REMARK                            x       y       z     vdW  Elec       q    Type
REMARK                         _______ _______ _______ _____ _____    ______ ____
ROOT
ATOM      1  C   UNL     1       8.796  14.846  18.549  0.00  0.00    +0.000 A 
ATOM      2  C   UNL     1       9.353  16.064  18.066  0.00  0.00    +0.000 A 
ATOM      3  C   UNL     1      10.525  16.044  17.305  0.00  0.00    +0.000 A 
ATOM      4  N   UNL     1      11.167  14.911  17.006  0.00  0.00    +0.000 NA
ATOM      5  C   UNL     1      10.652  13.734  17.431  0.00  0.00    +0.000 A 
ATOM      6  C   UNL     1       9.446  13.636  18.161  0.00  0.00    +0.000 A 
ATOM      7  C   UNL     1       8.990  12.237  18.529  0.00  0.00    +0.000 C 
ATOM      8  C   UNL     1       9.244  11.769  19.957  0.00  0.00    +0.000 C 
ATOM      9  C   UNL     1      10.590  12.061  20.629  0.00  0.00    +0.000 C 
ATOM     10  C   UNL     1      11.805  12.509  19.808  0.00  0.00    +0.000 C 
ATOM     11  C   UNL     1      12.006  11.786  18.472  0.00  0.00    +0.000 C 
ATOM     12  C   UNL     1      11.560  12.547  17.204  0.00  0.00    +0.000 C 
ENDROOT
BRANCH   1  16
ATOM     13  C   UNL     1       5.399  14.850  21.263  0.00  0.00    +0.000 A 
ATOM     14  C   UNL     1       5.214  14.915  19.878  0.00  0.00    +0.000 A 
ATOM     15  C   UNL     1       6.310  14.949  19.008  0.00  0.00    +0.000 A 
ATOM     16  C   UNL     1       7.629  14.860  19.482  0.00  0.00    +0.000 A 
ATOM     17  C   UNL     1       7.777  14.796  20.874  0.00  0.00    +0.000 A 
ATOM     18  C   UNL     1       6.698  14.873  21.771  0.00  0.00    +0.000 A 
BRANCH  13  20
ATOM     19  C   UNL     1       3.748  16.044  22.429  0.00  0.00    +0.000 C 
ATOM     20  O   UNL     1       4.327  14.776  22.110  0.00  0.00    +0.000 OA
ENDBRANCH  13  20
BRANCH  18  21
ATOM     21  O   UNL     1       7.126  14.937  23.069  0.00  0.00    +0.000 OA
ATOM     22  C   UNL     1       8.498  15.173  23.335  0.00  0.00    +0.000 C 
ENDBRANCH  18  21
ENDBRANCH   1  16
BRANCH   3  23
ATOM     23  N   UNL     1      11.191  17.196  16.891  0.00  0.00    +0.000 N 
ATOM     24  H   UNL     1      11.472  17.191  15.918  0.00  0.00    +0.000 HD
ATOM     25  H   UNL     1      11.976  17.339  17.523  0.00  0.00    +0.000 HD
ENDBRANCH   3  23
BRANCH   2  26
ATOM     26  C   UNL     1       8.754  17.344  18.323  0.00  0.00    +0.000 C 
ATOM     27  N   UNL     1       8.288  18.390  18.532  0.00  0.00    +0.000 NA
ENDBRANCH   2  26
TORSDOF 5
ENDMDL
MODEL 9
REMARK VINA RESULT:      -6.1      9.585     11.975
REMARK  Name = 
REMARK  7 active torsions:
REMARK  status: ('A' for Active; 'I' for Inactive)
REMARK    1  A    between atoms: C_1  and  O_2
REMARK    2  A    between atoms: O_2  and  C_3
REMARK    3  A    between atoms: C_6  and  C_7
REMARK    4  A    between atoms: C_8  and  C_9
REMARK    5  A    between atoms: C_11  and  N_12
REMARK    6  A    between atoms: C_23  and  O_24
REMARK    7  A    between atoms: O_24  and  C_25
REMARK                            x       y       z     vdW  Elec       q    Type
REMARK                         _______ _______ _______ _____ _____    ______ ____
ROOT
ATOM      1  C   UNL     1       9.475  14.434  20.816  0.00  0.00    +0.000 A 
ATOM      2  C   UNL     1      10.298  15.445  21.387  0.00  0.00    +0.000 A 
ATOM      3  C   UNL     1      11.189  16.160  20.581  0.00  0.00    +0.000 A 
ATOM      4  N   UNL     1      11.312  15.930  19.270  0.00  0.00    +0.000 NA
ATOM      5  C   UNL     1      10.529  14.991  18.692  0.00  0.00    +0.000 A 
ATOM      6  C   UNL     1       9.559  14.248  19.403  0.00  0.00    +0.000 A 
ATOM      7  C   UNL     1       8.740  13.259  18.597  0.00  0.00    +0.000 C 
ATOM      8  C   UNL     1       9.126  11.788  18.687  0.00  0.00    +0.000 C 
ATOM      9  C   UNL     1      10.604  11.382  18.644  0.00  0.00    +0.000 C 
ATOM     10  C   UNL     1      11.683  12.368  18.178  0.00  0.00    +0.000 C 
ATOM     11  C   UNL     1      11.316  13.228  16.964  0.00  0.00    +0.000 C 
ATOM     12  C   UNL     1      10.891  14.684  17.257  0.00  0.00    +0.000 C 
ENDROOT
BRANCH   1  16
ATOM     13  C   UNL     1       7.014  11.920  23.371  0.00  0.00    +0.000 A 
ATOM     14  C   UNL     1       8.318  11.544  23.032  0.00  0.00    +0.000 A 
ATOM     15  C   UNL     1       9.097  12.338  22.182  0.00  0.00    +0.000 A 
ATOM     16  C   UNL     1       8.625  13.563  21.684  0.00  0.00    +0.000 A 
ATOM     17  C   UNL     1       7.316  13.909  22.043  0.00  0.00    +0.000 A 
ATOM     18  C   UNL     1       6.477  13.076  22.803  0.00  0.00    +0.000 A 
BRANCH  13  20
ATOM     19  C   UNL     1       6.456  11.497  25.612  0.00  0.00    +0.000 C 
ATOM     20  O   UNL     1       6.269  11.164  24.234  0.00  0.00    +0.000 OA
ENDBRANCH  13  20
BRANCH  18  21
ATOM     21  O   UNL     1       5.208  13.579  22.885  0.00  0.00    +0.000 OA
ATOM     22  C   UNL     1       4.644  14.221  21.754  0.00  0.00    +0.000 C 
ENDBRANCH  18  21
ENDBRANCH   1  16
BRANCH   3  23
ATOM     23  N   UNL     1      12.103  17.084  21.080  0.00  0.00    +0.000 N 
ATOM     24  H   UNL     1      12.994  17.096  20.598  0.00  0.00    +0.000 HD
ATOM     25  H   UNL     1      12.202  16.908  22.078  0.00  0.00    +0.000 HD
ENDBRANCH   3  23
BRANCH   2  26
ATOM     26  C   UNL     1      10.255  15.781  22.782  0.00  0.00    +0.000 C 
ATOM     27  N   UNL     1      10.223  16.032  23.918  0.00  0.00    +0.000 NA
ENDBRANCH   2  26
TORSDOF 5
ENDMDL
