MODEL 1
REMARK VINA RESULT:      -6.7      0.000      0.000
REMARK  Name = 
REMARK  8 active torsions:
REMARK  status: ('A' for Active; 'I' for Inactive)
REMARK    1  A    between atoms: C_1  and  C_2
REMARK    2  A    between atoms: C_2  and  O_3
REMARK    3  A    between atoms: O_3  and  C_4
REMARK    4  A    between atoms: C_4  and  C_6
REMARK    5  A    between atoms: C_6  and  N_7
REMARK    6  A    between atoms: N_10  and  C_11
REMARK    7  A    between atoms: C_11  and  C_12
REMARK    8  A    between atoms: C_15  and  N_16
REMARK                            x       y       z     vdW  Elec       q    Type
REMARK                         _______ _______ _______ _____ _____    ______ ____
ROOT
ATOM      1  N   UNL     1       5.724   4.902  15.102  0.00  0.00    +0.000 NA
ATOM      2  C   UNL     1       4.523   4.631  15.919  0.00  0.00    +0.000 C 
ATOM      3  C   UNL     1       4.770   3.866  17.242  0.00  0.00    +0.000 C 
ATOM      4  N   UNL     1       5.873   4.363  18.094  0.00  0.00    +0.000 NA
ATOM      5  C   UNL     1       7.056   4.668  17.258  0.00  0.00    +0.000 C 
ATOM      6  C   UNL     1       6.761   5.485  15.975  0.00  0.00    +0.000 C 
ENDROOT
BRANCH   1   7
ATOM      7  C   UNL     1       6.242   3.702  14.399  0.00  0.00    +0.000 C 
BRANCH   7   8
ATOM      8  C   UNL     1       6.127   3.779  12.874  0.00  0.00    +0.000 C 
ATOM      9  O   UNL     1       7.027   4.001  12.076  0.00  0.00    +0.000 OA
BRANCH   8  10
ATOM     10  O   UNL     1       4.807   3.641  12.535  0.00  0.00    +0.000 OA
BRANCH  10  12
ATOM     11  C   UNL     1       3.542   3.612  10.518  0.00  0.00    +0.000 C 
ATOM     12  C   UNL     1       4.556   2.859  11.359  0.00  0.00    +0.000 C 
ENDBRANCH  10  12
ENDBRANCH   8  10
ENDBRANCH   7   8
ENDBRANCH   1   7
BRANCH   4  13
ATOM     13  C   UNL     1       5.485   5.526  18.908  0.00  0.00    +0.000 C 
BRANCH  13  14
ATOM     14  C   UNL     1       4.091   5.392  19.431  0.00  0.00    +0.000 A 
ATOM     15  C   UNL     1       3.004   6.246  19.478  0.00  0.00    +0.000 A 
ATOM     16  C   UNL     1       1.979   5.565  20.183  0.00  0.00    +0.000 A 
ATOM     17  C   UNL     1       2.509   4.336  20.498  0.00  0.00    +0.000 A 
ATOM     18  O   UNL     1       3.784   4.208  20.047  0.00  0.00    +0.000 OA
BRANCH  17  19
ATOM     19  N   UNL     1       1.973   3.221  21.207  0.00  0.00    +0.000 N 
ATOM     20  O   UNL     1       1.265   2.442  20.551  0.00  0.00    +0.000 OA
ATOM     21  O   UNL     1       2.246   3.110  22.410  0.00  0.00    +0.000 OA
ENDBRANCH  17  19
ENDBRANCH  13  14
ENDBRANCH   4  13
TORSDOF 7
ENDMDL
MODEL 2
REMARK VINA RESULT:      -6.5      1.231      1.506
REMARK  Name = 
REMARK  8 active torsions:
REMARK  status: ('A' for Active; 'I' for Inactive)
REMARK    1  A    between atoms: C_1  and  C_2
REMARK    2  A    between atoms: C_2  and  O_3
REMARK    3  A    between atoms: O_3  and  C_4
REMARK    4  A    between atoms: C_4  and  C_6
REMARK    5  A    between atoms: C_6  and  N_7
REMARK    6  A    between atoms: N_10  and  C_11
REMARK    7  A    between atoms: C_11  and  C_12
REMARK    8  A    between atoms: C_15  and  N_16
REMARK                            x       y       z     vdW  Elec       q    Type
REMARK                         _______ _______ _______ _____ _____    ______ ____
ROOT
ATOM      1  N   UNL     1       6.747   5.836  15.963  0.00  0.00    +0.000 NA
ATOM      2  C   UNL     1       5.273   5.756  16.035  0.00  0.00    +0.000 C 
ATOM      3  C   UNL     1       4.705   4.736  17.052  0.00  0.00    +0.000 C 
ATOM      4  N   UNL     1       5.289   4.767  18.411  0.00  0.00    +0.000 NA
ATOM      5  C   UNL     1       6.761   4.887  18.324  0.00  0.00    +0.000 C 
ATOM      6  C   UNL     1       7.276   5.962  17.335  0.00  0.00    +0.000 C 
ENDROOT
BRANCH   1   7
ATOM      7  C   UNL     1       7.367   4.683  15.265  0.00  0.00    +0.000 C 
BRANCH   7   8
ATOM      8  C   UNL     1       7.082   4.641  13.761  0.00  0.00    +0.000 C 
ATOM      9  O   UNL     1       7.490   5.420  12.910  0.00  0.00    +0.000 OA
BRANCH   8  10
ATOM     10  O   UNL     1       6.204   3.618  13.518  0.00  0.00    +0.000 OA
BRANCH  10  12
ATOM     11  C   UNL     1       5.982   2.165  11.645  0.00  0.00    +0.000 C 
ATOM     12  C   UNL     1       5.693   3.556  12.179  0.00  0.00    +0.000 C 
ENDBRANCH  10  12
ENDBRANCH   8  10
ENDBRANCH   7   8
ENDBRANCH   1   7
BRANCH   4  13
ATOM     13  C   UNL     1       4.718   5.832  19.252  0.00  0.00    +0.000 C 
BRANCH  13  14
ATOM     14  C   UNL     1       3.370   5.456  19.777  0.00  0.00    +0.000 A 
ATOM     15  C   UNL     1       2.232   6.179  20.086  0.00  0.00    +0.000 A 
ATOM     16  C   UNL     1       1.299   5.260  20.632  0.00  0.00    +0.000 A 
ATOM     17  C   UNL     1       1.930   4.039  20.597  0.00  0.00    +0.000 A 
ATOM     18  O   UNL     1       3.182   4.134  20.078  0.00  0.00    +0.000 OA
BRANCH  17  19
ATOM     19  N   UNL     1       1.514   2.740  21.015  0.00  0.00    +0.000 N 
ATOM     20  O   UNL     1       1.564   2.513  22.234  0.00  0.00    +0.000 OA
ATOM     21  O   UNL     1       1.137   1.942  20.147  0.00  0.00    +0.000 OA
ENDBRANCH  17  19
ENDBRANCH  13  14
ENDBRANCH   4  13
TORSDOF 7
ENDMDL
MODEL 3
REMARK VINA RESULT:      -6.5      1.785      7.355
REMARK  Name = 
REMARK  8 active torsions:
REMARK  status: ('A' for Active; 'I' for Inactive)
REMARK    1  A    between atoms: C_1  and  C_2
REMARK    2  A    between atoms: C_2  and  O_3
REMARK    3  A    between atoms: O_3  and  C_4
REMARK    4  A    between atoms: C_4  and  C_6
REMARK    5  A    between atoms: C_6  and  N_7
REMARK    6  A    between atoms: N_10  and  C_11
REMARK    7  A    between atoms: C_11  and  C_12
REMARK    8  A    between atoms: C_15  and  N_16
REMARK                            x       y       z     vdW  Elec       q    Type
REMARK                         _______ _______ _______ _____ _____    ______ ____
ROOT
ATOM      1  N   UNL     1       4.651   4.155  18.721  0.00  0.00    +0.000 NA
ATOM      2  C   UNL     1       4.470   3.556  17.382  0.00  0.00    +0.000 C 
ATOM      3  C   UNL     1       4.637   4.523  16.185  0.00  0.00    +0.000 C 
ATOM      4  N   UNL     1       5.833   5.393  16.205  0.00  0.00    +0.000 NA
ATOM      5  C   UNL     1       6.026   5.954  17.560  0.00  0.00    +0.000 C 
ATOM      6  C   UNL     1       5.905   4.933  18.718  0.00  0.00    +0.000 C 
ENDROOT
BRANCH   1   7
ATOM      7  C   UNL     1       3.509   5.000  19.148  0.00  0.00    +0.000 C 
BRANCH   7   8
ATOM      8  C   UNL     1       2.143   4.469  18.705  0.00  0.00    +0.000 C 
ATOM      9  O   UNL     1       1.471   4.858  17.759  0.00  0.00    +0.000 OA
BRANCH   8  10
ATOM     10  O   UNL     1       1.736   3.522  19.607  0.00  0.00    +0.000 OA
BRANCH  10  12
ATOM     11  C   UNL     1       1.537   2.650  21.814  0.00  0.00    +0.000 C 
ATOM     12  C   UNL     1       2.023   3.822  20.980  0.00  0.00    +0.000 C 
ENDBRANCH  10  12
ENDBRANCH   8  10
ENDBRANCH   7   8
ENDBRANCH   1   7
BRANCH   4  13
ATOM     13  C   UNL     1       7.048   4.703  15.739  0.00  0.00    +0.000 C 
BRANCH  13  14
ATOM     14  C   UNL     1       7.029   4.494  14.259  0.00  0.00    +0.000 A 
ATOM     15  C   UNL     1       7.702   5.085  13.204  0.00  0.00    +0.000 A 
ATOM     16  C   UNL     1       7.185   4.510  12.015  0.00  0.00    +0.000 A 
ATOM     17  C   UNL     1       6.248   3.594  12.433  0.00  0.00    +0.000 A 
ATOM     18  O   UNL     1       6.142   3.564  13.787  0.00  0.00    +0.000 OA
BRANCH  17  19
ATOM     19  N   UNL     1       5.387   2.716  11.711  0.00  0.00    +0.000 N 
ATOM     20  O   UNL     1       4.258   3.154  11.438  0.00  0.00    +0.000 OA
ATOM     21  O   UNL     1       5.818   1.595  11.409  0.00  0.00    +0.000 OA
ENDBRANCH  17  19
ENDBRANCH  13  14
ENDBRANCH   4  13
TORSDOF 7
ENDMDL
MODEL 4
REMARK VINA RESULT:      -6.5      1.802      7.182
REMARK  Name = 
REMARK  8 active torsions:
REMARK  status: ('A' for Active; 'I' for Inactive)
REMARK    1  A    between atoms: C_1  and  C_2
REMARK    2  A    between atoms: C_2  and  O_3
REMARK    3  A    between atoms: O_3  and  C_4
REMARK    4  A    between atoms: C_4  and  C_6
REMARK    5  A    between atoms: C_6  and  N_7
REMARK    6  A    between atoms: N_10  and  C_11
REMARK    7  A    between atoms: C_11  and  C_12
REMARK    8  A    between atoms: C_15  and  N_16
REMARK                            x       y       z     vdW  Elec       q    Type
REMARK                         _______ _______ _______ _____ _____    ______ ____
ROOT
ATOM      1  N   UNL     1       5.242   4.676  19.094  0.00  0.00    +0.000 NA
ATOM      2  C   UNL     1       5.020   3.663  18.041  0.00  0.00    +0.000 C 
ATOM      3  C   UNL     1       4.793   4.218  16.613  0.00  0.00    +0.000 C 
ATOM      4  N   UNL     1       5.747   5.249  16.148  0.00  0.00    +0.000 NA
ATOM      5  C   UNL     1       5.990   6.233  17.226  0.00  0.00    +0.000 C 
ATOM      6  C   UNL     1       6.269   5.624  18.623  0.00  0.00    +0.000 C 
ENDROOT
BRANCH   1   7
ATOM      7  C   UNL     1       4.005   5.395  19.490  0.00  0.00    +0.000 C 
BRANCH   7   8
ATOM      8  C   UNL     1       2.870   4.474  19.945  0.00  0.00    +0.000 C 
ATOM      9  O   UNL     1       2.905   3.647  20.846  0.00  0.00    +0.000 OA
BRANCH   8  10
ATOM     10  O   UNL     1       1.803   4.661  19.107  0.00  0.00    +0.000 OA
BRANCH  10  12
ATOM     11  C   UNL     1       0.506   2.685  18.825  0.00  0.00    +0.000 C 
ATOM     12  C   UNL     1       1.548   3.587  18.190  0.00  0.00    +0.000 C 
ENDBRANCH  10  12
ENDBRANCH   8  10
ENDBRANCH   7   8
ENDBRANCH   1   7
BRANCH   4  13
ATOM     13  C   UNL     1       7.012   4.675  15.659  0.00  0.00    +0.000 C 
BRANCH  13  14
ATOM     14  C   UNL     1       6.981   4.457  14.180  0.00  0.00    +0.000 A 
ATOM     15  C   UNL     1       7.650   5.036  13.117  0.00  0.00    +0.000 A 
ATOM     16  C   UNL     1       7.121   4.455  11.936  0.00  0.00    +0.000 A 
ATOM     17  C   UNL     1       6.181   3.549  12.367  0.00  0.00    +0.000 A 
ATOM     18  O   UNL     1       6.085   3.529  13.722  0.00  0.00    +0.000 OA
BRANCH  17  19
ATOM     19  N   UNL     1       5.310   2.671  11.657  0.00  0.00    +0.000 N 
ATOM     20  O   UNL     1       4.178   3.109  11.400  0.00  0.00    +0.000 OA
ATOM     21  O   UNL     1       5.737   1.549  11.349  0.00  0.00    +0.000 OA
ENDBRANCH  17  19
ENDBRANCH  13  14
ENDBRANCH   4  13
TORSDOF 7
ENDMDL
MODEL 5
REMARK VINA RESULT:      -6.5      1.015      1.244
REMARK  Name = 
REMARK  8 active torsions:
REMARK  status: ('A' for Active; 'I' for Inactive)
REMARK    1  A    between atoms: C_1  and  C_2
REMARK    2  A    between atoms: C_2  and  O_3
REMARK    3  A    between atoms: O_3  and  C_4
REMARK    4  A    between atoms: C_4  and  C_6
REMARK    5  A    between atoms: C_6  and  N_7
REMARK    6  A    between atoms: N_10  and  C_11
REMARK    7  A    between atoms: C_11  and  C_12
REMARK    8  A    between atoms: C_15  and  N_16
REMARK                            x       y       z     vdW  Elec       q    Type
REMARK                         _______ _______ _______ _____ _____    ______ ____
ROOT
ATOM      1  N   UNL     1       6.185   5.456  15.248  0.00  0.00    +0.000 NA
ATOM      2  C   UNL     1       4.873   5.211  15.881  0.00  0.00    +0.000 C 
ATOM      3  C   UNL     1       4.873   4.211  17.063  0.00  0.00    +0.000 C 
ATOM      4  N   UNL     1       5.915   4.412  18.094  0.00  0.00    +0.000 NA
ATOM      5  C   UNL     1       7.215   4.696  17.447  0.00  0.00    +0.000 C 
ATOM      6  C   UNL     1       7.169   5.746  16.309  0.00  0.00    +0.000 C 
ENDROOT
BRANCH   1   7
ATOM      7  C   UNL     1       6.648   4.334  14.395  0.00  0.00    +0.000 C 
BRANCH   7   8
ATOM      8  C   UNL     1       7.243   4.776  13.056  0.00  0.00    +0.000 C 
ATOM      9  O   UNL     1       8.199   5.521  12.882  0.00  0.00    +0.000 OA
BRANCH   8  10
ATOM     10  O   UNL     1       6.467   4.264  12.050  0.00  0.00    +0.000 OA
BRANCH  10  12
ATOM     11  C   UNL     1       7.263   2.170  11.244  0.00  0.00    +0.000 C 
ATOM     12  C   UNL     1       6.227   2.851  12.121  0.00  0.00    +0.000 C 
ENDBRANCH  10  12
ENDBRANCH   8  10
ENDBRANCH   7   8
ENDBRANCH   1   7
BRANCH   4  13
ATOM     13  C   UNL     1       5.564   5.464  19.062  0.00  0.00    +0.000 C 
BRANCH  13  14
ATOM     14  C   UNL     1       4.136   5.359  19.495  0.00  0.00    +0.000 A 
ATOM     15  C   UNL     1       3.057   6.222  19.437  0.00  0.00    +0.000 A 
ATOM     16  C   UNL     1       1.980   5.576  20.096  0.00  0.00    +0.000 A 
ATOM     17  C   UNL     1       2.476   4.356  20.490  0.00  0.00    +0.000 A 
ATOM     18  O   UNL     1       3.778   4.202  20.131  0.00  0.00    +0.000 OA
BRANCH  17  19
ATOM     19  N   UNL     1       1.883   3.272  21.203  0.00  0.00    +0.000 N 
ATOM     20  O   UNL     1       0.835   2.810  20.726  0.00  0.00    +0.000 OA
ATOM     21  O   UNL     1       2.445   2.874  22.231  0.00  0.00    +0.000 OA
ENDBRANCH  17  19
ENDBRANCH  13  14
ENDBRANCH   4  13
TORSDOF 7
ENDMDL
MODEL 6
REMARK VINA RESULT:      -6.5      0.793      1.493
REMARK  Name = 
REMARK  8 active torsions:
REMARK  status: ('A' for Active; 'I' for Inactive)
REMARK    1  A    between atoms: C_1  and  C_2
REMARK    2  A    between atoms: C_2  and  O_3
REMARK    3  A    between atoms: O_3  and  C_4
REMARK    4  A    between atoms: C_4  and  C_6
REMARK    5  A    between atoms: C_6  and  N_7
REMARK    6  A    between atoms: N_10  and  C_11
REMARK    7  A    between atoms: C_11  and  C_12
REMARK    8  A    between atoms: C_15  and  N_16
REMARK                            x       y       z     vdW  Elec       q    Type
REMARK                         _______ _______ _______ _____ _____    ______ ____
ROOT
ATOM      1  N   UNL     1       6.624   4.150  15.403  0.00  0.00    +0.000 NA
ATOM      2  C   UNL     1       7.333   5.035  16.351  0.00  0.00    +0.000 C 
ATOM      3  C   UNL     1       6.484   6.172  16.970  0.00  0.00    +0.000 C 
ATOM      4  N   UNL     1       5.163   5.787  17.513  0.00  0.00    +0.000 NA
ATOM      5  C   UNL     1       4.481   4.869  16.574  0.00  0.00    +0.000 C 
ATOM      6  C   UNL     1       5.359   3.715  16.027  0.00  0.00    +0.000 C 
ENDROOT
BRANCH   1   7
ATOM      7  C   UNL     1       6.370   4.780  14.084  0.00  0.00    +0.000 C 
BRANCH   7   8
ATOM      8  C   UNL     1       6.178   3.778  12.944  0.00  0.00    +0.000 C 
ATOM      9  O   UNL     1       7.047   3.128  12.378  0.00  0.00    +0.000 OA
BRANCH   8  10
ATOM     10  O   UNL     1       4.856   3.783  12.584  0.00  0.00    +0.000 OA
BRANCH  10  12
ATOM     11  C   UNL     1       3.414   3.627  10.696  0.00  0.00    +0.000 C 
ATOM     12  C   UNL     1       4.521   2.939  11.474  0.00  0.00    +0.000 C 
ENDBRANCH  10  12
ENDBRANCH   8  10
ENDBRANCH   7   8
ENDBRANCH   1   7
BRANCH   4  13
ATOM     13  C   UNL     1       5.249   5.198  18.860  0.00  0.00    +0.000 C 
BRANCH  13  14
ATOM     14  C   UNL     1       3.903   5.093  19.502  0.00  0.00    +0.000 A 
ATOM     15  C   UNL     1       2.941   6.021  19.858  0.00  0.00    +0.000 A 
ATOM     16  C   UNL     1       1.908   5.306  20.516  0.00  0.00    +0.000 A 
ATOM     17  C   UNL     1       2.306   3.991  20.495  0.00  0.00    +0.000 A 
ATOM     18  O   UNL     1       3.508   3.838  19.881  0.00  0.00    +0.000 OA
BRANCH  17  19
ATOM     19  N   UNL     1       1.700   2.805  21.007  0.00  0.00    +0.000 N 
ATOM     20  O   UNL     1       1.557   2.749  22.238  0.00  0.00    +0.000 OA
ATOM     21  O   UNL     1       1.365   1.927  20.201  0.00  0.00    +0.000 OA
ENDBRANCH  17  19
ENDBRANCH  13  14
ENDBRANCH   4  13
TORSDOF 7
ENDMDL
MODEL 7
REMARK VINA RESULT:      -6.4      1.448      1.796
REMARK  Name = 
REMARK  8 active torsions:
REMARK  status: ('A' for Active; 'I' for Inactive)
REMARK    1  A    between atoms: C_1  and  C_2
REMARK    2  A    between atoms: C_2  and  O_3
REMARK    3  A    between atoms: O_3  and  C_4
REMARK    4  A    between atoms: C_4  and  C_6
REMARK    5  A    between atoms: C_6  and  N_7
REMARK    6  A    between atoms: N_10  and  C_11
REMARK    7  A    between atoms: C_11  and  C_12
REMARK    8  A    between atoms: C_15  and  N_16
REMARK                            x       y       z     vdW  Elec       q    Type
REMARK                         _______ _______ _______ _____ _____    ______ ____
ROOT
ATOM      1  N   UNL     1       6.134   5.738  15.175  0.00  0.00    +0.000 NA
ATOM      2  C   UNL     1       4.878   4.962  15.238  0.00  0.00    +0.000 C 
ATOM      3  C   UNL     1       4.730   4.023  16.460  0.00  0.00    +0.000 C 
ATOM      4  N   UNL     1       5.043   4.609  17.782  0.00  0.00    +0.000 NA
ATOM      5  C   UNL     1       6.280   5.415  17.695  0.00  0.00    +0.000 C 
ATOM      6  C   UNL     1       6.353   6.381  16.485  0.00  0.00    +0.000 C 
ENDROOT
BRANCH   1   7
ATOM      7  C   UNL     1       7.312   4.924  14.786  0.00  0.00    +0.000 C 
BRANCH   7   8
ATOM      8  C   UNL     1       7.892   5.285  13.416  0.00  0.00    +0.000 C 
ATOM      9  O   UNL     1       8.944   5.866  13.189  0.00  0.00    +0.000 OA
BRANCH   8  10
ATOM     10  O   UNL     1       6.983   4.924  12.456  0.00  0.00    +0.000 OA
BRANCH  10  12
ATOM     11  C   UNL     1       5.401   3.198  12.027  0.00  0.00    +0.000 C 
ATOM     12  C   UNL     1       6.873   3.514  12.218  0.00  0.00    +0.000 C 
ENDBRANCH  10  12
ENDBRANCH   8  10
ENDBRANCH   7   8
ENDBRANCH   1   7
BRANCH   4  13
ATOM     13  C   UNL     1       3.931   5.402  18.332  0.00  0.00    +0.000 C 
BRANCH  13  14
ATOM     14  C   UNL     1       2.869   4.528  18.918  0.00  0.00    +0.000 A 
ATOM     15  C   UNL     1       1.573   4.221  18.544  0.00  0.00    +0.000 A 
ATOM     16  C   UNL     1       1.038   3.393  19.564  0.00  0.00    +0.000 A 
ATOM     17  C   UNL     1       2.054   3.239  20.477  0.00  0.00    +0.000 A 
ATOM     18  O   UNL     1       3.173   3.912  20.102  0.00  0.00    +0.000 OA
BRANCH  17  19
ATOM     19  N   UNL     1       2.124   2.532  21.713  0.00  0.00    +0.000 N 
ATOM     20  O   UNL     1       1.070   2.458  22.364  0.00  0.00    +0.000 OA
ATOM     21  O   UNL     1       3.214   2.048  22.047  0.00  0.00    +0.000 OA
ENDBRANCH  17  19
ENDBRANCH  13  14
ENDBRANCH   4  13
TORSDOF 7
ENDMDL
MODEL 8
REMARK VINA RESULT:      -6.4      1.862      7.493
REMARK  Name = 
REMARK  8 active torsions:
REMARK  status: ('A' for Active; 'I' for Inactive)
REMARK    1  A    between atoms: C_1  and  C_2
REMARK    2  A    between atoms: C_2  and  O_3
REMARK    3  A    between atoms: O_3  and  C_4
REMARK    4  A    between atoms: C_4  and  C_6
REMARK    5  A    between atoms: C_6  and  N_7
REMARK    6  A    between atoms: N_10  and  C_11
REMARK    7  A    between atoms: C_11  and  C_12
REMARK    8  A    between atoms: C_15  and  N_16
REMARK                            x       y       z     vdW  Elec       q    Type
REMARK                         _______ _______ _______ _____ _____    ______ ____
ROOT
ATOM      1  N   UNL     1       4.239   5.010  18.199  0.00  0.00    +0.000 NA
ATOM      2  C   UNL     1       4.146   4.781  16.742  0.00  0.00    +0.000 C 
ATOM      3  C   UNL     1       4.982   5.738  15.858  0.00  0.00    +0.000 C 
ATOM      4  N   UNL     1       6.391   5.943  16.260  0.00  0.00    +0.000 NA
ATOM      5  C   UNL     1       6.474   6.131  17.725  0.00  0.00    +0.000 C 
ATOM      6  C   UNL     1       5.664   5.113  18.566  0.00  0.00    +0.000 C 
ENDROOT
BRANCH   1   7
ATOM      7  C   UNL     1       3.491   6.208  18.657  0.00  0.00    +0.000 C 
BRANCH   7   8
ATOM      8  C   UNL     1       2.497   5.925  19.786  0.00  0.00    +0.000 C 
ATOM      9  O   UNL     1       1.905   6.747  20.473  0.00  0.00    +0.000 OA
BRANCH   8  10
ATOM     10  O   UNL     1       2.434   4.569  19.974  0.00  0.00    +0.000 OA
BRANCH  10  12
ATOM     11  C   UNL     1       1.310   2.991  21.358  0.00  0.00    +0.000 C 
ATOM     12  C   UNL     1       2.295   4.146  21.337  0.00  0.00    +0.000 C 
ENDBRANCH  10  12
ENDBRANCH   8  10
ENDBRANCH   7   8
ENDBRANCH   1   7
BRANCH   4  13
ATOM     13  C   UNL     1       7.276   4.854  15.815  0.00  0.00    +0.000 C 
BRANCH  13  14
ATOM     14  C   UNL     1       7.194   4.648  14.336  0.00  0.00    +0.000 A 
ATOM     15  C   UNL     1       7.824   5.236  13.255  0.00  0.00    +0.000 A 
ATOM     16  C   UNL     1       7.254   4.665  12.088  0.00  0.00    +0.000 A 
ATOM     17  C   UNL     1       6.331   3.754  12.544  0.00  0.00    +0.000 A 
ATOM     18  O   UNL     1       6.283   3.723  13.902  0.00  0.00    +0.000 OA
BRANCH  17  19
ATOM     19  N   UNL     1       5.436   2.881  11.858  0.00  0.00    +0.000 N 
ATOM     20  O   UNL     1       4.270   3.284  11.723  0.00  0.00    +0.000 OA
ATOM     21  O   UNL     1       5.877   1.798  11.449  0.00  0.00    +0.000 OA
ENDBRANCH  17  19
ENDBRANCH  13  14
ENDBRANCH   4  13
TORSDOF 7
ENDMDL
MODEL 9
REMARK VINA RESULT:      -6.3      2.153      7.289
REMARK  Name = 
REMARK  8 active torsions:
REMARK  status: ('A' for Active; 'I' for Inactive)
REMARK    1  A    between atoms: C_1  and  C_2
REMARK    2  A    between atoms: C_2  and  O_3
REMARK    3  A    between atoms: O_3  and  C_4
REMARK    4  A    between atoms: C_4  and  C_6
REMARK    5  A    between atoms: C_6  and  N_7
REMARK    6  A    between atoms: N_10  and  C_11
REMARK    7  A    between atoms: C_11  and  C_12
REMARK    8  A    between atoms: C_15  and  N_16
REMARK                            x       y       z     vdW  Elec       q    Type
REMARK                         _______ _______ _______ _____ _____    ______ ____
ROOT
ATOM      1  N   UNL     1       5.168   5.977  18.798  0.00  0.00    +0.000 NA
ATOM      2  C   UNL     1       6.418   5.196  18.690  0.00  0.00    +0.000 C 
ATOM      3  C   UNL     1       6.439   4.112  17.584  0.00  0.00    +0.000 C 
ATOM      4  N   UNL     1       5.973   4.531  16.244  0.00  0.00    +0.000 NA
ATOM      5  C   UNL     1       4.744   5.345  16.370  0.00  0.00    +0.000 C 
ATOM      6  C   UNL     1       4.796   6.453  17.452  0.00  0.00    +0.000 C 
ENDROOT
BRANCH   1   7
ATOM      7  C   UNL     1       4.051   5.219  19.415  0.00  0.00    +0.000 C 
BRANCH   7   8
ATOM      8  C   UNL     1       2.711   5.958  19.388  0.00  0.00    +0.000 C 
ATOM      9  O   UNL     1       2.452   7.039  19.900  0.00  0.00    +0.000 OA
BRANCH   8  10
ATOM     10  O   UNL     1       1.792   5.160  18.758  0.00  0.00    +0.000 OA
BRANCH  10  12
ATOM     11  C   UNL     1       0.962   3.348  20.060  0.00  0.00    +0.000 C 
ATOM     12  C   UNL     1       1.950   3.752  18.981  0.00  0.00    +0.000 C 
ENDBRANCH  10  12
ENDBRANCH   8  10
ENDBRANCH   7   8
ENDBRANCH   1   7
BRANCH   4  13
ATOM     13  C   UNL     1       7.007   5.247  15.478  0.00  0.00    +0.000 C 
BRANCH  13  14
ATOM     14  C   UNL     1       7.048   4.796  14.053  0.00  0.00    +0.000 A 
ATOM     15  C   UNL     1       7.780   5.193  12.949  0.00  0.00    +0.000 A 
ATOM     16  C   UNL     1       7.300   4.438  11.848  0.00  0.00    +0.000 A 
ATOM     17  C   UNL     1       6.324   3.621  12.366  0.00  0.00    +0.000 A 
ATOM     18  O   UNL     1       6.159   3.817  13.700  0.00  0.00    +0.000 OA
BRANCH  17  19
ATOM     19  N   UNL     1       5.474   2.650  11.758  0.00  0.00    +0.000 N 
ATOM     20  O   UNL     1       4.307   3.006  11.533  0.00  0.00    +0.000 OA
ATOM     21  O   UNL     1       5.951   1.537  11.501  0.00  0.00    +0.000 OA
ENDBRANCH  17  19
ENDBRANCH  13  14
ENDBRANCH   4  13
TORSDOF 7
ENDMDL
