MODEL 1
REMARK VINA RESULT:      -9.6      0.000      0.000
REMARK  Name = 
REMARK  3 active torsions:
REMARK  status: ('A' for Active; 'I' for Inactive)
REMARK    1  A    between atoms: S_2  and  C_4
REMARK    2  A    between atoms: S_2  and  C_14
REMARK    3  A    between atoms: C_7  and  C_8
REMARK                            x       y       z     vdW  Elec       q    Type
REMARK                         _______ _______ _______ _____ _____    ______ ____
ROOT
ATOM      1  C   UNL     1       4.694   4.651  17.694  0.00  0.00    +0.000 A 
ATOM      2  C   UNL     1       5.663   5.516  18.221  0.00  0.00    +0.000 A 
ATOM      3  C   UNL     1       6.725   5.964  17.411  0.00  0.00    +0.000 A 
ATOM      4 CL   UNL     1       7.914   7.027  18.049  0.00  0.00    +0.000 Cl
ATOM      5  C   UNL     1       6.766   5.503  16.088  0.00  0.00    +0.000 A 
ATOM      6  O   UNL     1       7.711   5.764  15.115  0.00  0.00    +0.000 OA
ATOM      7  C   UNL     1       7.310   5.075  14.014  0.00  0.00    +0.000 A 
ATOM      8  C   UNL     1       6.142   4.396  14.235  0.00  0.00    +0.000 A 
ATOM      9  C   UNL     1       5.791   4.653  15.567  0.00  0.00    +0.000 A 
ATOM     10  C   UNL     1       4.738   4.221  16.370  0.00  0.00    +0.000 A 
ATOM     11  C   UNL     1       5.453   3.572  13.220  0.00  0.00    +0.000 C 
ATOM     12  N   UNL     1       6.413   3.158  12.187  0.00  0.00    +0.000 NA
ATOM     13  C   UNL     1       7.235   4.288  11.690  0.00  0.00    +0.000 C 
ATOM     14  C   UNL     1       8.096   5.025  12.761  0.00  0.00    +0.000 C 
ATOM     15  H   UNL     1       7.026   2.452  12.592  0.00  0.00    +0.000 HD
ENDROOT
BRANCH   1  17
ATOM     16  O   UNL     1       3.926   3.205  19.731  0.00  0.00    +0.000 OA
ATOM     17  S   UNL     1       3.352   4.001  18.668  0.00  0.00    +0.000 S 
ATOM     18  O   UNL     1       2.412   3.433  17.716  0.00  0.00    +0.000 OA
BRANCH  17  19
ATOM     19  C   UNL     1       2.569   5.407  19.439  0.00  0.00    +0.000 A 
ATOM     20  C   UNL     1       2.682   6.657  18.832  0.00  0.00    +0.000 A 
ATOM     21  C   UNL     1       2.089   7.768  19.438  0.00  0.00    +0.000 A 
ATOM     22  C   UNL     1       1.377   7.674  20.653  0.00  0.00    +0.000 A 
ATOM     23  C   UNL     1       1.277   6.387  21.223  0.00  0.00    +0.000 A 
ATOM     24  C   UNL     1       1.857   5.261  20.628  0.00  0.00    +0.000 A 
BRANCH  22  25
ATOM     25  C   UNL     1       0.764   8.966  21.335  0.00  0.00    +0.000 C 
ATOM     26  C   UNL     1      -0.569   8.833  22.095  0.00  0.00    +0.000 C 
ATOM     27  C   UNL     1       0.113   9.713  23.138  0.00  0.00    +0.000 C 
ATOM     28  O   UNL     1       1.415   9.409  22.569  0.00  0.00    +0.000 OA
ENDBRANCH  22  25
ENDBRANCH  17  19
ENDBRANCH   1  17
TORSDOF 3
ENDMDL
MODEL 2
REMARK VINA RESULT:      -9.2      0.905      1.337
REMARK  Name = 
REMARK  3 active torsions:
REMARK  status: ('A' for Active; 'I' for Inactive)
REMARK    1  A    between atoms: S_2  and  C_4
REMARK    2  A    between atoms: S_2  and  C_14
REMARK    3  A    between atoms: C_7  and  C_8
REMARK                            x       y       z     vdW  Elec       q    Type
REMARK                         _______ _______ _______ _____ _____    ______ ____
ROOT
ATOM      1  C   UNL     1       4.395   5.258  17.679  0.00  0.00    +0.000 A 
ATOM      2  C   UNL     1       5.462   6.009  18.190  0.00  0.00    +0.000 A 
ATOM      3  C   UNL     1       6.613   6.224  17.406  0.00  0.00    +0.000 A 
ATOM      4 CL   UNL     1       7.922   7.148  18.024  0.00  0.00    +0.000 Cl
ATOM      5  C   UNL     1       6.638   5.654  16.127  0.00  0.00    +0.000 A 
ATOM      6  O   UNL     1       7.652   5.688  15.189  0.00  0.00    +0.000 OA
ATOM      7  C   UNL     1       7.196   4.977  14.123  0.00  0.00    +0.000 A 
ATOM      8  C   UNL     1       5.929   4.500  14.333  0.00  0.00    +0.000 A 
ATOM      9  C   UNL     1       5.567   4.917  15.620  0.00  0.00    +0.000 A 
ATOM     10  C   UNL     1       4.428   4.715  16.396  0.00  0.00    +0.000 A 
ATOM     11  C   UNL     1       5.165   3.706  13.348  0.00  0.00    +0.000 C 
ATOM     12  N   UNL     1       6.093   3.069  12.403  0.00  0.00    +0.000 NA
ATOM     13  C   UNL     1       7.099   4.018  11.866  0.00  0.00    +0.000 C 
ATOM     14  C   UNL     1       8.017   4.705  12.923  0.00  0.00    +0.000 C 
ATOM     15  H   UNL     1       6.574   2.315  12.893  0.00  0.00    +0.000 HD
ENDROOT
BRANCH   1  17
ATOM     16  O   UNL     1       3.333   4.129  19.784  0.00  0.00    +0.000 OA
ATOM     17  S   UNL     1       2.930   4.898  18.627  0.00  0.00    +0.000 S 
ATOM     18  O   UNL     1       1.960   4.386  17.674  0.00  0.00    +0.000 OA
BRANCH  17  19
ATOM     19  C   UNL     1       2.330   6.466  19.230  0.00  0.00    +0.000 A 
ATOM     20  C   UNL     1       1.884   6.555  20.548  0.00  0.00    +0.000 A 
ATOM     21  C   UNL     1       1.394   7.773  21.024  0.00  0.00    +0.000 A 
ATOM     22  C   UNL     1       1.327   8.928  20.215  0.00  0.00    +0.000 A 
ATOM     23  C   UNL     1       1.803   8.795  18.893  0.00  0.00    +0.000 A 
ATOM     24  C   UNL     1       2.305   7.585  18.399  0.00  0.00    +0.000 A 
BRANCH  22  25
ATOM     25  C   UNL     1       0.717  10.278  20.777  0.00  0.00    +0.000 C 
ATOM     26  C   UNL     1      -0.813  10.454  20.761  0.00  0.00    +0.000 C 
ATOM     27  C   UNL     1      -0.609  11.023  22.162  0.00  0.00    +0.000 C 
ATOM     28  O   UNL     1       0.711  10.420  22.234  0.00  0.00    +0.000 OA
ENDBRANCH  22  25
ENDBRANCH  17  19
ENDBRANCH   1  17
TORSDOF 3
ENDMDL
MODEL 3
REMARK VINA RESULT:      -9.2      1.317      1.501
REMARK  Name = 
REMARK  3 active torsions:
REMARK  status: ('A' for Active; 'I' for Inactive)
REMARK    1  A    between atoms: S_2  and  C_4
REMARK    2  A    between atoms: S_2  and  C_14
REMARK    3  A    between atoms: C_7  and  C_8
REMARK                            x       y       z     vdW  Elec       q    Type
REMARK                         _______ _______ _______ _____ _____    ______ ____
ROOT
ATOM      1  C   UNL     1       4.458   5.257  17.763  0.00  0.00    +0.000 A 
ATOM      2  C   UNL     1       5.510   6.038  18.260  0.00  0.00    +0.000 A 
ATOM      3  C   UNL     1       6.641   6.291  17.460  0.00  0.00    +0.000 A 
ATOM      4 CL   UNL     1       7.932   7.251  18.062  0.00  0.00    +0.000 Cl
ATOM      5  C   UNL     1       6.664   5.726  16.178  0.00  0.00    +0.000 A 
ATOM      6  O   UNL     1       7.662   5.794  15.225  0.00  0.00    +0.000 OA
ATOM      7  C   UNL     1       7.211   5.074  14.163  0.00  0.00    +0.000 A 
ATOM      8  C   UNL     1       5.962   4.559  14.390  0.00  0.00    +0.000 A 
ATOM      9  C   UNL     1       5.608   4.960  15.685  0.00  0.00    +0.000 A 
ATOM     10  C   UNL     1       4.487   4.721  16.477  0.00  0.00    +0.000 A 
ATOM     11  C   UNL     1       5.207   3.746  13.414  0.00  0.00    +0.000 C 
ATOM     12  N   UNL     1       6.140   3.140  12.452  0.00  0.00    +0.000 NA
ATOM     13  C   UNL     1       7.108   4.121  11.904  0.00  0.00    +0.000 C 
ATOM     14  C   UNL     1       8.021   4.831  12.950  0.00  0.00    +0.000 C 
ATOM     15  H   UNL     1       6.650   2.400  12.932  0.00  0.00    +0.000 HD
ENDROOT
BRANCH   1  17
ATOM     16  O   UNL     1       3.471   4.171  19.925  0.00  0.00    +0.000 OA
ATOM     17  S   UNL     1       3.019   4.851  18.731  0.00  0.00    +0.000 S 
ATOM     18  O   UNL     1       2.086   4.226  17.808  0.00  0.00    +0.000 OA
BRANCH  17  19
ATOM     19  C   UNL     1       2.315   6.404  19.253  0.00  0.00    +0.000 A 
ATOM     20  C   UNL     1       2.234   7.450  18.335  0.00  0.00    +0.000 A 
ATOM     21  C   UNL     1       1.702   8.677  18.739  0.00  0.00    +0.000 A 
ATOM     22  C   UNL     1       1.244   8.904  20.055  0.00  0.00    +0.000 A 
ATOM     23  C   UNL     1       1.332   7.813  20.946  0.00  0.00    +0.000 A 
ATOM     24  C   UNL     1       1.854   6.573  20.558  0.00  0.00    +0.000 A 
BRANCH  22  25
ATOM     25  C   UNL     1       0.695  10.325  20.489  0.00  0.00    +0.000 C 
ATOM     26  C   UNL     1       1.104  11.556  19.658  0.00  0.00    +0.000 C 
ATOM     27  C   UNL     1      -0.362  11.951  19.803  0.00  0.00    +0.000 C 
ATOM     28  O   UNL     1      -0.710  10.591  20.177  0.00  0.00    +0.000 OA
ENDBRANCH  22  25
ENDBRANCH  17  19
ENDBRANCH   1  17
TORSDOF 3
ENDMDL
MODEL 4
REMARK VINA RESULT:      -8.9      3.397      8.630
REMARK  Name = 
REMARK  3 active torsions:
REMARK  status: ('A' for Active; 'I' for Inactive)
REMARK    1  A    between atoms: S_2  and  C_4
REMARK    2  A    between atoms: S_2  and  C_14
REMARK    3  A    between atoms: C_7  and  C_8
REMARK                            x       y       z     vdW  Elec       q    Type
REMARK                         _______ _______ _______ _____ _____    ______ ____
ROOT
ATOM      1  C   UNL     1       5.499   5.993  17.645  0.00  0.00    +0.000 A 
ATOM      2  C   UNL     1       4.646   7.073  17.383  0.00  0.00    +0.000 A 
ATOM      3  C   UNL     1       3.357   7.107  17.951  0.00  0.00    +0.000 A 
ATOM      4 CL   UNL     1       2.307   8.431  17.638  0.00  0.00    +0.000 Cl
ATOM      5  C   UNL     1       2.979   6.028  18.761  0.00  0.00    +0.000 A 
ATOM      6  O   UNL     1       1.772   5.810  19.396  0.00  0.00    +0.000 OA
ATOM      7  C   UNL     1       1.902   4.620  20.041  0.00  0.00    +0.000 A 
ATOM      8  C   UNL     1       3.144   4.073  19.857  0.00  0.00    +0.000 A 
ATOM      9  C   UNL     1       3.839   4.962  19.026  0.00  0.00    +0.000 A 
ATOM     10  C   UNL     1       5.116   4.938  18.470  0.00  0.00    +0.000 A 
ATOM     11  C   UNL     1       3.586   2.793  20.448  0.00  0.00    +0.000 C 
ATOM     12  N   UNL     1       2.412   1.972  20.777  0.00  0.00    +0.000 NA
ATOM     13  C   UNL     1       1.376   2.732  21.518  0.00  0.00    +0.000 C 
ATOM     14  C   UNL     1       0.795   3.980  20.786  0.00  0.00    +0.000 C 
ATOM     15  H   UNL     1       2.013   1.628  19.904  0.00  0.00    +0.000 HD
ENDROOT
BRANCH   1  17
ATOM     16  O   UNL     1       7.892   4.947  17.749  0.00  0.00    +0.000 OA
ATOM     17  S   UNL     1       7.122   5.852  16.924  0.00  0.00    +0.000 S 
ATOM     18  O   UNL     1       7.563   7.214  16.675  0.00  0.00    +0.000 OA
BRANCH  17  19
ATOM     19  C   UNL     1       6.898   5.051  15.346  0.00  0.00    +0.000 A 
ATOM     20  C   UNL     1       5.911   4.075  15.219  0.00  0.00    +0.000 A 
ATOM     21  C   UNL     1       5.741   3.428  13.993  0.00  0.00    +0.000 A 
ATOM     22  C   UNL     1       6.539   3.723  12.867  0.00  0.00    +0.000 A 
ATOM     23  C   UNL     1       7.515   4.728  13.037  0.00  0.00    +0.000 A 
ATOM     24  C   UNL     1       7.697   5.393  14.256  0.00  0.00    +0.000 A 
BRANCH  22  25
ATOM     25  C   UNL     1       6.349   2.931  11.509  0.00  0.00    +0.000 C 
ATOM     26  C   UNL     1       7.390   1.861  11.130  0.00  0.00    +0.000 C 
ATOM     27  C   UNL     1       6.172   1.035  10.730  0.00  0.00    +0.000 C 
ATOM     28  O   UNL     1       5.305   1.904  11.507  0.00  0.00    +0.000 OA
ENDBRANCH  22  25
ENDBRANCH  17  19
ENDBRANCH   1  17
TORSDOF 3
ENDMDL
MODEL 5
REMARK VINA RESULT:      -8.4      6.364     10.873
REMARK  Name = 
REMARK  3 active torsions:
REMARK  status: ('A' for Active; 'I' for Inactive)
REMARK    1  A    between atoms: S_2  and  C_4
REMARK    2  A    between atoms: S_2  and  C_14
REMARK    3  A    between atoms: C_7  and  C_8
REMARK                            x       y       z     vdW  Elec       q    Type
REMARK                         _______ _______ _______ _____ _____    ______ ____
ROOT
ATOM      1  C   UNL     1      -1.228  11.283  18.630  0.00  0.00    +0.000 A 
ATOM      2  C   UNL     1      -1.431  10.593  17.427  0.00  0.00    +0.000 A 
ATOM      3  C   UNL     1      -2.728  10.486  16.886  0.00  0.00    +0.000 A 
ATOM      4 CL   UNL     1      -2.983   9.647  15.410  0.00  0.00    +0.000 Cl
ATOM      5  C   UNL     1      -3.776  11.080  17.600  0.00  0.00    +0.000 A 
ATOM      6  O   UNL     1      -5.125  11.084  17.304  0.00  0.00    +0.000 OA
ATOM      7  C   UNL     1      -5.724  11.777  18.309  0.00  0.00    +0.000 A 
ATOM      8  C   UNL     1      -4.816  12.228  19.229  0.00  0.00    +0.000 A 
ATOM      9  C   UNL     1      -3.564  11.775  18.791  0.00  0.00    +0.000 A 
ATOM     10  C   UNL     1      -2.279  11.886  19.317  0.00  0.00    +0.000 A 
ATOM     11  C   UNL     1      -5.166  13.024  20.423  0.00  0.00    +0.000 C 
ATOM     12  N   UNL     1      -6.579  12.807  20.763  0.00  0.00    +0.000 NA
ATOM     13  C   UNL     1      -7.473  12.933  19.586  0.00  0.00    +0.000 C 
ATOM     14  C   UNL     1      -7.190  11.948  18.411  0.00  0.00    +0.000 C 
ATOM     15  H   UNL     1      -6.669  11.869  21.152  0.00  0.00    +0.000 HD
ENDROOT
BRANCH   1  17
ATOM     16  O   UNL     1       0.159  11.609  20.822  0.00  0.00    +0.000 OA
ATOM     17  S   UNL     1       0.371  11.417  19.404  0.00  0.00    +0.000 S 
ATOM     18  O   UNL     1       1.114  12.382  18.610  0.00  0.00    +0.000 OA
BRANCH  17  19
ATOM     19  C   UNL     1       1.155   9.827  19.207  0.00  0.00    +0.000 A 
ATOM     20  C   UNL     1       1.154   8.938  20.281  0.00  0.00    +0.000 A 
ATOM     21  C   UNL     1       1.782   7.698  20.145  0.00  0.00    +0.000 A 
ATOM     22  C   UNL     1       2.429   7.307  18.952  0.00  0.00    +0.000 A 
ATOM     23  C   UNL     1       2.392   8.233  17.887  0.00  0.00    +0.000 A 
ATOM     24  C   UNL     1       1.761   9.477  18.002  0.00  0.00    +0.000 A 
BRANCH  22  25
ATOM     25  C   UNL     1       3.175   5.913  18.853  0.00  0.00    +0.000 C 
ATOM     26  C   UNL     1       2.660   4.874  17.839  0.00  0.00    +0.000 C 
ATOM     27  C   UNL     1       4.140   4.662  17.536  0.00  0.00    +0.000 C 
ATOM     28  O   UNL     1       4.470   5.927  18.171  0.00  0.00    +0.000 OA
ENDBRANCH  22  25
ENDBRANCH  17  19
ENDBRANCH   1  17
TORSDOF 3
ENDMDL
MODEL 6
REMARK VINA RESULT:      -8.3      6.343     10.750
REMARK  Name = 
REMARK  3 active torsions:
REMARK  status: ('A' for Active; 'I' for Inactive)
REMARK    1  A    between atoms: S_2  and  C_4
REMARK    2  A    between atoms: S_2  and  C_14
REMARK    3  A    between atoms: C_7  and  C_8
REMARK                            x       y       z     vdW  Elec       q    Type
REMARK                         _______ _______ _______ _____ _____    ______ ____
ROOT
ATOM      1  C   UNL     1      -1.233  11.339  18.641  0.00  0.00    +0.000 A 
ATOM      2  C   UNL     1      -1.404  10.622  17.448  0.00  0.00    +0.000 A 
ATOM      3  C   UNL     1      -2.688  10.481  16.887  0.00  0.00    +0.000 A 
ATOM      4 CL   UNL     1      -2.904   9.608  15.424  0.00  0.00    +0.000 Cl
ATOM      5  C   UNL     1      -3.760  11.069  17.572  0.00  0.00    +0.000 A 
ATOM      6  O   UNL     1      -5.103  11.042  17.253  0.00  0.00    +0.000 OA
ATOM      7  C   UNL     1      -5.731  11.745  18.234  0.00  0.00    +0.000 A 
ATOM      8  C   UNL     1      -4.847  12.230  19.159  0.00  0.00    +0.000 A 
ATOM      9  C   UNL     1      -3.581  11.791  18.752  0.00  0.00    +0.000 A 
ATOM     10  C   UNL     1      -2.307  11.936  19.297  0.00  0.00    +0.000 A 
ATOM     11  C   UNL     1      -5.232  13.043  20.332  0.00  0.00    +0.000 C 
ATOM     12  N   UNL     1      -6.647  12.807  20.652  0.00  0.00    +0.000 NA
ATOM     13  C   UNL     1      -7.522  12.893  19.458  0.00  0.00    +0.000 C 
ATOM     14  C   UNL     1      -7.202  11.890  18.307  0.00  0.00    +0.000 C 
ATOM     15  H   UNL     1      -6.726  11.875  21.058  0.00  0.00    +0.000 HD
ENDROOT
BRANCH   1  17
ATOM     16  O   UNL     1       0.111  11.960  20.794  0.00  0.00    +0.000 OA
ATOM     17  S   UNL     1       0.350  11.518  19.438  0.00  0.00    +0.000 S 
ATOM     18  O   UNL     1       1.169  12.291  18.519  0.00  0.00    +0.000 OA
BRANCH  17  19
ATOM     19  C   UNL     1       1.043   9.878  19.542  0.00  0.00    +0.000 A 
ATOM     20  C   UNL     1       1.704   9.354  18.432  0.00  0.00    +0.000 A 
ATOM     21  C   UNL     1       2.233   8.063  18.497  0.00  0.00    +0.000 A 
ATOM     22  C   UNL     1       2.122   7.258  19.651  0.00  0.00    +0.000 A 
ATOM     23  C   UNL     1       1.459   7.835  20.755  0.00  0.00    +0.000 A 
ATOM     24  C   UNL     1       0.928   9.130  20.713  0.00  0.00    +0.000 A 
BRANCH  22  25
ATOM     25  C   UNL     1       2.691   5.780  19.668  0.00  0.00    +0.000 C 
ATOM     26  C   UNL     1       2.034   4.750  20.605  0.00  0.00    +0.000 C 
ATOM     27  C   UNL     1       2.147   3.813  19.407  0.00  0.00    +0.000 C 
ATOM     28  O   UNL     1       2.339   4.946  18.517  0.00  0.00    +0.000 OA
ENDBRANCH  22  25
ENDBRANCH  17  19
ENDBRANCH   1  17
TORSDOF 3
ENDMDL
MODEL 7
REMARK VINA RESULT:      -8.2      3.622      8.927
REMARK  Name = 
REMARK  3 active torsions:
REMARK  status: ('A' for Active; 'I' for Inactive)
REMARK    1  A    between atoms: S_2  and  C_4
REMARK    2  A    between atoms: S_2  and  C_14
REMARK    3  A    between atoms: C_7  and  C_8
REMARK                            x       y       z     vdW  Elec       q    Type
REMARK                         _______ _______ _______ _____ _____    ______ ____
ROOT
ATOM      1  C   UNL     1       1.774   6.899  20.031  0.00  0.00    +0.000 A 
ATOM      2  C   UNL     1       2.136   7.625  18.888  0.00  0.00    +0.000 A 
ATOM      3  C   UNL     1       1.799   8.989  18.782  0.00  0.00    +0.000 A 
ATOM      4 CL   UNL     1       2.243   9.885  17.386  0.00  0.00    +0.000 Cl
ATOM      5  C   UNL     1       1.092   9.563  19.846  0.00  0.00    +0.000 A 
ATOM      6  O   UNL     1       0.619  10.855  19.967  0.00  0.00    +0.000 OA
ATOM      7  C   UNL     1      -0.009  10.910  21.172  0.00  0.00    +0.000 A 
ATOM      8  C   UNL     1       0.054   9.713  21.833  0.00  0.00    +0.000 A 
ATOM      9  C   UNL     1       0.746   8.838  20.986  0.00  0.00    +0.000 A 
ATOM     10  C   UNL     1       1.090   7.492  21.090  0.00  0.00    +0.000 A 
ATOM     11  C   UNL     1      -0.525   9.470  23.171  0.00  0.00    +0.000 C 
ATOM     12  N   UNL     1      -1.584  10.454  23.436  0.00  0.00    +0.000 NA
ATOM     13  C   UNL     1      -1.159  11.842  23.129  0.00  0.00    +0.000 C 
ATOM     14  C   UNL     1      -0.727  12.110  21.655  0.00  0.00    +0.000 C 
ATOM     15  H   UNL     1      -2.388  10.216  22.857  0.00  0.00    +0.000 HD
ENDROOT
BRANCH   1  17
ATOM     16  O   UNL     1       0.906   4.437  19.901  0.00  0.00    +0.000 OA
ATOM     17  S   UNL     1       2.118   5.161  20.216  0.00  0.00    +0.000 S 
ATOM     18  O   UNL     1       2.771   5.024  21.508  0.00  0.00    +0.000 OA
BRANCH  17  19
ATOM     19  C   UNL     1       3.310   4.751  18.954  0.00  0.00    +0.000 A 
ATOM     20  C   UNL     1       4.654   5.049  19.174  0.00  0.00    +0.000 A 
ATOM     21  C   UNL     1       5.593   4.751  18.184  0.00  0.00    +0.000 A 
ATOM     22  C   UNL     1       5.230   4.157  16.955  0.00  0.00    +0.000 A 
ATOM     23  C   UNL     1       3.862   3.860  16.782  0.00  0.00    +0.000 A 
ATOM     24  C   UNL     1       2.907   4.145  17.766  0.00  0.00    +0.000 A 
BRANCH  22  25
ATOM     25  C   UNL     1       6.317   3.881  15.837  0.00  0.00    +0.000 C 
ATOM     26  C   UNL     1       5.919   4.073  14.361  0.00  0.00    +0.000 C 
ATOM     27  C   UNL     1       7.280   4.750  14.239  0.00  0.00    +0.000 C 
ATOM     28  O   UNL     1       7.351   4.906  15.682  0.00  0.00    +0.000 OA
ENDBRANCH  22  25
ENDBRANCH  17  19
ENDBRANCH   1  17
TORSDOF 3
ENDMDL
MODEL 8
REMARK VINA RESULT:      -8.2      6.469     11.271
REMARK  Name = 
REMARK  3 active torsions:
REMARK  status: ('A' for Active; 'I' for Inactive)
REMARK    1  A    between atoms: S_2  and  C_4
REMARK    2  A    between atoms: S_2  and  C_14
REMARK    3  A    between atoms: C_7  and  C_8
REMARK                            x       y       z     vdW  Elec       q    Type
REMARK                         _______ _______ _______ _____ _____    ______ ____
ROOT
ATOM      1  C   UNL     1      -1.484  11.965  18.882  0.00  0.00    +0.000 A 
ATOM      2  C   UNL     1      -1.866  11.551  17.598  0.00  0.00    +0.000 A 
ATOM      3  C   UNL     1      -3.231  11.417  17.276  0.00  0.00    +0.000 A 
ATOM      4 CL   UNL     1      -3.705  10.914  15.704  0.00  0.00    +0.000 Cl
ATOM      5  C   UNL     1      -4.162  11.702  18.283  0.00  0.00    +0.000 A 
ATOM      6  O   UNL     1      -5.539  11.613  18.231  0.00  0.00    +0.000 OA
ATOM      7  C   UNL     1      -5.982  11.982  19.464  0.00  0.00    +0.000 A 
ATOM      8  C   UNL     1      -4.948  12.314  20.298  0.00  0.00    +0.000 A 
ATOM      9  C   UNL     1      -3.776  12.126  19.555  0.00  0.00    +0.000 A 
ATOM     10  C   UNL     1      -2.425  12.265  19.865  0.00  0.00    +0.000 A 
ATOM     11  C   UNL     1      -5.118  12.768  21.694  0.00  0.00    +0.000 C 
ATOM     12  N   UNL     1      -6.418  12.312  22.205  0.00  0.00    +0.000 NA
ATOM     13  C   UNL     1      -7.531  12.597  21.265  0.00  0.00    +0.000 C 
ATOM     14  C   UNL     1      -7.409  11.949  19.852  0.00  0.00    +0.000 C 
ATOM     15  H   UNL     1      -6.361  11.306  22.359  0.00  0.00    +0.000 HD
ENDROOT
BRANCH   1  17
ATOM     16  O   UNL     1       0.239  12.570  20.751  0.00  0.00    +0.000 OA
ATOM     17  S   UNL     1       0.220  12.108  19.380  0.00  0.00    +0.000 S 
ATOM     18  O   UNL     1       0.881  12.849  18.319  0.00  0.00    +0.000 OA
BRANCH  17  19
ATOM     19  C   UNL     1       0.879  10.450  19.383  0.00  0.00    +0.000 A 
ATOM     20  C   UNL     1       0.793   9.693  20.550  0.00  0.00    +0.000 A 
ATOM     21  C   UNL     1       1.324   8.401  20.569  0.00  0.00    +0.000 A 
ATOM     22  C   UNL     1       1.953   7.827  19.443  0.00  0.00    +0.000 A 
ATOM     23  C   UNL     1       2.004   8.625  18.280  0.00  0.00    +0.000 A 
ATOM     24  C   UNL     1       1.471   9.919  18.239  0.00  0.00    +0.000 A 
BRANCH  22  25
ATOM     25  C   UNL     1       2.588   6.378  19.520  0.00  0.00    +0.000 C 
ATOM     26  C   UNL     1       1.990   5.365  20.514  0.00  0.00    +0.000 C 
ATOM     27  C   UNL     1       2.130   4.379  19.359  0.00  0.00    +0.000 C 
ATOM     28  O   UNL     1       2.260   5.476  18.415  0.00  0.00    +0.000 OA
ENDBRANCH  22  25
ENDBRANCH  17  19
ENDBRANCH   1  17
TORSDOF 3
ENDMDL
MODEL 9
REMARK VINA RESULT:      -8.0      6.092     10.521
REMARK  Name = 
REMARK  3 active torsions:
REMARK  status: ('A' for Active; 'I' for Inactive)
REMARK    1  A    between atoms: S_2  and  C_4
REMARK    2  A    between atoms: S_2  and  C_14
REMARK    3  A    between atoms: C_7  and  C_8
REMARK                            x       y       z     vdW  Elec       q    Type
REMARK                         _______ _______ _______ _____ _____    ______ ____
ROOT
ATOM      1  C   UNL     1      -0.610  10.990  18.801  0.00  0.00    +0.000 A 
ATOM      2  C   UNL     1      -1.033  10.318  17.646  0.00  0.00    +0.000 A 
ATOM      3  C   UNL     1      -2.382  10.384  17.245  0.00  0.00    +0.000 A 
ATOM      4 CL   UNL     1      -2.906   9.567  15.829  0.00  0.00    +0.000 Cl
ATOM      5  C   UNL     1      -3.258  11.127  18.047  0.00  0.00    +0.000 A 
ATOM      6  O   UNL     1      -4.617  11.314  17.893  0.00  0.00    +0.000 OA
ATOM      7  C   UNL     1      -5.005  12.098  18.934  0.00  0.00    +0.000 A 
ATOM      8  C   UNL     1      -3.951  12.432  19.741  0.00  0.00    +0.000 A 
ATOM      9  C   UNL     1      -2.827  11.803  19.189  0.00  0.00    +0.000 A 
ATOM     10  C   UNL     1      -1.490  11.743  19.575  0.00  0.00    +0.000 A 
ATOM     11  C   UNL     1      -4.060  13.286  20.942  0.00  0.00    +0.000 C 
ATOM     12  N   UNL     1      -5.445  13.271  21.433  0.00  0.00    +0.000 NA
ATOM     13  C   UNL     1      -6.434  13.503  20.352  0.00  0.00    +0.000 C 
ATOM     14  C   UNL     1      -6.415  12.471  19.182  0.00  0.00    +0.000 C 
ATOM     15  H   UNL     1      -5.620  12.360  21.856  0.00  0.00    +0.000 HD
ENDROOT
BRANCH   1  17
ATOM     16  O   UNL     1       1.073  11.423  20.753  0.00  0.00    +0.000 OA
ATOM     17  S   UNL     1       1.066  10.912  19.400  0.00  0.00    +0.000 S 
ATOM     18  O   UNL     1       1.885  11.510  18.358  0.00  0.00    +0.000 OA
BRANCH  17  19
ATOM     19  C   UNL     1       1.481   9.180  19.498  0.00  0.00    +0.000 A 
ATOM     20  C   UNL     1       1.191   8.483  20.670  0.00  0.00    +0.000 A 
ATOM     21  C   UNL     1       1.530   7.132  20.765  0.00  0.00    +0.000 A 
ATOM     22  C   UNL     1       2.164   6.437  19.711  0.00  0.00    +0.000 A 
ATOM     23  C   UNL     1       2.425   7.179  18.539  0.00  0.00    +0.000 A 
ATOM     24  C   UNL     1       2.086   8.533  18.423  0.00  0.00    +0.000 A 
BRANCH  22  25
ATOM     25  C   UNL     1       2.579   4.917  19.876  0.00  0.00    +0.000 C 
ATOM     26  C   UNL     1       2.186   4.185  21.173  0.00  0.00    +0.000 C 
ATOM     27  C   UNL     1       1.815   3.041  20.235  0.00  0.00    +0.000 C 
ATOM     28  O   UNL     1       1.795   3.952  19.103  0.00  0.00    +0.000 OA
ENDBRANCH  22  25
ENDBRANCH  17  19
ENDBRANCH   1  17
TORSDOF 3
ENDMDL
