MODEL 1
REMARK VINA RESULT:      -8.3      0.000      0.000
REMARK  Name = 
REMARK  8 active torsions:
REMARK  status: ('A' for Active; 'I' for Inactive)
REMARK    1  A    between atoms: C_1  and  C_2
REMARK    2  A    between atoms: C_2  and  N_3
REMARK    3  A    between atoms: N_6  and  C_7
REMARK    4  A    between atoms: N_6  and  C_8
REMARK    5  A    between atoms: C_8  and  C_9
REMARK    6  A    between atoms: C_14  and  N_15
REMARK    7  A    between atoms: C_16  and  C_18
REMARK    8  A    between atoms: C_21  and  C_22
REMARK                            x       y       z     vdW  Elec       q    Type
REMARK                         _______ _______ _______ _____ _____    ______ ____
ROOT
ATOM      1  C   UNL     1       4.195   5.015  18.113  0.00  0.00    +0.000 C 
ATOM      2  C   UNL     1       3.645   6.052  17.449  0.00  0.00    +0.000 C 
ATOM      3  C   UNL     1       2.881   7.083  18.168  0.00  0.00    +0.000 A 
ATOM      4  C   UNL     1       2.591   8.310  17.569  0.00  0.00    +0.000 A 
ATOM      5  C   UNL     1       1.884   9.291  18.277  0.00  0.00    +0.000 A 
ATOM      6  C   UNL     1       1.460   9.065  19.588  0.00  0.00    +0.000 A 
ATOM      7  C   UNL     1       1.751   7.836  20.188  0.00  0.00    +0.000 A 
ATOM      8  C   UNL     1       2.446   6.844  19.481  0.00  0.00    +0.000 A 
ATOM      9  C   UNL     1       2.650   5.477  20.078  0.00  0.00    +0.000 C 
ATOM     10  C   UNL     1       3.950   4.824  19.591  0.00  0.00    +0.000 C 
ENDROOT
BRANCH   6  11
ATOM     11  N   UNL     1       0.762  10.022  20.361  0.00  0.00    +0.000 N 
ATOM     12  C   UNL     1      -0.509  10.498  20.095  0.00  0.00    +0.000 C 
ATOM     13  O   UNL     1      -1.254  10.092  19.208  0.00  0.00    +0.000 OA
ATOM     14  H   UNL     1       1.244  10.365  21.176  0.00  0.00    +0.000 HD
BRANCH  12  15
ATOM     15  C   UNL     1      -1.010  11.611  20.953  0.00  0.00    +0.000 A 
ATOM     16  C   UNL     1      -1.767  12.597  20.311  0.00  0.00    +0.000 A 
ATOM     17  C   UNL     1      -2.288  13.675  21.027  0.00  0.00    +0.000 A 
ATOM     18  C   UNL     1      -2.095  13.798  22.414  0.00  0.00    +0.000 A 
ATOM     19  C   UNL     1      -1.338  12.795  23.049  0.00  0.00    +0.000 A 
ATOM     20  C   UNL     1      -0.798  11.713  22.328  0.00  0.00    +0.000 A 
BRANCH  18  21
ATOM     21  C   UNL     1      -2.689  14.941  23.151  0.00  0.00    +0.000 A 
ATOM     22  C   UNL     1      -3.551  14.727  24.247  0.00  0.00    +0.000 A 
ATOM     23  C   UNL     1      -4.168  15.788  24.916  0.00  0.00    +0.000 A 
ATOM     24  C   UNL     1      -3.916  17.093  24.515  0.00  0.00    +0.000 A 
ATOM     25 CL   UNL     1      -4.680  18.400  25.329  0.00  0.00    +0.000 Cl
ATOM     26  C   UNL     1      -3.051  17.343  23.453  0.00  0.00    +0.000 A 
ATOM     27  C   UNL     1      -2.447  16.275  22.777  0.00  0.00    +0.000 A 
ENDBRANCH  18  21
ENDBRANCH  12  15
ENDBRANCH   6  11
BRANCH   1  28
ATOM     28  C   UNL     1       5.026   3.966  17.417  0.00  0.00    +0.000 C 
BRANCH  28  32
ATOM     29  N   UNL     1       7.314   4.914  14.728  0.00  0.00    +0.000 N 
ATOM     30  C   UNL     1       6.181   4.462  15.356  0.00  0.00    +0.000 C 
ATOM     31  O   UNL     1       5.188   4.102  14.733  0.00  0.00    +0.000 OA
ATOM     32  N   UNL     1       6.232   4.468  16.748  0.00  0.00    +0.000 N 
ATOM     33  C   UNL     1       7.356   4.975  17.531  0.00  0.00    +0.000 C 
ATOM     34  H   UNL     1       8.177   4.686  15.193  0.00  0.00    +0.000 HD
BRANCH  29  36
ATOM     35  C   UNL     1       8.598   5.848  12.876  0.00  0.00    +0.000 C 
ATOM     36  C   UNL     1       7.399   5.012  13.283  0.00  0.00    +0.000 C 
ENDBRANCH  29  36
ENDBRANCH  28  32
ENDBRANCH   1  28
TORSDOF 6
ENDMDL
MODEL 2
REMARK VINA RESULT:      -7.7      1.236      1.422
REMARK  Name = 
REMARK  8 active torsions:
REMARK  status: ('A' for Active; 'I' for Inactive)
REMARK    1  A    between atoms: C_1  and  C_2
REMARK    2  A    between atoms: C_2  and  N_3
REMARK    3  A    between atoms: N_6  and  C_7
REMARK    4  A    between atoms: N_6  and  C_8
REMARK    5  A    between atoms: C_8  and  C_9
REMARK    6  A    between atoms: C_14  and  N_15
REMARK    7  A    between atoms: C_16  and  C_18
REMARK    8  A    between atoms: C_21  and  C_22
REMARK                            x       y       z     vdW  Elec       q    Type
REMARK                         _______ _______ _______ _____ _____    ______ ____
ROOT
ATOM      1  C   UNL     1       4.150   5.448  18.379  0.00  0.00    +0.000 C 
ATOM      2  C   UNL     1       3.684   6.471  17.635  0.00  0.00    +0.000 C 
ATOM      3  C   UNL     1       2.812   7.496  18.229  0.00  0.00    +0.000 A 
ATOM      4  C   UNL     1       2.591   8.713  17.582  0.00  0.00    +0.000 A 
ATOM      5  C   UNL     1       1.779   9.690  18.175  0.00  0.00    +0.000 A 
ATOM      6  C   UNL     1       1.180   9.468  19.417  0.00  0.00    +0.000 A 
ATOM      7  C   UNL     1       1.402   8.249  20.064  0.00  0.00    +0.000 A 
ATOM      8  C   UNL     1       2.202   7.261  19.472  0.00  0.00    +0.000 A 
ATOM      9  C   UNL     1       2.341   5.903  20.105  0.00  0.00    +0.000 C 
ATOM     10  C   UNL     1       3.705   5.267  19.811  0.00  0.00    +0.000 C 
ENDROOT
BRANCH   6  11
ATOM     11  N   UNL     1       0.367  10.421  20.075  0.00  0.00    +0.000 N 
ATOM     12  C   UNL     1      -0.346  10.202  21.238  0.00  0.00    +0.000 C 
ATOM     13  O   UNL     1      -0.305   9.184  21.923  0.00  0.00    +0.000 OA
ATOM     14  H   UNL     1       0.328  11.333  19.649  0.00  0.00    +0.000 HD
BRANCH  12  15
ATOM     15  C   UNL     1      -1.255  11.295  21.693  0.00  0.00    +0.000 A 
ATOM     16  C   UNL     1      -1.752  12.143  20.698  0.00  0.00    +0.000 A 
ATOM     17  C   UNL     1      -2.616  13.191  21.020  0.00  0.00    +0.000 A 
ATOM     18  C   UNL     1      -3.035  13.418  22.342  0.00  0.00    +0.000 A 
ATOM     19  C   UNL     1      -2.533  12.552  23.332  0.00  0.00    +0.000 A 
ATOM     20  C   UNL     1      -1.650  11.502  23.015  0.00  0.00    +0.000 A 
BRANCH  18  21
ATOM     21  C   UNL     1      -3.978  14.522  22.645  0.00  0.00    +0.000 A 
ATOM     22  C   UNL     1      -4.519  15.317  21.613  0.00  0.00    +0.000 A 
ATOM     23  C   UNL     1      -5.362  16.400  21.882  0.00  0.00    +0.000 A 
ATOM     24  C   UNL     1      -5.700  16.696  23.195  0.00  0.00    +0.000 A 
ATOM     25 CL   UNL     1      -6.729  18.033  23.531  0.00  0.00    +0.000 Cl
ATOM     26  C   UNL     1      -5.206  15.918  24.237  0.00  0.00    +0.000 A 
ATOM     27  C   UNL     1      -4.350  14.844  23.963  0.00  0.00    +0.000 A 
ENDBRANCH  18  21
ENDBRANCH  12  15
ENDBRANCH   6  11
BRANCH   1  28
ATOM     28  C   UNL     1       5.085   4.407  17.817  0.00  0.00    +0.000 C 
BRANCH  28  32
ATOM     29  N   UNL     1       7.207   5.123  14.928  0.00  0.00    +0.000 N 
ATOM     30  C   UNL     1       6.153   4.647  15.665  0.00  0.00    +0.000 C 
ATOM     31  O   UNL     1       5.220   4.036  15.154  0.00  0.00    +0.000 OA
ATOM     32  N   UNL     1       6.205   4.933  17.028  0.00  0.00    +0.000 N 
ATOM     33  C   UNL     1       7.245   5.738  17.663  0.00  0.00    +0.000 C 
ATOM     34  H   UNL     1       8.095   5.115  15.402  0.00  0.00    +0.000 HD
BRANCH  29  36
ATOM     35  C   UNL     1       8.547   5.561  12.936  0.00  0.00    +0.000 C 
ATOM     36  C   UNL     1       7.274   4.947  13.489  0.00  0.00    +0.000 C 
ENDBRANCH  29  36
ENDBRANCH  28  32
ENDBRANCH   1  28
TORSDOF 6
ENDMDL
MODEL 3
REMARK VINA RESULT:      -7.6      1.639      2.063
REMARK  Name = 
REMARK  8 active torsions:
REMARK  status: ('A' for Active; 'I' for Inactive)
REMARK    1  A    between atoms: C_1  and  C_2
REMARK    2  A    between atoms: C_2  and  N_3
REMARK    3  A    between atoms: N_6  and  C_7
REMARK    4  A    between atoms: N_6  and  C_8
REMARK    5  A    between atoms: C_8  and  C_9
REMARK    6  A    between atoms: C_14  and  N_15
REMARK    7  A    between atoms: C_16  and  C_18
REMARK    8  A    between atoms: C_21  and  C_22
REMARK                            x       y       z     vdW  Elec       q    Type
REMARK                         _______ _______ _______ _____ _____    ______ ____
ROOT
ATOM      1  C   UNL     1       3.213   5.030  19.391  0.00  0.00    +0.000 C 
ATOM      2  C   UNL     1       2.974   6.084  18.584  0.00  0.00    +0.000 C 
ATOM      3  C   UNL     1       2.271   7.273  19.088  0.00  0.00    +0.000 A 
ATOM      4  C   UNL     1       2.303   8.478  18.385  0.00  0.00    +0.000 A 
ATOM      5  C   UNL     1       1.649   9.608  18.893  0.00  0.00    +0.000 A 
ATOM      6  C   UNL     1       0.960   9.554  20.107  0.00  0.00    +0.000 A 
ATOM      7  C   UNL     1       0.929   8.348  20.811  0.00  0.00    +0.000 A 
ATOM      8  C   UNL     1       1.568   7.208  20.302  0.00  0.00    +0.000 A 
ATOM      9  C   UNL     1       1.431   5.877  20.993  0.00  0.00    +0.000 C 
ATOM     10  C   UNL     1       2.672   4.998  20.801  0.00  0.00    +0.000 C 
ENDROOT
BRANCH   6  11
ATOM     11  N   UNL     1       0.299  10.666  20.681  0.00  0.00    +0.000 N 
ATOM     12  C   UNL     1       0.084  10.862  22.032  0.00  0.00    +0.000 C 
ATOM     13  O   UNL     1       0.516  10.154  22.937  0.00  0.00    +0.000 OA
ATOM     14  H   UNL     1      -0.025  11.367  20.034  0.00  0.00    +0.000 HD
BRANCH  12  15
ATOM     15  C   UNL     1      -0.759  12.030  22.422  0.00  0.00    +0.000 A 
ATOM     16  C   UNL     1      -1.973  11.738  23.053  0.00  0.00    +0.000 A 
ATOM     17  C   UNL     1      -2.828  12.760  23.464  0.00  0.00    +0.000 A 
ATOM     18  C   UNL     1      -2.495  14.114  23.283  0.00  0.00    +0.000 A 
ATOM     19  C   UNL     1      -1.268  14.395  22.654  0.00  0.00    +0.000 A 
ATOM     20  C   UNL     1      -0.407  13.366  22.224  0.00  0.00    +0.000 A 
BRANCH  18  21
ATOM     21  C   UNL     1      -3.414  15.177  23.759  0.00  0.00    +0.000 A 
ATOM     22  C   UNL     1      -4.744  15.246  23.295  0.00  0.00    +0.000 A 
ATOM     23  C   UNL     1      -5.608  16.275  23.684  0.00  0.00    +0.000 A 
ATOM     24  C   UNL     1      -5.162  17.247  24.569  0.00  0.00    +0.000 A 
ATOM     25 CL   UNL     1      -6.217  18.519  25.043  0.00  0.00    +0.000 Cl
ATOM     26  C   UNL     1      -3.864  17.197  25.067  0.00  0.00    +0.000 A 
ATOM     27  C   UNL     1      -2.998  16.172  24.662  0.00  0.00    +0.000 A 
ENDBRANCH  18  21
ENDBRANCH  12  15
ENDBRANCH   6  11
BRANCH   1  28
ATOM     28  C   UNL     1       3.974   3.815  18.923  0.00  0.00    +0.000 C 
BRANCH  28  32
ATOM     29  N   UNL     1       5.321   3.949  15.527  0.00  0.00    +0.000 N 
ATOM     30  C   UNL     1       5.249   4.084  16.890  0.00  0.00    +0.000 C 
ATOM     31  O   UNL     1       6.179   4.530  17.554  0.00  0.00    +0.000 OA
ATOM     32  N   UNL     1       4.056   3.653  17.466  0.00  0.00    +0.000 N 
ATOM     33  C   UNL     1       2.961   3.029  16.728  0.00  0.00    +0.000 C 
ATOM     34  H   UNL     1       4.453   4.097  15.039  0.00  0.00    +0.000 HD
BRANCH  29  36
ATOM     35  C   UNL     1       6.387   3.894  13.333  0.00  0.00    +0.000 C 
ATOM     36  C   UNL     1       6.516   4.310  14.787  0.00  0.00    +0.000 C 
ENDBRANCH  29  36
ENDBRANCH  28  32
ENDBRANCH   1  28
TORSDOF 6
ENDMDL
MODEL 4
REMARK VINA RESULT:      -7.5      0.975      1.433
REMARK  Name = 
REMARK  8 active torsions:
REMARK  status: ('A' for Active; 'I' for Inactive)
REMARK    1  A    between atoms: C_1  and  C_2
REMARK    2  A    between atoms: C_2  and  N_3
REMARK    3  A    between atoms: N_6  and  C_7
REMARK    4  A    between atoms: N_6  and  C_8
REMARK    5  A    between atoms: C_8  and  C_9
REMARK    6  A    between atoms: C_14  and  N_15
REMARK    7  A    between atoms: C_16  and  C_18
REMARK    8  A    between atoms: C_21  and  C_22
REMARK                            x       y       z     vdW  Elec       q    Type
REMARK                         _______ _______ _______ _____ _____    ______ ____
ROOT
ATOM      1  C   UNL     1       4.465   5.342  18.433  0.00  0.00    +0.000 C 
ATOM      2  C   UNL     1       3.946   6.333  17.679  0.00  0.00    +0.000 C 
ATOM      3  C   UNL     1       3.031   7.324  18.266  0.00  0.00    +0.000 A 
ATOM      4  C   UNL     1       2.749   8.520  17.606  0.00  0.00    +0.000 A 
ATOM      5  C   UNL     1       1.896   9.465  18.192  0.00  0.00    +0.000 A 
ATOM      6  C   UNL     1       1.317   9.232  19.442  0.00  0.00    +0.000 A 
ATOM      7  C   UNL     1       1.601   8.034  20.103  0.00  0.00    +0.000 A 
ATOM      8  C   UNL     1       2.442   7.077  19.517  0.00  0.00    +0.000 A 
ATOM      9  C   UNL     1       2.648   5.735  20.167  0.00  0.00    +0.000 C 
ATOM     10  C   UNL     1       4.038   5.159  19.870  0.00  0.00    +0.000 C 
ENDROOT
BRANCH   6  11
ATOM     11  N   UNL     1       0.465  10.155  20.094  0.00  0.00    +0.000 N 
ATOM     12  C   UNL     1      -0.761  10.587  19.624  0.00  0.00    +0.000 C 
ATOM     13  O   UNL     1      -1.334  10.164  18.624  0.00  0.00    +0.000 OA
ATOM     14  H   UNL     1       0.794  10.506  20.979  0.00  0.00    +0.000 HD
BRANCH  12  15
ATOM     15  C   UNL     1      -1.438  11.671  20.393  0.00  0.00    +0.000 A 
ATOM     16  C   UNL     1      -1.145  11.740  21.759  0.00  0.00    +0.000 A 
ATOM     17  C   UNL     1      -1.722  12.723  22.564  0.00  0.00    +0.000 A 
ATOM     18  C   UNL     1      -2.594  13.689  22.034  0.00  0.00    +0.000 A 
ATOM     19  C   UNL     1      -2.875  13.613  20.656  0.00  0.00    +0.000 A 
ATOM     20  C   UNL     1      -2.307  12.615  19.842  0.00  0.00    +0.000 A 
BRANCH  18  21
ATOM     21  C   UNL     1      -3.166  14.739  22.911  0.00  0.00    +0.000 A 
ATOM     22  C   UNL     1      -2.754  14.863  24.255  0.00  0.00    +0.000 A 
ATOM     23  C   UNL     1      -3.324  15.807  25.116  0.00  0.00    +0.000 A 
ATOM     24  C   UNL     1      -4.306  16.664  24.641  0.00  0.00    +0.000 A 
ATOM     25 CL   UNL     1      -5.016  17.820  25.698  0.00  0.00    +0.000 Cl
ATOM     26  C   UNL     1      -4.720  16.587  23.314  0.00  0.00    +0.000 A 
ATOM     27  C   UNL     1      -4.156  15.630  22.460  0.00  0.00    +0.000 A 
ENDBRANCH  18  21
ENDBRANCH  12  15
ENDBRANCH   6  11
BRANCH   1  28
ATOM     28  C   UNL     1       5.443   4.339  17.877  0.00  0.00    +0.000 C 
BRANCH  28  32
ATOM     29  N   UNL     1       6.300   4.317  14.323  0.00  0.00    +0.000 N 
ATOM     30  C   UNL     1       6.411   4.533  15.673  0.00  0.00    +0.000 C 
ATOM     31  O   UNL     1       7.400   5.058  16.173  0.00  0.00    +0.000 OA
ATOM     32  N   UNL     1       5.331   4.089  16.435  0.00  0.00    +0.000 N 
ATOM     33  C   UNL     1       4.177   3.376  15.894  0.00  0.00    +0.000 C 
ATOM     34  H   UNL     1       5.367   4.398  13.954  0.00  0.00    +0.000 HD
BRANCH  29  36
ATOM     35  C   UNL     1       7.085   4.116  12.022  0.00  0.00    +0.000 C 
ATOM     36  C   UNL     1       7.362   4.680  13.403  0.00  0.00    +0.000 C 
ENDBRANCH  29  36
ENDBRANCH  28  32
ENDBRANCH   1  28
TORSDOF 6
ENDMDL
MODEL 5
REMARK VINA RESULT:      -7.5      1.127      1.331
REMARK  Name = 
REMARK  8 active torsions:
REMARK  status: ('A' for Active; 'I' for Inactive)
REMARK    1  A    between atoms: C_1  and  C_2
REMARK    2  A    between atoms: C_2  and  N_3
REMARK    3  A    between atoms: N_6  and  C_7
REMARK    4  A    between atoms: N_6  and  C_8
REMARK    5  A    between atoms: C_8  and  C_9
REMARK    6  A    between atoms: C_14  and  N_15
REMARK    7  A    between atoms: C_16  and  C_18
REMARK    8  A    between atoms: C_21  and  C_22
REMARK                            x       y       z     vdW  Elec       q    Type
REMARK                         _______ _______ _______ _____ _____    ______ ____
ROOT
ATOM      1  C   UNL     1       4.089   5.261  18.498  0.00  0.00    +0.000 C 
ATOM      2  C   UNL     1       3.623   6.207  17.657  0.00  0.00    +0.000 C 
ATOM      3  C   UNL     1       2.823   7.332  18.162  0.00  0.00    +0.000 A 
ATOM      4  C   UNL     1       2.614   8.471  17.382  0.00  0.00    +0.000 A 
ATOM      5  C   UNL     1       1.870   9.546  17.889  0.00  0.00    +0.000 A 
ATOM      6  C   UNL     1       1.329   9.501  19.176  0.00  0.00    +0.000 A 
ATOM      7  C   UNL     1       1.539   8.361  19.956  0.00  0.00    +0.000 A 
ATOM      8  C   UNL     1       2.270   7.275  19.451  0.00  0.00    +0.000 A 
ATOM      9  C   UNL     1       2.391   5.998  20.239  0.00  0.00    +0.000 C 
ATOM     10  C   UNL     1       3.713   5.273  19.961  0.00  0.00    +0.000 C 
ENDROOT
BRANCH   6  11
ATOM     11  N   UNL     1       0.588  10.561  19.750  0.00  0.00    +0.000 N 
ATOM     12  C   UNL     1       0.999  11.878  19.830  0.00  0.00    +0.000 C 
ATOM     13  O   UNL     1       2.021  12.341  19.331  0.00  0.00    +0.000 OA
ATOM     14  H   UNL     1      -0.318  10.316  20.116  0.00  0.00    +0.000 HD
BRANCH  12  15
ATOM     15  C   UNL     1       0.130  12.815  20.601  0.00  0.00    +0.000 A 
ATOM     16  C   UNL     1      -0.473  12.298  21.752  0.00  0.00    +0.000 A 
ATOM     17  C   UNL     1      -1.297  13.096  22.546  0.00  0.00    +0.000 A 
ATOM     18  C   UNL     1      -1.532  14.446  22.235  0.00  0.00    +0.000 A 
ATOM     19  C   UNL     1      -0.913  14.956  21.078  0.00  0.00    +0.000 A 
ATOM     20  C   UNL     1      -0.092  14.151  20.266  0.00  0.00    +0.000 A 
BRANCH  18  21
ATOM     21  C   UNL     1      -2.389  15.275  23.117  0.00  0.00    +0.000 A 
ATOM     22  C   UNL     1      -3.682  14.845  23.484  0.00  0.00    +0.000 A 
ATOM     23  C   UNL     1      -4.529  15.638  24.264  0.00  0.00    +0.000 A 
ATOM     24  C   UNL     1      -4.088  16.874  24.716  0.00  0.00    +0.000 A 
ATOM     25 CL   UNL     1      -5.129  17.857  25.669  0.00  0.00    +0.000 Cl
ATOM     26  C   UNL     1      -2.809  17.320  24.395  0.00  0.00    +0.000 A 
ATOM     27  C   UNL     1      -1.971  16.528  23.601  0.00  0.00    +0.000 A 
ENDBRANCH  18  21
ENDBRANCH  12  15
ENDBRANCH   6  11
BRANCH   1  28
ATOM     28  C   UNL     1       4.954   4.120  18.023  0.00  0.00    +0.000 C 
BRANCH  28  32
ATOM     29  N   UNL     1       7.096   4.687  15.116  0.00  0.00    +0.000 N 
ATOM     30  C   UNL     1       5.995   4.338  15.856  0.00  0.00    +0.000 C 
ATOM     31  O   UNL     1       4.962   3.926  15.338  0.00  0.00    +0.000 OA
ATOM     32  N   UNL     1       6.126   4.512  17.232  0.00  0.00    +0.000 N 
ATOM     33  C   UNL     1       7.300   5.087  17.883  0.00  0.00    +0.000 C 
ATOM     34  H   UNL     1       7.981   4.499  15.556  0.00  0.00    +0.000 HD
BRANCH  29  36
ATOM     35  C   UNL     1       8.140   5.544  13.084  0.00  0.00    +0.000 C 
ATOM     36  C   UNL     1       7.098   4.607  13.667  0.00  0.00    +0.000 C 
ENDBRANCH  29  36
ENDBRANCH  28  32
ENDBRANCH   1  28
TORSDOF 6
ENDMDL
MODEL 6
REMARK VINA RESULT:      -7.3      2.392      3.790
REMARK  Name = 
REMARK  8 active torsions:
REMARK  status: ('A' for Active; 'I' for Inactive)
REMARK    1  A    between atoms: C_1  and  C_2
REMARK    2  A    between atoms: C_2  and  N_3
REMARK    3  A    between atoms: N_6  and  C_7
REMARK    4  A    between atoms: N_6  and  C_8
REMARK    5  A    between atoms: C_8  and  C_9
REMARK    6  A    between atoms: C_14  and  N_15
REMARK    7  A    between atoms: C_16  and  C_18
REMARK    8  A    between atoms: C_21  and  C_22
REMARK                            x       y       z     vdW  Elec       q    Type
REMARK                         _______ _______ _______ _____ _____    ______ ____
ROOT
ATOM      1  C   UNL     1       5.658   4.500  15.205  0.00  0.00    +0.000 C 
ATOM      2  C   UNL     1       4.790   4.071  16.144  0.00  0.00    +0.000 C 
ATOM      3  C   UNL     1       4.081   5.029  17.005  0.00  0.00    +0.000 A 
ATOM      4  C   UNL     1       2.959   4.640  17.740  0.00  0.00    +0.000 A 
ATOM      5  C   UNL     1       2.280   5.573  18.535  0.00  0.00    +0.000 A 
ATOM      6  C   UNL     1       2.705   6.901  18.607  0.00  0.00    +0.000 A 
ATOM      7  C   UNL     1       3.828   7.290  17.870  0.00  0.00    +0.000 A 
ATOM      8  C   UNL     1       4.522   6.360  17.083  0.00  0.00    +0.000 A 
ATOM      9  C   UNL     1       5.802   6.744  16.390  0.00  0.00    +0.000 C 
ATOM     10  C   UNL     1       6.006   5.965  15.085  0.00  0.00    +0.000 C 
ENDROOT
BRANCH   6  11
ATOM     11  N   UNL     1       2.050   7.893  19.375  0.00  0.00    +0.000 N 
ATOM     12  C   UNL     1       1.545   7.718  20.650  0.00  0.00    +0.000 C 
ATOM     13  O   UNL     1       1.676   6.712  21.340  0.00  0.00    +0.000 OA
ATOM     14  H   UNL     1       1.963   8.798  18.942  0.00  0.00    +0.000 HD
BRANCH  12  15
ATOM     15  C   UNL     1       0.764   8.848  21.231  0.00  0.00    +0.000 A 
ATOM     16  C   UNL     1       0.637   9.991  20.434  0.00  0.00    +0.000 A 
ATOM     17  C   UNL     1      -0.081  11.099  20.884  0.00  0.00    +0.000 A 
ATOM     18  C   UNL     1      -0.721  11.101  22.135  0.00  0.00    +0.000 A 
ATOM     19  C   UNL     1      -0.592   9.943  22.924  0.00  0.00    +0.000 A 
ATOM     20  C   UNL     1       0.144   8.827  22.481  0.00  0.00    +0.000 A 
BRANCH  18  21
ATOM     21  C   UNL     1      -1.502  12.285  22.570  0.00  0.00    +0.000 A 
ATOM     22  C   UNL     1      -0.947  13.581  22.513  0.00  0.00    +0.000 A 
ATOM     23  C   UNL     1      -1.643  14.702  22.975  0.00  0.00    +0.000 A 
ATOM     24  C   UNL     1      -2.926  14.551  23.484  0.00  0.00    +0.000 A 
ATOM     25 CL   UNL     1      -3.783  15.925  24.061  0.00  0.00    +0.000 Cl
ATOM     26  C   UNL     1      -3.515  13.291  23.533  0.00  0.00    +0.000 A 
ATOM     27  C   UNL     1      -2.807  12.170  23.083  0.00  0.00    +0.000 A 
ENDBRANCH  18  21
ENDBRANCH  12  15
ENDBRANCH   6  11
BRANCH   1  28
ATOM     28  C   UNL     1       6.365   3.550  14.272  0.00  0.00    +0.000 C 
BRANCH  28  32
ATOM     29  N   UNL     1       4.650   3.645  11.045  0.00  0.00    +0.000 N 
ATOM     30  C   UNL     1       4.864   3.439  12.384  0.00  0.00    +0.000 C 
ATOM     31  O   UNL     1       3.991   3.001  13.127  0.00  0.00    +0.000 OA
ATOM     32  N   UNL     1       6.133   3.789  12.843  0.00  0.00    +0.000 N 
ATOM     33  C   UNL     1       7.170   4.400  12.016  0.00  0.00    +0.000 C 
ATOM     34  H   UNL     1       5.451   3.484  10.457  0.00  0.00    +0.000 HD
BRANCH  29  36
ATOM     35  C   UNL     1       2.965   4.515   9.509  0.00  0.00    +0.000 C 
ATOM     36  C   UNL     1       3.366   3.374  10.427  0.00  0.00    +0.000 C 
ENDBRANCH  29  36
ENDBRANCH  28  32
ENDBRANCH   1  28
TORSDOF 6
ENDMDL
MODEL 7
REMARK VINA RESULT:      -7.3      1.626      1.799
REMARK  Name = 
REMARK  8 active torsions:
REMARK  status: ('A' for Active; 'I' for Inactive)
REMARK    1  A    between atoms: C_1  and  C_2
REMARK    2  A    between atoms: C_2  and  N_3
REMARK    3  A    between atoms: N_6  and  C_7
REMARK    4  A    between atoms: N_6  and  C_8
REMARK    5  A    between atoms: C_8  and  C_9
REMARK    6  A    between atoms: C_14  and  N_15
REMARK    7  A    between atoms: C_16  and  C_18
REMARK    8  A    between atoms: C_21  and  C_22
REMARK                            x       y       z     vdW  Elec       q    Type
REMARK                         _______ _______ _______ _____ _____    ______ ____
ROOT
ATOM      1  C   UNL     1       4.607   5.347  18.406  0.00  0.00    +0.000 C 
ATOM      2  C   UNL     1       4.010   6.248  17.600  0.00  0.00    +0.000 C 
ATOM      3  C   UNL     1       3.052   7.223  18.142  0.00  0.00    +0.000 A 
ATOM      4  C   UNL     1       2.681   8.350  17.407  0.00  0.00    +0.000 A 
ATOM      5  C   UNL     1       1.787   9.283  17.949  0.00  0.00    +0.000 A 
ATOM      6  C   UNL     1       1.255   9.107  19.228  0.00  0.00    +0.000 A 
ATOM      7  C   UNL     1       1.627   7.979  19.964  0.00  0.00    +0.000 A 
ATOM      8  C   UNL     1       2.510   7.033  19.423  0.00  0.00    +0.000 A 
ATOM      9  C   UNL     1       2.814   5.757  20.160  0.00  0.00    +0.000 C 
ATOM     10  C   UNL     1       4.229   5.244  19.865  0.00  0.00    +0.000 C 
ENDROOT
BRANCH   6  11
ATOM     11  N   UNL     1       0.365  10.023  19.838  0.00  0.00    +0.000 N 
ATOM     12  C   UNL     1       0.350  10.358  21.179  0.00  0.00    +0.000 C 
ATOM     13  O   UNL     1       1.163   9.985  22.019  0.00  0.00    +0.000 OA
ATOM     14  H   UNL     1      -0.299  10.467  19.223  0.00  0.00    +0.000 HD
BRANCH  12  15
ATOM     15  C   UNL     1      -0.761  11.238  21.647  0.00  0.00    +0.000 A 
ATOM     16  C   UNL     1      -1.414  11.989  20.664  0.00  0.00    +0.000 A 
ATOM     17  C   UNL     1      -2.471  12.836  20.998  0.00  0.00    +0.000 A 
ATOM     18  C   UNL     1      -2.932  12.949  22.321  0.00  0.00    +0.000 A 
ATOM     19  C   UNL     1      -2.271  12.182  23.299  0.00  0.00    +0.000 A 
ATOM     20  C   UNL     1      -1.195  11.336  22.969  0.00  0.00    +0.000 A 
BRANCH  18  21
ATOM     21  C   UNL     1      -4.078  13.836  22.637  0.00  0.00    +0.000 A 
ATOM     22  C   UNL     1      -5.329  13.655  22.011  0.00  0.00    +0.000 A 
ATOM     23  C   UNL     1      -6.404  14.517  22.250  0.00  0.00    +0.000 A 
ATOM     24  C   UNL     1      -6.255  15.569  23.142  0.00  0.00    +0.000 A 
ATOM     25 CL   UNL     1      -7.571  16.637  23.433  0.00  0.00    +0.000 Cl
ATOM     26  C   UNL     1      -5.042  15.764  23.797  0.00  0.00    +0.000 A 
ATOM     27  C   UNL     1      -3.964  14.906  23.543  0.00  0.00    +0.000 A 
ENDBRANCH  18  21
ENDBRANCH  12  15
ENDBRANCH   6  11
BRANCH   1  28
ATOM     28  C   UNL     1       5.631   4.365  17.895  0.00  0.00    +0.000 C 
BRANCH  28  32
ATOM     29  N   UNL     1       6.092   4.501  14.271  0.00  0.00    +0.000 N 
ATOM     30  C   UNL     1       5.532   4.205  15.488  0.00  0.00    +0.000 C 
ATOM     31  O   UNL     1       4.487   3.571  15.591  0.00  0.00    +0.000 OA
ATOM     32  N   UNL     1       6.222   4.699  16.593  0.00  0.00    +0.000 N 
ATOM     33  C   UNL     1       7.416   5.536  16.515  0.00  0.00    +0.000 C 
ATOM     34  H   UNL     1       7.099   4.520  14.260  0.00  0.00    +0.000 HD
BRANCH  29  36
ATOM     35  C   UNL     1       6.285   3.011  12.348  0.00  0.00    +0.000 C 
ATOM     36  C   UNL     1       5.468   4.097  13.025  0.00  0.00    +0.000 C 
ENDBRANCH  29  36
ENDBRANCH  28  32
ENDBRANCH   1  28
TORSDOF 6
ENDMDL
MODEL 8
REMARK VINA RESULT:      -7.2      0.844      1.739
REMARK  Name = 
REMARK  8 active torsions:
REMARK  status: ('A' for Active; 'I' for Inactive)
REMARK    1  A    between atoms: C_1  and  C_2
REMARK    2  A    between atoms: C_2  and  N_3
REMARK    3  A    between atoms: N_6  and  C_7
REMARK    4  A    between atoms: N_6  and  C_8
REMARK    5  A    between atoms: C_8  and  C_9
REMARK    6  A    between atoms: C_14  and  N_15
REMARK    7  A    between atoms: C_16  and  C_18
REMARK    8  A    between atoms: C_21  and  C_22
REMARK                            x       y       z     vdW  Elec       q    Type
REMARK                         _______ _______ _______ _____ _____    ______ ____
ROOT
ATOM      1  C   UNL     1       4.233   4.974  17.378  0.00  0.00    +0.000 C 
ATOM      2  C   UNL     1       3.667   4.826  18.593  0.00  0.00    +0.000 C 
ATOM      3  C   UNL     1       2.865   5.906  19.186  0.00  0.00    +0.000 A 
ATOM      4  C   UNL     1       2.016   5.660  20.267  0.00  0.00    +0.000 A 
ATOM      5  C   UNL     1       1.239   6.696  20.802  0.00  0.00    +0.000 A 
ATOM      6  C   UNL     1       1.294   7.986  20.268  0.00  0.00    +0.000 A 
ATOM      7  C   UNL     1       2.143   8.231  19.186  0.00  0.00    +0.000 A 
ATOM      8  C   UNL     1       2.935   7.204  18.653  0.00  0.00    +0.000 A 
ATOM      9  C   UNL     1       3.942   7.492  17.572  0.00  0.00    +0.000 C 
ATOM     10  C   UNL     1       4.149   6.291  16.641  0.00  0.00    +0.000 C 
ENDROOT
BRANCH   6  11
ATOM     11  N   UNL     1       0.519   9.066  20.752  0.00  0.00    +0.000 N 
ATOM     12  C   UNL     1      -0.205   9.948  19.971  0.00  0.00    +0.000 C 
ATOM     13  O   UNL     1      -0.361   9.867  18.757  0.00  0.00    +0.000 OA
ATOM     14  H   UNL     1       0.498   9.179  21.752  0.00  0.00    +0.000 HD
BRANCH  12  15
ATOM     15  C   UNL     1      -0.841  11.105  20.667  0.00  0.00    +0.000 A 
ATOM     16  C   UNL     1      -0.656  11.176  22.052  0.00  0.00    +0.000 A 
ATOM     17  C   UNL     1      -1.203  12.223  22.792  0.00  0.00    +0.000 A 
ATOM     18  C   UNL     1      -1.936  13.253  22.177  0.00  0.00    +0.000 A 
ATOM     19  C   UNL     1      -2.108  13.175  20.783  0.00  0.00    +0.000 A 
ATOM     20  C   UNL     1      -1.570  12.112  20.032  0.00  0.00    +0.000 A 
BRANCH  18  21
ATOM     21  C   UNL     1      -2.478  14.369  22.990  0.00  0.00    +0.000 A 
ATOM     22  C   UNL     1      -2.950  14.148  24.301  0.00  0.00    +0.000 A 
ATOM     23  C   UNL     1      -3.521  15.173  25.062  0.00  0.00    +0.000 A 
ATOM     24  C   UNL     1      -3.610  16.453  24.531  0.00  0.00    +0.000 A 
ATOM     25 CL   UNL     1      -4.320  17.715  25.459  0.00  0.00    +0.000 Cl
ATOM     26  C   UNL     1      -3.133  16.714  23.251  0.00  0.00    +0.000 A 
ATOM     27  C   UNL     1      -2.576  15.679  22.488  0.00  0.00    +0.000 A 
ENDBRANCH  18  21
ENDBRANCH  12  15
ENDBRANCH   6  11
BRANCH   1  28
ATOM     28  C   UNL     1       5.021   3.871  16.718  0.00  0.00    +0.000 C 
BRANCH  28  32
ATOM     29  N   UNL     1       7.405   4.834  14.120  0.00  0.00    +0.000 N 
ATOM     30  C   UNL     1       6.225   4.459  14.710  0.00  0.00    +0.000 C 
ATOM     31  O   UNL     1       5.191   4.308  14.067  0.00  0.00    +0.000 OA
ATOM     32  N   UNL     1       6.280   4.290  16.092  0.00  0.00    +0.000 N 
ATOM     33  C   UNL     1       7.463   4.549  16.909  0.00  0.00    +0.000 C 
ATOM     34  H   UNL     1       8.233   4.442  14.539  0.00  0.00    +0.000 HD
BRANCH  29  36
ATOM     35  C   UNL     1       7.242   3.825  11.905  0.00  0.00    +0.000 C 
ATOM     36  C   UNL     1       7.498   5.094  12.696  0.00  0.00    +0.000 C 
ENDBRANCH  29  36
ENDBRANCH  28  32
ENDBRANCH   1  28
TORSDOF 6
ENDMDL
MODEL 9
REMARK VINA RESULT:      -7.2      1.477      1.855
REMARK  Name = 
REMARK  8 active torsions:
REMARK  status: ('A' for Active; 'I' for Inactive)
REMARK    1  A    between atoms: C_1  and  C_2
REMARK    2  A    between atoms: C_2  and  N_3
REMARK    3  A    between atoms: N_6  and  C_7
REMARK    4  A    between atoms: N_6  and  C_8
REMARK    5  A    between atoms: C_8  and  C_9
REMARK    6  A    between atoms: C_14  and  N_15
REMARK    7  A    between atoms: C_16  and  C_18
REMARK    8  A    between atoms: C_21  and  C_22
REMARK                            x       y       z     vdW  Elec       q    Type
REMARK                         _______ _______ _______ _____ _____    ______ ____
ROOT
ATOM      1  C   UNL     1       4.620   5.639  18.510  0.00  0.00    +0.000 C 
ATOM      2  C   UNL     1       4.206   6.658  17.730  0.00  0.00    +0.000 C 
ATOM      3  C   UNL     1       3.130   7.556  18.175  0.00  0.00    +0.000 A 
ATOM      4  C   UNL     1       2.914   8.785  17.549  0.00  0.00    +0.000 A 
ATOM      5  C   UNL     1       1.902   9.640  18.002  0.00  0.00    +0.000 A 
ATOM      6  C   UNL     1       1.093   9.285  19.085  0.00  0.00    +0.000 A 
ATOM      7  C   UNL     1       1.310   8.055  19.712  0.00  0.00    +0.000 A 
ATOM      8  C   UNL     1       2.312   7.187  19.256  0.00  0.00    +0.000 A 
ATOM      9  C   UNL     1       2.464   5.811  19.846  0.00  0.00    +0.000 C 
ATOM     10  C   UNL     1       3.919   5.327  19.812  0.00  0.00    +0.000 C 
ENDROOT
BRANCH   6  11
ATOM     11  N   UNL     1       0.069  10.113  19.602  0.00  0.00    +0.000 N 
ATOM     12  C   UNL     1      -1.048  10.537  18.908  0.00  0.00    +0.000 C 
ATOM     13  O   UNL     1      -1.366  10.181  17.777  0.00  0.00    +0.000 OA
ATOM     14  H   UNL     1       0.177  10.398  20.562  0.00  0.00    +0.000 HD
BRANCH  12  15
ATOM     15  C   UNL     1      -1.937  11.523  19.589  0.00  0.00    +0.000 A 
ATOM     16  C   UNL     1      -1.409  12.160  20.717  0.00  0.00    +0.000 A 
ATOM     17  C   UNL     1      -2.158  13.104  21.420  0.00  0.00    +0.000 A 
ATOM     18  C   UNL     1      -3.453  13.466  21.012  0.00  0.00    +0.000 A 
ATOM     19  C   UNL     1      -3.971  12.822  19.872  0.00  0.00    +0.000 A 
ATOM     20  C   UNL     1      -3.224  11.859  19.167  0.00  0.00    +0.000 A 
BRANCH  18  21
ATOM     21  C   UNL     1      -4.211  14.496  21.764  0.00  0.00    +0.000 A 
ATOM     22  C   UNL     1      -5.156  15.318  21.115  0.00  0.00    +0.000 A 
ATOM     23  C   UNL     1      -5.837  16.334  21.793  0.00  0.00    +0.000 A 
ATOM     24  C   UNL     1      -5.601  16.534  23.146  0.00  0.00    +0.000 A 
ATOM     25 CL   UNL     1      -6.429  17.788  23.981  0.00  0.00    +0.000 Cl
ATOM     26  C   UNL     1      -4.694  15.726  23.824  0.00  0.00    +0.000 A 
ATOM     27  C   UNL     1      -4.004  14.719  23.137  0.00  0.00    +0.000 A 
ENDBRANCH  18  21
ENDBRANCH  12  15
ENDBRANCH   6  11
BRANCH   1  28
ATOM     28  C   UNL     1       5.753   4.729  18.109  0.00  0.00    +0.000 C 
BRANCH  28  32
ATOM     29  N   UNL     1       6.455   4.475  14.530  0.00  0.00    +0.000 N 
ATOM     30  C   UNL     1       5.886   4.221  15.752  0.00  0.00    +0.000 C 
ATOM     31  O   UNL     1       5.013   3.373  15.904  0.00  0.00    +0.000 OA
ATOM     32  N   UNL     1       6.350   5.015  16.799  0.00  0.00    +0.000 N 
ATOM     33  C   UNL     1       7.317   6.099  16.647  0.00  0.00    +0.000 C 
ATOM     34  H   UNL     1       7.427   4.736  14.560  0.00  0.00    +0.000 HD
BRANCH  29  36
ATOM     35  C   UNL     1       7.067   3.946  12.228  0.00  0.00    +0.000 C 
ATOM     36  C   UNL     1       6.044   3.764  13.334  0.00  0.00    +0.000 C 
ENDBRANCH  29  36
ENDBRANCH  28  32
ENDBRANCH   1  28
TORSDOF 6
ENDMDL
