MODEL 1
REMARK VINA RESULT:      -7.1      0.000      0.000
REMARK  Name = 
REMARK  7 active torsions:
REMARK  status: ('A' for Active; 'I' for Inactive)
REMARK    1  A    between atoms: C_1  and  C_2
REMARK    2  A    between atoms: C_2  and  C_3
REMARK    3  A    between atoms: C_2  and  N_4
REMARK    4  A    between atoms: N_4  and  C_5
REMARK    5  A    between atoms: C_8  and  C_9
REMARK    6  A    between atoms: C_11  and  C_12
REMARK    7  A    between atoms: C_20  and  N_21
REMARK                            x       y       z     vdW  Elec       q    Type
REMARK                         _______ _______ _______ _____ _____    ______ ____
ROOT
ATOM      1  C   UNL     1       6.360   5.597  16.225  0.00  0.00    +0.000 A 
ATOM      2  C   UNL     1       5.157   6.183  15.788  0.00  0.00    +0.000 A 
ATOM      3  C   UNL     1       4.123   6.538  16.672  0.00  0.00    +0.000 A 
ATOM      4  C   UNL     1       4.202   6.238  18.038  0.00  0.00    +0.000 A 
ATOM      5  C   UNL     1       5.355   5.588  18.492  0.00  0.00    +0.000 A 
ATOM      6  C   UNL     1       6.406   5.294  17.603  0.00  0.00    +0.000 A 
ENDROOT
BRANCH   4   7
ATOM      7  C   UNL     1       3.140   6.542  18.977  0.00  0.00    +0.000 A 
ATOM      8  N   UNL     1       2.442   7.646  19.097  0.00  0.00    +0.000 NA
ATOM      9  C   UNL     1       1.807   7.453  20.301  0.00  0.00    +0.000 A 
ATOM     10  N   UNL     1       2.021   6.252  20.858  0.00  0.00    +0.000 NA
ATOM     11  O   UNL     1       2.894   5.633  19.962  0.00  0.00    +0.000 OA
BRANCH   9  12
ATOM     12  C   UNL     1       1.014   8.529  20.961  0.00  0.00    +0.000 A 
ATOM     13  C   UNL     1       0.447   9.617  20.320  0.00  0.00    +0.000 A 
ATOM     14  C   UNL     1      -0.182  10.401  21.319  0.00  0.00    +0.000 A 
ATOM     15  C   UNL     1       0.062   9.761  22.511  0.00  0.00    +0.000 A 
ATOM     16  O   UNL     1       0.764   8.618  22.304  0.00  0.00    +0.000 OA
ENDBRANCH   9  12
ENDBRANCH   4   7
BRANCH   6  17
ATOM     17  N   UNL     1       7.638   4.868  18.228  0.00  0.00    +0.000 N 
ATOM     18  O   UNL     1       7.883   5.355  19.350  0.00  0.00    +0.000 OA
ATOM     19  O   UNL     1       8.324   4.036  17.646  0.00  0.00    +0.000 OA
ENDBRANCH   6  17
BRANCH   1  20
ATOM     20  N   UNL     1       7.391   5.276  15.309  0.00  0.00    +0.000 N 
ATOM     21  H   UNL     1       8.205   5.883  15.434  0.00  0.00    +0.000 HD
BRANCH  20  23
ATOM     22  C   UNL     1       8.310   5.415  13.034  0.00  0.00    +0.000 C 
ATOM     23  C   UNL     1       7.055   5.169  13.868  0.00  0.00    +0.000 C 
ATOM     24  C   UNL     1       6.523   3.773  13.520  0.00  0.00    +0.000 C 
ENDBRANCH  20  23
ENDBRANCH   1  20
TORSDOF 5
ENDMDL
MODEL 2
REMARK VINA RESULT:      -7.1      2.555      3.388
REMARK  Name = 
REMARK  7 active torsions:
REMARK  status: ('A' for Active; 'I' for Inactive)
REMARK    1  A    between atoms: C_1  and  C_2
REMARK    2  A    between atoms: C_2  and  C_3
REMARK    3  A    between atoms: C_2  and  N_4
REMARK    4  A    between atoms: N_4  and  C_5
REMARK    5  A    between atoms: C_8  and  C_9
REMARK    6  A    between atoms: C_11  and  C_12
REMARK    7  A    between atoms: C_20  and  N_21
REMARK                            x       y       z     vdW  Elec       q    Type
REMARK                         _______ _______ _______ _____ _____    ______ ____
ROOT
ATOM      1  C   UNL     1       4.102   5.384  17.124  0.00  0.00    +0.000 A 
ATOM      2  C   UNL     1       4.482   6.732  16.977  0.00  0.00    +0.000 A 
ATOM      3  C   UNL     1       3.749   7.790  17.541  0.00  0.00    +0.000 A 
ATOM      4  C   UNL     1       2.539   7.560  18.208  0.00  0.00    +0.000 A 
ATOM      5  C   UNL     1       2.096   6.237  18.305  0.00  0.00    +0.000 A 
ATOM      6  C   UNL     1       2.873   5.184  17.787  0.00  0.00    +0.000 A 
ENDROOT
BRANCH   4   7
ATOM      7  C   UNL     1       1.726   8.625  18.762  0.00  0.00    +0.000 A 
ATOM      8  N   UNL     1       1.523   8.933  20.022  0.00  0.00    +0.000 NA
ATOM      9  C   UNL     1       0.475   9.817  19.935  0.00  0.00    +0.000 A 
ATOM     10  N   UNL     1       0.104  10.122  18.682  0.00  0.00    +0.000 NA
ATOM     11  O   UNL     1       0.957   9.343  17.896  0.00  0.00    +0.000 OA
BRANCH   9  12
ATOM     12  C   UNL     1      -0.235  10.327  21.142  0.00  0.00    +0.000 A 
ATOM     13  C   UNL     1      -0.242   9.720  22.386  0.00  0.00    +0.000 A 
ATOM     14  C   UNL     1      -1.062  10.513  23.226  0.00  0.00    +0.000 A 
ATOM     15  C   UNL     1      -1.528  11.539  22.440  0.00  0.00    +0.000 A 
ATOM     16  O   UNL     1      -1.018  11.449  21.185  0.00  0.00    +0.000 OA
ENDBRANCH   9  12
ENDBRANCH   4   7
BRANCH   6  17
ATOM     17  N   UNL     1       2.448   3.857  18.178  0.00  0.00    +0.000 N 
ATOM     18  O   UNL     1       2.478   3.608  19.400  0.00  0.00    +0.000 OA
ATOM     19  O   UNL     1       2.051   3.097  17.304  0.00  0.00    +0.000 OA
ENDBRANCH   6  17
BRANCH   1  20
ATOM     20  N   UNL     1       4.879   4.341  16.564  0.00  0.00    +0.000 N 
ATOM     21  H   UNL     1       5.087   3.617  17.256  0.00  0.00    +0.000 HD
BRANCH  20  23
ATOM     22  C   UNL     1       7.333   4.424  16.688  0.00  0.00    +0.000 C 
ATOM     23  C   UNL     1       6.110   4.693  15.814  0.00  0.00    +0.000 C 
ATOM     24  C   UNL     1       6.247   3.854  14.538  0.00  0.00    +0.000 C 
ENDBRANCH  20  23
ENDBRANCH   1  20
TORSDOF 5
ENDMDL
MODEL 3
REMARK VINA RESULT:      -7.1      2.122      8.161
REMARK  Name = 
REMARK  7 active torsions:
REMARK  status: ('A' for Active; 'I' for Inactive)
REMARK    1  A    between atoms: C_1  and  C_2
REMARK    2  A    between atoms: C_2  and  C_3
REMARK    3  A    between atoms: C_2  and  N_4
REMARK    4  A    between atoms: N_4  and  C_5
REMARK    5  A    between atoms: C_8  and  C_9
REMARK    6  A    between atoms: C_11  and  C_12
REMARK    7  A    between atoms: C_20  and  N_21
REMARK                            x       y       z     vdW  Elec       q    Type
REMARK                         _______ _______ _______ _____ _____    ______ ____
ROOT
ATOM      1  C   UNL     1       2.097   6.727  20.017  0.00  0.00    +0.000 A 
ATOM      2  C   UNL     1       2.708   7.497  19.008  0.00  0.00    +0.000 A 
ATOM      3  C   UNL     1       3.534   6.931  18.021  0.00  0.00    +0.000 A 
ATOM      4  C   UNL     1       3.868   5.570  18.048  0.00  0.00    +0.000 A 
ATOM      5  C   UNL     1       3.336   4.794  19.082  0.00  0.00    +0.000 A 
ATOM      6  C   UNL     1       2.463   5.364  20.027  0.00  0.00    +0.000 A 
ENDROOT
BRANCH   4   7
ATOM      7  C   UNL     1       4.755   4.955  17.079  0.00  0.00    +0.000 A 
ATOM      8  N   UNL     1       5.504   5.532  16.169  0.00  0.00    +0.000 NA
ATOM      9  C   UNL     1       5.882   4.464  15.392  0.00  0.00    +0.000 A 
ATOM     10  N   UNL     1       5.472   3.270  15.846  0.00  0.00    +0.000 NA
ATOM     11  O   UNL     1       4.737   3.596  16.988  0.00  0.00    +0.000 OA
BRANCH   9  12
ATOM     12  C   UNL     1       6.620   4.639  14.108  0.00  0.00    +0.000 A 
ATOM     13  C   UNL     1       6.419   3.895  12.959  0.00  0.00    +0.000 A 
ATOM     14  C   UNL     1       7.348   4.365  11.998  0.00  0.00    +0.000 A 
ATOM     15  C   UNL     1       8.078   5.346  12.625  0.00  0.00    +0.000 A 
ATOM     16  O   UNL     1       7.632   5.536  13.893  0.00  0.00    +0.000 OA
ENDBRANCH   9  12
ENDBRANCH   4   7
BRANCH   6  17
ATOM     17  N   UNL     1       1.775   4.418  20.878  0.00  0.00    +0.000 N 
ATOM     18  O   UNL     1       0.633   4.077  20.512  0.00  0.00    +0.000 OA
ATOM     19  O   UNL     1       2.369   3.987  21.859  0.00  0.00    +0.000 OA
ENDBRANCH   6  17
BRANCH   1  20
ATOM     20  N   UNL     1       1.249   7.327  20.980  0.00  0.00    +0.000 N 
ATOM     21  H   UNL     1       0.288   6.989  20.894  0.00  0.00    +0.000 HD
BRANCH  20  23
ATOM     22  C   UNL     1       0.053   9.388  20.375  0.00  0.00    +0.000 C 
ATOM     23  C   UNL     1       1.256   8.805  21.113  0.00  0.00    +0.000 C 
ATOM     24  C   UNL     1       1.163   9.234  22.583  0.00  0.00    +0.000 C 
ENDBRANCH  20  23
ENDBRANCH   1  20
TORSDOF 5
ENDMDL
MODEL 4
REMARK VINA RESULT:      -7.0      3.559      8.442
REMARK  Name = 
REMARK  7 active torsions:
REMARK  status: ('A' for Active; 'I' for Inactive)
REMARK    1  A    between atoms: C_1  and  C_2
REMARK    2  A    between atoms: C_2  and  C_3
REMARK    3  A    between atoms: C_2  and  N_4
REMARK    4  A    between atoms: N_4  and  C_5
REMARK    5  A    between atoms: C_8  and  C_9
REMARK    6  A    between atoms: C_11  and  C_12
REMARK    7  A    between atoms: C_20  and  N_21
REMARK                            x       y       z     vdW  Elec       q    Type
REMARK                         _______ _______ _______ _____ _____    ______ ____
ROOT
ATOM      1  C   UNL     1       3.702   4.838  19.368  0.00  0.00    +0.000 A 
ATOM      2  C   UNL     1       3.725   5.960  18.518  0.00  0.00    +0.000 A 
ATOM      3  C   UNL     1       4.241   5.907  17.211  0.00  0.00    +0.000 A 
ATOM      4  C   UNL     1       4.848   4.745  16.717  0.00  0.00    +0.000 A 
ATOM      5  C   UNL     1       4.906   3.635  17.566  0.00  0.00    +0.000 A 
ATOM      6  C   UNL     1       4.331   3.687  18.850  0.00  0.00    +0.000 A 
ENDROOT
BRANCH   4   7
ATOM      7  C   UNL     1       5.435   4.661  15.394  0.00  0.00    +0.000 A 
ATOM      8  N   UNL     1       5.201   3.784  14.446  0.00  0.00    +0.000 NA
ATOM      9  C   UNL     1       6.227   4.035  13.566  0.00  0.00    +0.000 A 
ATOM     10  N   UNL     1       7.005   5.076  13.898  0.00  0.00    +0.000 NA
ATOM     11  O   UNL     1       6.462   5.510  15.109  0.00  0.00    +0.000 OA
BRANCH   9  12
ATOM     12  C   UNL     1       6.490   3.163  12.386  0.00  0.00    +0.000 A 
ATOM     13  C   UNL     1       5.584   2.284  11.819  0.00  0.00    +0.000 A 
ATOM     14  C   UNL     1       6.252   1.637  10.750  0.00  0.00    +0.000 A 
ATOM     15  C   UNL     1       7.532   2.138  10.745  0.00  0.00    +0.000 A 
ATOM     16  O   UNL     1       7.680   3.077  11.715  0.00  0.00    +0.000 OA
ENDBRANCH   9  12
ENDBRANCH   4   7
BRANCH   6  17
ATOM     17  N   UNL     1       4.220   2.412  19.525  0.00  0.00    +0.000 N 
ATOM     18  O   UNL     1       4.898   2.279  20.563  0.00  0.00    +0.000 OA
ATOM     19  O   UNL     1       3.446   1.582  19.066  0.00  0.00    +0.000 OA
ENDBRANCH   6  17
BRANCH   1  20
ATOM     20  N   UNL     1       3.150   4.921  20.670  0.00  0.00    +0.000 N 
ATOM     21  H   UNL     1       3.769   4.499  21.366  0.00  0.00    +0.000 HD
BRANCH  20  23
ATOM     22  C   UNL     1       1.115   4.135  19.537  0.00  0.00    +0.000 C 
ATOM     23  C   UNL     1       1.757   4.458  20.884  0.00  0.00    +0.000 C 
ATOM     24  C   UNL     1       1.715   3.189  21.745  0.00  0.00    +0.000 C 
ENDBRANCH  20  23
ENDBRANCH   1  20
TORSDOF 5
ENDMDL
MODEL 5
REMARK VINA RESULT:      -7.0      2.217      8.408
REMARK  Name = 
REMARK  7 active torsions:
REMARK  status: ('A' for Active; 'I' for Inactive)
REMARK    1  A    between atoms: C_1  and  C_2
REMARK    2  A    between atoms: C_2  and  C_3
REMARK    3  A    between atoms: C_2  and  N_4
REMARK    4  A    between atoms: N_4  and  C_5
REMARK    5  A    between atoms: C_8  and  C_9
REMARK    6  A    between atoms: C_11  and  C_12
REMARK    7  A    between atoms: C_20  and  N_21
REMARK                            x       y       z     vdW  Elec       q    Type
REMARK                         _______ _______ _______ _____ _____    ______ ____
ROOT
ATOM      1  C   UNL     1       0.503  10.102  19.640  0.00  0.00    +0.000 A 
ATOM      2  C   UNL     1       1.010  10.083  18.327  0.00  0.00    +0.000 A 
ATOM      3  C   UNL     1       1.818   9.040  17.842  0.00  0.00    +0.000 A 
ATOM      4  C   UNL     1       2.238   7.999  18.681  0.00  0.00    +0.000 A 
ATOM      5  C   UNL     1       1.812   8.030  20.013  0.00  0.00    +0.000 A 
ATOM      6  C   UNL     1       0.955   9.050  20.465  0.00  0.00    +0.000 A 
ENDROOT
BRANCH   4   7
ATOM      7  C   UNL     1       3.110   6.929  18.237  0.00  0.00    +0.000 A 
ATOM      8  N   UNL     1       4.097   6.979  17.373  0.00  0.00    +0.000 NA
ATOM      9  C   UNL     1       4.352   5.647  17.154  0.00  0.00    +0.000 A 
ATOM     10  N   UNL     1       3.630   4.808  17.911  0.00  0.00    +0.000 NA
ATOM     11  O   UNL     1       2.815   5.666  18.653  0.00  0.00    +0.000 OA
BRANCH   9  12
ATOM     12  C   UNL     1       5.299   5.184  16.100  0.00  0.00    +0.000 A 
ATOM     13  C   UNL     1       5.190   4.004  15.384  0.00  0.00    +0.000 A 
ATOM     14  C   UNL     1       6.311   3.943  14.520  0.00  0.00    +0.000 A 
ATOM     15  C   UNL     1       7.050   5.072  14.777  0.00  0.00    +0.000 A 
ATOM     16  O   UNL     1       6.438   5.840  15.714  0.00  0.00    +0.000 OA
ENDBRANCH   9  12
ENDBRANCH   4   7
BRANCH   6  17
ATOM     17  N   UNL     1       0.375   8.831  21.772  0.00  0.00    +0.000 N 
ATOM     18  O   UNL     1       0.894   9.459  22.716  0.00  0.00    +0.000 OA
ATOM     19  O   UNL     1      -0.598   8.092  21.856  0.00  0.00    +0.000 OA
ENDBRANCH   6  17
BRANCH   1  20
ATOM     20  N   UNL     1      -0.329  11.157  20.086  0.00  0.00    +0.000 N 
ATOM     21  H   UNL     1      -0.961  11.474  19.347  0.00  0.00    +0.000 HD
BRANCH  20  23
ATOM     22  C   UNL     1       0.268  13.525  19.809  0.00  0.00    +0.000 C 
ATOM     23  C   UNL     1       0.297  12.325  20.753  0.00  0.00    +0.000 C 
ATOM     24  C   UNL     1      -0.458  12.711  22.032  0.00  0.00    +0.000 C 
ENDBRANCH  20  23
ENDBRANCH   1  20
TORSDOF 5
ENDMDL
MODEL 6
REMARK VINA RESULT:      -7.0      2.288      3.116
REMARK  Name = 
REMARK  7 active torsions:
REMARK  status: ('A' for Active; 'I' for Inactive)
REMARK    1  A    between atoms: C_1  and  C_2
REMARK    2  A    between atoms: C_2  and  C_3
REMARK    3  A    between atoms: C_2  and  N_4
REMARK    4  A    between atoms: N_4  and  C_5
REMARK    5  A    between atoms: C_8  and  C_9
REMARK    6  A    between atoms: C_11  and  C_12
REMARK    7  A    between atoms: C_20  and  N_21
REMARK                            x       y       z     vdW  Elec       q    Type
REMARK                         _______ _______ _______ _____ _____    ______ ____
ROOT
ATOM      1  C   UNL     1       4.131   5.068  17.039  0.00  0.00    +0.000 A 
ATOM      2  C   UNL     1       4.389   6.453  17.045  0.00  0.00    +0.000 A 
ATOM      3  C   UNL     1       3.681   7.350  17.863  0.00  0.00    +0.000 A 
ATOM      4  C   UNL     1       2.610   6.918  18.657  0.00  0.00    +0.000 A 
ATOM      5  C   UNL     1       2.282   5.558  18.615  0.00  0.00    +0.000 A 
ATOM      6  C   UNL     1       3.039   4.664  17.836  0.00  0.00    +0.000 A 
ENDROOT
BRANCH   4   7
ATOM      7  C   UNL     1       1.822   7.815  19.479  0.00  0.00    +0.000 A 
ATOM      8  N   UNL     1       1.392   9.023  19.196  0.00  0.00    +0.000 NA
ATOM      9  C   UNL     1       0.966   9.468  20.424  0.00  0.00    +0.000 A 
ATOM     10  N   UNL     1       1.036   8.556  21.405  0.00  0.00    +0.000 NA
ATOM     11  O   UNL     1       1.587   7.442  20.768  0.00  0.00    +0.000 OA
BRANCH   9  12
ATOM     12  C   UNL     1       0.539  10.878  20.652  0.00  0.00    +0.000 A 
ATOM     13  C   UNL     1      -0.710  11.396  20.358  0.00  0.00    +0.000 A 
ATOM     14  C   UNL     1      -0.675  12.772  20.696  0.00  0.00    +0.000 A 
ATOM     15  C   UNL     1       0.599  13.018  21.149  0.00  0.00    +0.000 A 
ATOM     16  O   UNL     1       1.334  11.877  21.147  0.00  0.00    +0.000 OA
ENDBRANCH   9  12
ENDBRANCH   4   7
BRANCH   6  17
ATOM     17  N   UNL     1       2.776   3.263  18.078  0.00  0.00    +0.000 N 
ATOM     18  O   UNL     1       3.715   2.603  18.565  0.00  0.00    +0.000 OA
ATOM     19  O   UNL     1       1.654   2.836  17.837  0.00  0.00    +0.000 OA
ENDBRANCH   6  17
BRANCH   1  20
ATOM     20  N   UNL     1       4.882   4.190  16.220  0.00  0.00    +0.000 N 
ATOM     21  H   UNL     1       5.145   3.340  16.724  0.00  0.00    +0.000 HD
BRANCH  20  23
ATOM     22  C   UNL     1       7.314   4.529  16.328  0.00  0.00    +0.000 C 
ATOM     23  C   UNL     1       6.055   4.727  15.487  0.00  0.00    +0.000 C 
ATOM     24  C   UNL     1       6.260   4.002  14.151  0.00  0.00    +0.000 C 
ENDBRANCH  20  23
ENDBRANCH   1  20
TORSDOF 5
ENDMDL
MODEL 7
REMARK VINA RESULT:      -7.0      1.229      1.296
REMARK  Name = 
REMARK  7 active torsions:
REMARK  status: ('A' for Active; 'I' for Inactive)
REMARK    1  A    between atoms: C_1  and  C_2
REMARK    2  A    between atoms: C_2  and  C_3
REMARK    3  A    between atoms: C_2  and  N_4
REMARK    4  A    between atoms: N_4  and  C_5
REMARK    5  A    between atoms: C_8  and  C_9
REMARK    6  A    between atoms: C_11  and  C_12
REMARK    7  A    between atoms: C_20  and  N_21
REMARK                            x       y       z     vdW  Elec       q    Type
REMARK                         _______ _______ _______ _____ _____    ______ ____
ROOT
ATOM      1  C   UNL     1       5.921   4.826  16.284  0.00  0.00    +0.000 A 
ATOM      2  C   UNL     1       4.625   4.283  16.206  0.00  0.00    +0.000 A 
ATOM      3  C   UNL     1       3.600   4.639  17.100  0.00  0.00    +0.000 A 
ATOM      4  C   UNL     1       3.847   5.496  18.181  0.00  0.00    +0.000 A 
ATOM      5  C   UNL     1       5.146   5.994  18.329  0.00  0.00    +0.000 A 
ATOM      6  C   UNL     1       6.144   5.673  17.390  0.00  0.00    +0.000 A 
ENDROOT
BRANCH   4   7
ATOM      7  C   UNL     1       2.834   5.852  19.155  0.00  0.00    +0.000 A 
ATOM      8  N   UNL     1       2.335   7.036  19.425  0.00  0.00    +0.000 NA
ATOM      9  C   UNL     1       1.650   6.797  20.592  0.00  0.00    +0.000 A 
ATOM     10  N   UNL     1       1.640   5.513  20.981  0.00  0.00    +0.000 NA
ATOM     11  O   UNL     1       2.412   4.877  20.008  0.00  0.00    +0.000 OA
BRANCH   9  12
ATOM     12  C   UNL     1       1.041   7.897  21.393  0.00  0.00    +0.000 A 
ATOM     13  C   UNL     1      -0.313   8.168  21.486  0.00  0.00    +0.000 A 
ATOM     14  C   UNL     1      -0.448   9.309  22.314  0.00  0.00    +0.000 A 
ATOM     15  C   UNL     1       0.829   9.683  22.654  0.00  0.00    +0.000 A 
ATOM     16  O   UNL     1       1.736   8.824  22.122  0.00  0.00    +0.000 OA
ENDBRANCH   9  12
ENDBRANCH   4   7
BRANCH   6  17
ATOM     17  N   UNL     1       7.360   6.450  17.496  0.00  0.00    +0.000 N 
ATOM     18  O   UNL     1       7.905   6.466  18.618  0.00  0.00    +0.000 OA
ATOM     19  O   UNL     1       7.789   6.993  16.486  0.00  0.00    +0.000 OA
ENDBRANCH   6  17
BRANCH   1  20
ATOM     20  N   UNL     1       6.922   4.463  15.350  0.00  0.00    +0.000 N 
ATOM     21  H   UNL     1       7.847   4.780  15.650  0.00  0.00    +0.000 HD
BRANCH  20  23
ATOM     22  C   UNL     1       8.030   5.275  13.311  0.00  0.00    +0.000 C 
ATOM     23  C   UNL     1       6.714   4.794  13.918  0.00  0.00    +0.000 C 
ATOM     24  C   UNL     1       6.247   3.568  13.123  0.00  0.00    +0.000 C 
ENDBRANCH  20  23
ENDBRANCH   1  20
TORSDOF 5
ENDMDL
MODEL 8
REMARK VINA RESULT:      -7.0      2.392      8.404
REMARK  Name = 
REMARK  7 active torsions:
REMARK  status: ('A' for Active; 'I' for Inactive)
REMARK    1  A    between atoms: C_1  and  C_2
REMARK    2  A    between atoms: C_2  and  C_3
REMARK    3  A    between atoms: C_2  and  N_4
REMARK    4  A    between atoms: N_4  and  C_5
REMARK    5  A    between atoms: C_8  and  C_9
REMARK    6  A    between atoms: C_11  and  C_12
REMARK    7  A    between atoms: C_20  and  N_21
REMARK                            x       y       z     vdW  Elec       q    Type
REMARK                         _______ _______ _______ _____ _____    ______ ____
ROOT
ATOM      1  C   UNL     1       0.580  10.240  19.627  0.00  0.00    +0.000 A 
ATOM      2  C   UNL     1       1.120  10.194  18.327  0.00  0.00    +0.000 A 
ATOM      3  C   UNL     1       1.862   9.098  17.855  0.00  0.00    +0.000 A 
ATOM      4  C   UNL     1       2.182   8.023  18.695  0.00  0.00    +0.000 A 
ATOM      5  C   UNL     1       1.723   8.074  20.015  0.00  0.00    +0.000 A 
ATOM      6  C   UNL     1       0.931   9.152  20.454  0.00  0.00    +0.000 A 
ENDROOT
BRANCH   4   7
ATOM      7  C   UNL     1       2.986   6.895  18.264  0.00  0.00    +0.000 A 
ATOM      8  N   UNL     1       4.077   6.896  17.536  0.00  0.00    +0.000 NA
ATOM      9  C   UNL     1       4.215   5.564  17.227  0.00  0.00    +0.000 A 
ATOM     10  N   UNL     1       3.313   4.759  17.810  0.00  0.00    +0.000 NA
ATOM     11  O   UNL     1       2.505   5.647  18.523  0.00  0.00    +0.000 OA
BRANCH   9  12
ATOM     12  C   UNL     1       5.238   5.075  16.259  0.00  0.00    +0.000 A 
ATOM     13  C   UNL     1       6.551   5.504  16.194  0.00  0.00    +0.000 A 
ATOM     14  C   UNL     1       7.157   4.813  15.116  0.00  0.00    +0.000 A 
ATOM     15  C   UNL     1       6.172   4.026  14.570  0.00  0.00    +0.000 A 
ATOM     16  O   UNL     1       5.014   4.159  15.266  0.00  0.00    +0.000 OA
ENDBRANCH   9  12
ENDBRANCH   4   7
BRANCH   6  17
ATOM     17  N   UNL     1       0.301   8.966  21.743  0.00  0.00    +0.000 N 
ATOM     18  O   UNL     1      -0.611   8.116  21.792  0.00  0.00    +0.000 OA
ATOM     19  O   UNL     1       0.728   9.610  22.693  0.00  0.00    +0.000 OA
ENDBRANCH   6  17
BRANCH   1  20
ATOM     20  N   UNL     1      -0.185  11.350  20.061  0.00  0.00    +0.000 N 
ATOM     21  H   UNL     1      -0.763  11.112  20.871  0.00  0.00    +0.000 HD
BRANCH  20  23
ATOM     22  C   UNL     1      -2.439  12.183  19.544  0.00  0.00    +0.000 C 
ATOM     23  C   UNL     1      -0.993  12.092  19.062  0.00  0.00    +0.000 C 
ATOM     24  C   UNL     1      -0.469  13.520  18.868  0.00  0.00    +0.000 C 
ENDBRANCH  20  23
ENDBRANCH   1  20
TORSDOF 5
ENDMDL
MODEL 9
REMARK VINA RESULT:      -7.0      2.221      8.364
REMARK  Name = 
REMARK  7 active torsions:
REMARK  status: ('A' for Active; 'I' for Inactive)
REMARK    1  A    between atoms: C_1  and  C_2
REMARK    2  A    between atoms: C_2  and  C_3
REMARK    3  A    between atoms: C_2  and  N_4
REMARK    4  A    between atoms: N_4  and  C_5
REMARK    5  A    between atoms: C_8  and  C_9
REMARK    6  A    between atoms: C_11  and  C_12
REMARK    7  A    between atoms: C_20  and  N_21
REMARK                            x       y       z     vdW  Elec       q    Type
REMARK                         _______ _______ _______ _____ _____    ______ ____
ROOT
ATOM      1  C   UNL     1       1.644   7.937  19.730  0.00  0.00    +0.000 A 
ATOM      2  C   UNL     1       2.292   6.779  20.199  0.00  0.00    +0.000 A 
ATOM      3  C   UNL     1       3.338   6.160  19.493  0.00  0.00    +0.000 A 
ATOM      4  C   UNL     1       3.731   6.618  18.228  0.00  0.00    +0.000 A 
ATOM      5  C   UNL     1       3.054   7.723  17.702  0.00  0.00    +0.000 A 
ATOM      6  C   UNL     1       2.050   8.367  18.449  0.00  0.00    +0.000 A 
ENDROOT
BRANCH   4   7
ATOM      7  C   UNL     1       4.771   5.981  17.444  0.00  0.00    +0.000 A 
ATOM      8  N   UNL     1       5.111   6.204  16.196  0.00  0.00    +0.000 NA
ATOM      9  C   UNL     1       5.936   5.137  15.931  0.00  0.00    +0.000 A 
ATOM     10  N   UNL     1       6.178   4.342  16.984  0.00  0.00    +0.000 NA
ATOM     11  O   UNL     1       5.417   4.920  18.003  0.00  0.00    +0.000 OA
BRANCH   9  12
ATOM     12  C   UNL     1       6.450   4.853  14.561  0.00  0.00    +0.000 A 
ATOM     13  C   UNL     1       5.932   3.914  13.687  0.00  0.00    +0.000 A 
ATOM     14  C   UNL     1       6.735   3.948  12.521  0.00  0.00    +0.000 A 
ATOM     15  C   UNL     1       7.711   4.885  12.762  0.00  0.00    +0.000 A 
ATOM     16  O   UNL     1       7.536   5.454  13.982  0.00  0.00    +0.000 OA
ENDBRANCH   9  12
ENDBRANCH   4   7
BRANCH   6  17
ATOM     17  N   UNL     1       1.613   9.642  17.921  0.00  0.00    +0.000 N 
ATOM     18  O   UNL     1       0.380   9.812  17.845  0.00  0.00    +0.000 OA
ATOM     19  O   UNL     1       2.468  10.470  17.632  0.00  0.00    +0.000 OA
ENDBRANCH   6  17
BRANCH   1  20
ATOM     20  N   UNL     1       0.611   8.550  20.480  0.00  0.00    +0.000 N 
ATOM     21  H   UNL     1      -0.075   9.004  19.873  0.00  0.00    +0.000 HD
BRANCH  20  23
ATOM     22  C   UNL     1       0.846  10.908  21.133  0.00  0.00    +0.000 C 
ATOM     23  C   UNL     1       0.981   9.458  21.593  0.00  0.00    +0.000 C 
ATOM     24  C   UNL     1       0.064   9.260  22.807  0.00  0.00    +0.000 C 
ENDBRANCH  20  23
ENDBRANCH   1  20
TORSDOF 5
ENDMDL
