MODEL 1
REMARK VINA RESULT:      -7.6      0.000      0.000
REMARK  Name = 
REMARK  6 active torsions:
REMARK  status: ('A' for Active; 'I' for Inactive)
REMARK    1  A    between atoms: C_1  and  C_2
REMARK    2  A    between atoms: C_2  and  C_3
REMARK    3  A    between atoms: N_4  and  N_5
REMARK    4  A    between atoms: C_6  and  C_8
REMARK    5  A    between atoms: C_8  and  C_9
REMARK    6  A    between atoms: C_12  and  N_13
REMARK                            x       y       z     vdW  Elec       q    Type
REMARK                         _______ _______ _______ _____ _____    ______ ____
ROOT
ATOM      1  C   UNL     1       4.695   5.386  16.520  0.00  0.00    +0.000 A 
ATOM      2  C   UNL     1       4.212   6.180  17.563  0.00  0.00    +0.000 A 
ATOM      3  C   UNL     1       3.500   5.609  18.622  0.00  0.00    +0.000 A 
ATOM      4  C   UNL     1       3.255   4.228  18.656  0.00  0.00    +0.000 A 
ATOM      5  C   UNL     1       3.705   3.438  17.589  0.00  0.00    +0.000 A 
ATOM      6  C   UNL     1       4.421   4.014  16.533  0.00  0.00    +0.000 A 
ENDROOT
BRANCH   4   7
ATOM      7  N   UNL     1       2.580   3.636  19.771  0.00  0.00    +0.000 N 
ATOM      8  C   UNL     1       3.170   3.118  20.912  0.00  0.00    +0.000 A 
ATOM      9  C   UNL     1       2.195   2.634  21.755  0.00  0.00    +0.000 A 
ATOM     10  C   UNL     1       0.957   2.845  21.122  0.00  0.00    +0.000 A 
ATOM     11  C   UNL     1       1.216   3.452  19.912  0.00  0.00    +0.000 A 
ENDBRANCH   4   7
BRANCH   1  12
ATOM     12  C   UNL     1       5.584   5.973  15.454  0.00  0.00    +0.000 C 
BRANCH  12  14
ATOM     13  N   UNL     1       5.707   4.255  13.738  0.00  0.00    +0.000 N 
ATOM     14  C   UNL     1       6.400   4.895  14.759  0.00  0.00    +0.000 C 
ATOM     15  O   UNL     1       7.562   4.662  15.086  0.00  0.00    +0.000 OA
ATOM     16  H   UNL     1       4.781   4.567  13.475  0.00  0.00    +0.000 HD
BRANCH  13  20
ATOM     17  C   UNL     1       6.547   1.807  11.146  0.00  0.00    +0.000 C 
ATOM     18  C   UNL     1       5.763   2.821  11.941  0.00  0.00    +0.000 C 
ATOM     19  C   UNL     1       4.376   3.180  11.468  0.00  0.00    +0.000 C 
ATOM     20  N   UNL     1       6.348   3.319  12.989  0.00  0.00    +0.000 NA
ENDBRANCH  13  20
ENDBRANCH  12  14
ENDBRANCH   1  12
TORSDOF 4
ENDMDL
MODEL 2
REMARK VINA RESULT:      -7.6      0.322      1.134
REMARK  Name = 
REMARK  6 active torsions:
REMARK  status: ('A' for Active; 'I' for Inactive)
REMARK    1  A    between atoms: C_1  and  C_2
REMARK    2  A    between atoms: C_2  and  C_3
REMARK    3  A    between atoms: N_4  and  N_5
REMARK    4  A    between atoms: C_6  and  C_8
REMARK    5  A    between atoms: C_8  and  C_9
REMARK    6  A    between atoms: C_12  and  N_13
REMARK                            x       y       z     vdW  Elec       q    Type
REMARK                         _______ _______ _______ _____ _____    ______ ____
ROOT
ATOM      1  C   UNL     1       4.853   5.440  16.547  0.00  0.00    +0.000 A 
ATOM      2  C   UNL     1       4.826   4.062  16.778  0.00  0.00    +0.000 A 
ATOM      3  C   UNL     1       4.074   3.532  17.831  0.00  0.00    +0.000 A 
ATOM      4  C   UNL     1       3.334   4.372  18.676  0.00  0.00    +0.000 A 
ATOM      5  C   UNL     1       3.396   5.757  18.469  0.00  0.00    +0.000 A 
ATOM      6  C   UNL     1       4.146   6.283  17.411  0.00  0.00    +0.000 A 
ENDROOT
BRANCH   4   7
ATOM      7  N   UNL     1       2.517   3.823  19.714  0.00  0.00    +0.000 N 
ATOM      8  C   UNL     1       2.840   3.733  21.058  0.00  0.00    +0.000 A 
ATOM      9  C   UNL     1       1.801   3.142  21.742  0.00  0.00    +0.000 A 
ATOM     10  C   UNL     1       0.800   2.842  20.801  0.00  0.00    +0.000 A 
ATOM     11  C   UNL     1       1.260   3.261  19.571  0.00  0.00    +0.000 A 
ENDBRANCH   4   7
BRANCH   1  12
ATOM     12  C   UNL     1       5.542   6.003  15.331  0.00  0.00    +0.000 C 
BRANCH  12  14
ATOM     13  N   UNL     1       5.643   4.208  13.693  0.00  0.00    +0.000 N 
ATOM     14  C   UNL     1       6.370   4.942  14.624  0.00  0.00    +0.000 C 
ATOM     15  O   UNL     1       7.566   4.797  14.866  0.00  0.00    +0.000 OA
ATOM     16  H   UNL     1       4.680   4.449  13.492  0.00  0.00    +0.000 HD
BRANCH  13  20
ATOM     17  C   UNL     1       6.482   1.774  11.089  0.00  0.00    +0.000 C 
ATOM     18  C   UNL     1       5.699   2.785  11.888  0.00  0.00    +0.000 C 
ATOM     19  C   UNL     1       4.314   3.150  11.414  0.00  0.00    +0.000 C 
ATOM     20  N   UNL     1       6.282   3.276  12.940  0.00  0.00    +0.000 NA
ENDBRANCH  13  20
ENDBRANCH  12  14
ENDBRANCH   1  12
TORSDOF 4
ENDMDL
MODEL 3
REMARK VINA RESULT:      -7.2      4.042      5.679
REMARK  Name = 
REMARK  6 active torsions:
REMARK  status: ('A' for Active; 'I' for Inactive)
REMARK    1  A    between atoms: C_1  and  C_2
REMARK    2  A    between atoms: C_2  and  C_3
REMARK    3  A    between atoms: N_4  and  N_5
REMARK    4  A    between atoms: C_6  and  C_8
REMARK    5  A    between atoms: C_8  and  C_9
REMARK    6  A    between atoms: C_12  and  N_13
REMARK                            x       y       z     vdW  Elec       q    Type
REMARK                         _______ _______ _______ _____ _____    ______ ____
ROOT
ATOM      1  C   UNL     1       5.742   6.181  17.233  0.00  0.00    +0.000 A 
ATOM      2  C   UNL     1       4.659   6.872  17.784  0.00  0.00    +0.000 A 
ATOM      3  C   UNL     1       3.566   6.177  18.310  0.00  0.00    +0.000 A 
ATOM      4  C   UNL     1       3.534   4.775  18.293  0.00  0.00    +0.000 A 
ATOM      5  C   UNL     1       4.602   4.085  17.703  0.00  0.00    +0.000 A 
ATOM      6  C   UNL     1       5.697   4.784  17.181  0.00  0.00    +0.000 A 
ENDROOT
BRANCH   4   7
ATOM      7  N   UNL     1       2.443   4.064  18.887  0.00  0.00    +0.000 N 
ATOM      8  C   UNL     1       1.994   4.183  20.192  0.00  0.00    +0.000 A 
ATOM      9  C   UNL     1       0.928   3.335  20.391  0.00  0.00    +0.000 A 
ATOM     10  C   UNL     1       0.705   2.656  19.179  0.00  0.00    +0.000 A 
ATOM     11  C   UNL     1       1.644   3.112  18.279  0.00  0.00    +0.000 A 
ENDBRANCH   4   7
BRANCH   1  12
ATOM     12  C   UNL     1       6.983   6.918  16.798  0.00  0.00    +0.000 C 
BRANCH  12  14
ATOM     13  N   UNL     1       8.191   8.688  17.947  0.00  0.00    +0.000 N 
ATOM     14  C   UNL     1       7.818   7.350  17.993  0.00  0.00    +0.000 C 
ATOM     15  O   UNL     1       8.091   6.564  18.899  0.00  0.00    +0.000 OA
ATOM     16  H   UNL     1       7.851   9.288  17.207  0.00  0.00    +0.000 HD
BRANCH  13  20
ATOM     17  C   UNL     1       9.907  11.007  20.204  0.00  0.00    +0.000 C 
ATOM     18  C   UNL     1       9.164  10.486  18.999  0.00  0.00    +0.000 C 
ATOM     19  C   UNL     1       8.806  11.462  17.906  0.00  0.00    +0.000 C 
ATOM     20  N   UNL     1       8.880   9.218  18.991  0.00  0.00    +0.000 NA
ENDBRANCH  13  20
ENDBRANCH  12  14
ENDBRANCH   1  12
TORSDOF 4
ENDMDL
MODEL 4
REMARK VINA RESULT:      -7.1      4.251      5.935
REMARK  Name = 
REMARK  6 active torsions:
REMARK  status: ('A' for Active; 'I' for Inactive)
REMARK    1  A    between atoms: C_1  and  C_2
REMARK    2  A    between atoms: C_2  and  C_3
REMARK    3  A    between atoms: N_4  and  N_5
REMARK    4  A    between atoms: C_6  and  C_8
REMARK    5  A    between atoms: C_8  and  C_9
REMARK    6  A    between atoms: C_12  and  N_13
REMARK                            x       y       z     vdW  Elec       q    Type
REMARK                         _______ _______ _______ _____ _____    ______ ____
ROOT
ATOM      1  C   UNL     1       5.825   6.404  17.672  0.00  0.00    +0.000 A 
ATOM      2  C   UNL     1       6.051   5.247  18.423  0.00  0.00    +0.000 A 
ATOM      3  C   UNL     1       4.979   4.475  18.881  0.00  0.00    +0.000 A 
ATOM      4  C   UNL     1       3.657   4.848  18.599  0.00  0.00    +0.000 A 
ATOM      5  C   UNL     1       3.430   6.031  17.882  0.00  0.00    +0.000 A 
ATOM      6  C   UNL     1       4.506   6.799  17.421  0.00  0.00    +0.000 A 
ENDROOT
BRANCH   4   7
ATOM      7  N   UNL     1       2.564   4.025  19.016  0.00  0.00    +0.000 N 
ATOM      8  C   UNL     1       1.713   3.304  18.194  0.00  0.00    +0.000 A 
ATOM      9  C   UNL     1       0.785   2.638  18.963  0.00  0.00    +0.000 A 
ATOM     10  C   UNL     1       1.053   2.957  20.306  0.00  0.00    +0.000 A 
ATOM     11  C   UNL     1       2.138   3.807  20.315  0.00  0.00    +0.000 A 
ENDBRANCH   4   7
BRANCH   1  12
ATOM     12  C   UNL     1       6.975   7.158  17.054  0.00  0.00    +0.000 C 
BRANCH  12  14
ATOM     13  N   UNL     1       8.223   8.999  18.035  0.00  0.00    +0.000 N 
ATOM     14  C   UNL     1       7.954   7.638  18.113  0.00  0.00    +0.000 C 
ATOM     15  O   UNL     1       8.419   6.867  18.951  0.00  0.00    +0.000 OA
ATOM     16  H   UNL     1       7.731   9.580  17.367  0.00  0.00    +0.000 HD
BRANCH  13  20
ATOM     17  C   UNL     1      10.181  11.403  19.984  0.00  0.00    +0.000 C 
ATOM     18  C   UNL     1       9.302  10.837  18.897  0.00  0.00    +0.000 C 
ATOM     19  C   UNL     1       8.811  11.772  17.819  0.00  0.00    +0.000 C 
ATOM     20  N   UNL     1       9.028   9.569  18.969  0.00  0.00    +0.000 NA
ENDBRANCH  13  20
ENDBRANCH  12  14
ENDBRANCH   1  12
TORSDOF 4
ENDMDL
MODEL 5
REMARK VINA RESULT:      -7.0      2.441      4.036
REMARK  Name = 
REMARK  6 active torsions:
REMARK  status: ('A' for Active; 'I' for Inactive)
REMARK    1  A    between atoms: C_1  and  C_2
REMARK    2  A    between atoms: C_2  and  C_3
REMARK    3  A    between atoms: N_4  and  N_5
REMARK    4  A    between atoms: C_6  and  C_8
REMARK    5  A    between atoms: C_8  and  C_9
REMARK    6  A    between atoms: C_12  and  N_13
REMARK                            x       y       z     vdW  Elec       q    Type
REMARK                         _______ _______ _______ _____ _____    ______ ____
ROOT
ATOM      1  C   UNL     1       5.077   4.111  16.666  0.00  0.00    +0.000 A 
ATOM      2  C   UNL     1       5.599   4.035  17.960  0.00  0.00    +0.000 A 
ATOM      3  C   UNL     1       4.767   3.749  19.047  0.00  0.00    +0.000 A 
ATOM      4  C   UNL     1       3.393   3.536  18.860  0.00  0.00    +0.000 A 
ATOM      5  C   UNL     1       2.864   3.654  17.567  0.00  0.00    +0.000 A 
ATOM      6  C   UNL     1       3.701   3.936  16.481  0.00  0.00    +0.000 A 
ENDROOT
BRANCH   4   7
ATOM      7  N   UNL     1       2.554   3.183  19.964  0.00  0.00    +0.000 N 
ATOM      8  C   UNL     1       2.971   2.730  21.204  0.00  0.00    +0.000 A 
ATOM      9  C   UNL     1       1.873   2.492  22.000  0.00  0.00    +0.000 A 
ATOM     10  C   UNL     1       0.732   2.795  21.236  0.00  0.00    +0.000 A 
ATOM     11  C   UNL     1       1.171   3.209  19.997  0.00  0.00    +0.000 A 
ENDBRANCH   4   7
BRANCH   1  12
ATOM     12  C   UNL     1       5.989   4.274  15.477  0.00  0.00    +0.000 C 
BRANCH  12  14
ATOM     13  N   UNL     1       6.286   6.463  16.494  0.00  0.00    +0.000 N 
ATOM     14  C   UNL     1       6.800   5.556  15.575  0.00  0.00    +0.000 C 
ATOM     15  O   UNL     1       7.818   5.721  14.904  0.00  0.00    +0.000 OA
ATOM     16  H   UNL     1       5.491   6.213  17.068  0.00  0.00    +0.000 HD
BRANCH  13  20
ATOM     17  C   UNL     1       8.469   9.020  17.947  0.00  0.00    +0.000 C 
ATOM     18  C   UNL     1       7.736   7.714  17.766  0.00  0.00    +0.000 C 
ATOM     19  C   UNL     1       7.956   6.626  18.788  0.00  0.00    +0.000 C 
ATOM     20  N   UNL     1       6.959   7.619  16.729  0.00  0.00    +0.000 NA
ENDBRANCH  13  20
ENDBRANCH  12  14
ENDBRANCH   1  12
TORSDOF 4
ENDMDL
MODEL 6
REMARK VINA RESULT:      -6.9      2.334      3.979
REMARK  Name = 
REMARK  6 active torsions:
REMARK  status: ('A' for Active; 'I' for Inactive)
REMARK    1  A    between atoms: C_1  and  C_2
REMARK    2  A    between atoms: C_2  and  C_3
REMARK    3  A    between atoms: N_4  and  N_5
REMARK    4  A    between atoms: C_6  and  C_8
REMARK    5  A    between atoms: C_8  and  C_9
REMARK    6  A    between atoms: C_12  and  N_13
REMARK                            x       y       z     vdW  Elec       q    Type
REMARK                         _______ _______ _______ _____ _____    ______ ____
ROOT
ATOM      1  C   UNL     1       5.012   3.903  16.285  0.00  0.00    +0.000 A 
ATOM      2  C   UNL     1       3.622   3.796  16.189  0.00  0.00    +0.000 A 
ATOM      3  C   UNL     1       2.848   3.546  17.327  0.00  0.00    +0.000 A 
ATOM      4  C   UNL     1       3.451   3.396  18.584  0.00  0.00    +0.000 A 
ATOM      5  C   UNL     1       4.848   3.462  18.671  0.00  0.00    +0.000 A 
ATOM      6  C   UNL     1       5.619   3.716  17.531  0.00  0.00    +0.000 A 
ENDROOT
BRANCH   4   7
ATOM      7  N   UNL     1       2.653   3.202  19.756  0.00  0.00    +0.000 N 
ATOM      8  C   UNL     1       3.105   2.817  21.007  0.00  0.00    +0.000 A 
ATOM      9  C   UNL     1       2.039   2.734  21.875  0.00  0.00    +0.000 A 
ATOM     10  C   UNL     1       0.883   3.066  21.147  0.00  0.00    +0.000 A 
ATOM     11  C   UNL     1       1.280   3.343  19.857  0.00  0.00    +0.000 A 
ENDBRANCH   4   7
BRANCH   1  12
ATOM     12  C   UNL     1       5.835   4.314  15.091  0.00  0.00    +0.000 C 
BRANCH  12  14
ATOM     13  N   UNL     1       6.108   6.395  16.319  0.00  0.00    +0.000 N 
ATOM     14  C   UNL     1       6.695   5.528  15.405  0.00  0.00    +0.000 C 
ATOM     15  O   UNL     1       7.803   5.675  14.894  0.00  0.00    +0.000 OA
ATOM     16  H   UNL     1       5.228   6.156  16.758  0.00  0.00    +0.000 HD
BRANCH  13  20
ATOM     17  C   UNL     1       8.305   8.646  18.195  0.00  0.00    +0.000 C 
ATOM     18  C   UNL     1       7.542   7.405  17.806  0.00  0.00    +0.000 C 
ATOM     19  C   UNL     1       7.689   6.177  18.671  0.00  0.00    +0.000 C 
ATOM     20  N   UNL     1       6.804   7.483  16.739  0.00  0.00    +0.000 NA
ENDBRANCH  13  20
ENDBRANCH  12  14
ENDBRANCH   1  12
TORSDOF 4
ENDMDL
MODEL 7
REMARK VINA RESULT:      -6.9      4.770      6.834
REMARK  Name = 
REMARK  6 active torsions:
REMARK  status: ('A' for Active; 'I' for Inactive)
REMARK    1  A    between atoms: C_1  and  C_2
REMARK    2  A    between atoms: C_2  and  C_3
REMARK    3  A    between atoms: N_4  and  N_5
REMARK    4  A    between atoms: C_6  and  C_8
REMARK    5  A    between atoms: C_8  and  C_9
REMARK    6  A    between atoms: C_12  and  N_13
REMARK                            x       y       z     vdW  Elec       q    Type
REMARK                         _______ _______ _______ _____ _____    ______ ____
ROOT
ATOM      1  C   UNL     1       2.369   7.825  18.625  0.00  0.00    +0.000 A 
ATOM      2  C   UNL     1       1.699   8.947  18.129  0.00  0.00    +0.000 A 
ATOM      3  C   UNL     1       0.877   9.711  18.963  0.00  0.00    +0.000 A 
ATOM      4  C   UNL     1       0.708   9.366  20.312  0.00  0.00    +0.000 A 
ATOM      5  C   UNL     1       1.348   8.217  20.798  0.00  0.00    +0.000 A 
ATOM      6  C   UNL     1       2.173   7.457  19.960  0.00  0.00    +0.000 A 
ENDROOT
BRANCH   4   7
ATOM      7  N   UNL     1      -0.083  10.185  21.179  0.00  0.00    +0.000 N 
ATOM      8  C   UNL     1      -0.273  10.003  22.539  0.00  0.00    +0.000 A 
ATOM      9  C   UNL     1      -1.101  10.991  23.024  0.00  0.00    +0.000 A 
ATOM     10  C   UNL     1      -1.450  11.811  21.937  0.00  0.00    +0.000 A 
ATOM     11  C   UNL     1      -0.823  11.298  20.822  0.00  0.00    +0.000 A 
ENDBRANCH   4   7
BRANCH   1  12
ATOM     12  C   UNL     1       3.366   7.084  17.771  0.00  0.00    +0.000 C 
BRANCH  12  14
ATOM     13  N   UNL     1       1.885   5.156  17.780  0.00  0.00    +0.000 N 
ATOM     14  C   UNL     1       3.203   5.580  17.910  0.00  0.00    +0.000 C 
ATOM     15  O   UNL     1       4.172   4.846  18.095  0.00  0.00    +0.000 OA
ATOM     16  H   UNL     1       1.156   5.817  17.542  0.00  0.00    +0.000 HD
BRANCH  13  20
ATOM     17  C   UNL     1       0.860   1.809  18.857  0.00  0.00    +0.000 C 
ATOM     18  C   UNL     1       1.164   3.285  18.906  0.00  0.00    +0.000 C 
ATOM     19  C   UNL     1       0.928   4.019  20.203  0.00  0.00    +0.000 C 
ATOM     20  N   UNL     1       1.612   3.825  17.812  0.00  0.00    +0.000 NA
ENDBRANCH  13  20
ENDBRANCH  12  14
ENDBRANCH   1  12
TORSDOF 4
ENDMDL
MODEL 8
REMARK VINA RESULT:      -6.9      5.446      7.585
REMARK  Name = 
REMARK  6 active torsions:
REMARK  status: ('A' for Active; 'I' for Inactive)
REMARK    1  A    between atoms: C_1  and  C_2
REMARK    2  A    between atoms: C_2  and  C_3
REMARK    3  A    between atoms: N_4  and  N_5
REMARK    4  A    between atoms: C_6  and  C_8
REMARK    5  A    between atoms: C_8  and  C_9
REMARK    6  A    between atoms: C_12  and  N_13
REMARK                            x       y       z     vdW  Elec       q    Type
REMARK                         _______ _______ _______ _____ _____    ______ ____
ROOT
ATOM      1  C   UNL     1       2.032   8.623  18.577  0.00  0.00    +0.000 A 
ATOM      2  C   UNL     1       2.657   7.636  17.810  0.00  0.00    +0.000 A 
ATOM      3  C   UNL     1       2.874   6.359  18.335  0.00  0.00    +0.000 A 
ATOM      4  C   UNL     1       2.471   6.044  19.642  0.00  0.00    +0.000 A 
ATOM      5  C   UNL     1       1.882   7.047  20.424  0.00  0.00    +0.000 A 
ATOM      6  C   UNL     1       1.663   8.324  19.893  0.00  0.00    +0.000 A 
ENDROOT
BRANCH   4   7
ATOM      7  N   UNL     1       2.638   4.719  20.156  0.00  0.00    +0.000 N 
ATOM      8  C   UNL     1       3.479   3.740  19.654  0.00  0.00    +0.000 A 
ATOM      9  C   UNL     1       3.360   2.597  20.414  0.00  0.00    +0.000 A 
ATOM     10  C   UNL     1       2.410   2.862  21.416  0.00  0.00    +0.000 A 
ATOM     11  C   UNL     1       1.979   4.159  21.236  0.00  0.00    +0.000 A 
ENDBRANCH   4   7
BRANCH   1  12
ATOM     12  C   UNL     1       1.666   9.953  17.969  0.00  0.00    +0.000 C 
BRANCH  12  14
ATOM     13  N   UNL     1      -0.746   9.963  17.666  0.00  0.00    +0.000 N 
ATOM     14  C   UNL     1       0.304  10.425  18.451  0.00  0.00    +0.000 C 
ATOM     15  O   UNL     1       0.189  11.127  19.454  0.00  0.00    +0.000 OA
ATOM     16  H   UNL     1      -0.571   9.318  16.906  0.00  0.00    +0.000 HD
BRANCH  13  20
ATOM     17  C   UNL     1      -4.322  10.754  17.599  0.00  0.00    +0.000 C 
ATOM     18  C   UNL     1      -2.923  10.462  17.117  0.00  0.00    +0.000 C 
ATOM     19  C   UNL     1      -2.673  10.430  15.630  0.00  0.00    +0.000 C 
ATOM     20  N   UNL     1      -2.022  10.255  18.031  0.00  0.00    +0.000 NA
ENDBRANCH  13  20
ENDBRANCH  12  14
ENDBRANCH   1  12
TORSDOF 4
ENDMDL
MODEL 9
REMARK VINA RESULT:      -6.8      2.028      7.166
REMARK  Name = 
REMARK  6 active torsions:
REMARK  status: ('A' for Active; 'I' for Inactive)
REMARK    1  A    between atoms: C_1  and  C_2
REMARK    2  A    between atoms: C_2  and  C_3
REMARK    3  A    between atoms: N_4  and  N_5
REMARK    4  A    between atoms: C_6  and  C_8
REMARK    5  A    between atoms: C_8  and  C_9
REMARK    6  A    between atoms: C_12  and  N_13
REMARK                            x       y       z     vdW  Elec       q    Type
REMARK                         _______ _______ _______ _____ _____    ______ ____
ROOT
ATOM      1  C   UNL     1       6.092   5.444  17.790  0.00  0.00    +0.000 A 
ATOM      2  C   UNL     1       5.231   5.943  16.810  0.00  0.00    +0.000 A 
ATOM      3  C   UNL     1       5.444   5.649  15.459  0.00  0.00    +0.000 A 
ATOM      4  C   UNL     1       6.527   4.851  15.063  0.00  0.00    +0.000 A 
ATOM      5  C   UNL     1       7.414   4.386  16.044  0.00  0.00    +0.000 A 
ATOM      6  C   UNL     1       7.195   4.679  17.395  0.00  0.00    +0.000 A 
ENDROOT
BRANCH   4   7
ATOM      7  N   UNL     1       6.708   4.501  13.688  0.00  0.00    +0.000 N 
ATOM      8  C   UNL     1       6.062   3.484  13.003  0.00  0.00    +0.000 A 
ATOM      9  C   UNL     1       6.504   3.455  11.699  0.00  0.00    +0.000 A 
ATOM     10  C   UNL     1       7.461   4.475  11.562  0.00  0.00    +0.000 A 
ATOM     11  C   UNL     1       7.574   5.096  12.787  0.00  0.00    +0.000 A 
ENDBRANCH   4   7
BRANCH   1  12
ATOM     12  C   UNL     1       5.786   5.636  19.254  0.00  0.00    +0.000 C 
BRANCH  12  14
ATOM     13  N   UNL     1       3.507   5.236  20.000  0.00  0.00    +0.000 N 
ATOM     14  C   UNL     1       4.737   4.646  19.733  0.00  0.00    +0.000 C 
ATOM     15  O   UNL     1       4.990   3.448  19.838  0.00  0.00    +0.000 OA
ATOM     16  H   UNL     1       3.358   6.218  19.805  0.00  0.00    +0.000 HD
BRANCH  13  20
ATOM     17  C   UNL     1       0.517   3.122  19.948  0.00  0.00    +0.000 C 
ATOM     18  C   UNL     1       1.636   4.010  19.466  0.00  0.00    +0.000 C 
ATOM     19  C   UNL     1       1.717   4.320  17.992  0.00  0.00    +0.000 C 
ATOM     20  N   UNL     1       2.462   4.449  20.368  0.00  0.00    +0.000 NA
ENDBRANCH  13  20
ENDBRANCH  12  14
ENDBRANCH   1  12
TORSDOF 4
ENDMDL
