MODEL 1
REMARK VINA RESULT:      -6.8      0.000      0.000
REMARK  Name = 
REMARK  6 active torsions:
REMARK  status: ('A' for Active; 'I' for Inactive)
REMARK    1  A    between atoms: C_1  and  C_2
REMARK    2  A    between atoms: C_2  and  C_3
REMARK    3  A    between atoms: C_3  and  C_4
REMARK    4  A    between atoms: C_4  and  C_5
REMARK    5  A    between atoms: C_5  and  C_6
REMARK    6  A    between atoms: C_6  and  C_7
REMARK                            x       y       z     vdW  Elec       q    Type
REMARK                         _______ _______ _______ _____ _____    ______ ____
ROOT
ATOM      1  C   UNL     1       4.599   3.808  18.165  0.00  0.00    +0.000 A 
ATOM      2  C   UNL     1       4.830   4.731  19.173  0.00  0.00    +0.000 A 
ATOM      3  N   UNL     1       5.753   5.674  18.799  0.00  0.00    +0.000 NA
ATOM      4  C   UNL     1       6.067   5.341  17.564  0.00  0.00    +0.000 A 
ATOM      5  C   UNL     1       7.022   5.992  16.685  0.00  0.00    +0.000 A 
ATOM      6  N   UNL     1       7.719   7.106  17.073  0.00  0.00    +0.000 N 
ATOM      7  N   UNL     1       7.252   5.499  15.489  0.00  0.00    +0.000 NA
ATOM      8  C   UNL     1       6.542   4.380  15.088  0.00  0.00    +0.000 A 
ATOM      9  C   UNL     1       5.642   3.740  15.854  0.00  0.00    +0.000 A 
ATOM     10  N   UNL     1       5.403   4.226  17.126  0.00  0.00    +0.000 N 
ATOM     11  H   UNL     1       7.783   7.225  18.078  0.00  0.00    +0.000 HD
ATOM     12  H   UNL     1       8.582   7.241  16.562  0.00  0.00    +0.000 HD
ENDROOT
BRANCH   1  13
ATOM     13  C   UNL     1       3.748   2.588  18.146  0.00  0.00    +0.000 C 
BRANCH  13  14
ATOM     14  C   UNL     1       2.453   2.854  17.377  0.00  0.00    +0.000 C 
BRANCH  14  15
ATOM     15  C   UNL     1       1.470   3.708  18.177  0.00  0.00    +0.000 C 
BRANCH  15  16
ATOM     16  C   UNL     1       0.911   2.914  19.359  0.00  0.00    +0.000 C 
BRANCH  16  18
ATOM     17  C   UNL     1       2.120   2.811  21.560  0.00  0.00    +0.000 C 
ATOM     18  C   UNL     1       1.171   3.618  20.689  0.00  0.00    +0.000 C 
ENDBRANCH  16  18
ENDBRANCH  15  16
ENDBRANCH  14  15
ENDBRANCH  13  14
ENDBRANCH   1  13
TORSDOF 5
ENDMDL
MODEL 2
REMARK VINA RESULT:      -6.4      1.408      1.678
REMARK  Name = 
REMARK  6 active torsions:
REMARK  status: ('A' for Active; 'I' for Inactive)
REMARK    1  A    between atoms: C_1  and  C_2
REMARK    2  A    between atoms: C_2  and  C_3
REMARK    3  A    between atoms: C_3  and  C_4
REMARK    4  A    between atoms: C_4  and  C_5
REMARK    5  A    between atoms: C_5  and  C_6
REMARK    6  A    between atoms: C_6  and  C_7
REMARK                            x       y       z     vdW  Elec       q    Type
REMARK                         _______ _______ _______ _____ _____    ______ ____
ROOT
ATOM      1  C   UNL     1       4.017   5.588  18.221  0.00  0.00    +0.000 A 
ATOM      2  C   UNL     1       4.590   5.247  19.435  0.00  0.00    +0.000 A 
ATOM      3  N   UNL     1       5.888   4.830  19.286  0.00  0.00    +0.000 NA
ATOM      4  C   UNL     1       6.112   4.938  17.993  0.00  0.00    +0.000 A 
ATOM      5  C   UNL     1       7.328   4.608  17.272  0.00  0.00    +0.000 A 
ATOM      6  N   UNL     1       8.446   4.144  17.914  0.00  0.00    +0.000 N 
ATOM      7  N   UNL     1       7.368   4.732  15.964  0.00  0.00    +0.000 NA
ATOM      8  C   UNL     1       6.245   5.210  15.312  0.00  0.00    +0.000 A 
ATOM      9  C   UNL     1       5.094   5.538  15.925  0.00  0.00    +0.000 A 
ATOM     10  N   UNL     1       5.021   5.391  17.298  0.00  0.00    +0.000 N 
ATOM     11  H   UNL     1       8.261   3.734  18.823  0.00  0.00    +0.000 HD
ATOM     12  H   UNL     1       9.066   3.616  17.314  0.00  0.00    +0.000 HD
ENDROOT
BRANCH   1  13
ATOM     13  C   UNL     1       2.630   6.018  17.892  0.00  0.00    +0.000 C 
BRANCH  13  14
ATOM     14  C   UNL     1       1.616   5.030  18.472  0.00  0.00    +0.000 C 
BRANCH  14  15
ATOM     15  C   UNL     1       1.862   3.600  17.996  0.00  0.00    +0.000 C 
BRANCH  15  16
ATOM     16  C   UNL     1       1.165   2.601  18.922  0.00  0.00    +0.000 C 
BRANCH  16  18
ATOM     17  C   UNL     1       2.075   2.705  21.262  0.00  0.00    +0.000 C 
ATOM     18  C   UNL     1       0.971   3.169  20.325  0.00  0.00    +0.000 C 
ENDBRANCH  16  18
ENDBRANCH  15  16
ENDBRANCH  14  15
ENDBRANCH  13  14
ENDBRANCH   1  13
TORSDOF 5
ENDMDL
MODEL 3
REMARK VINA RESULT:      -6.4      1.506      2.077
REMARK  Name = 
REMARK  6 active torsions:
REMARK  status: ('A' for Active; 'I' for Inactive)
REMARK    1  A    between atoms: C_1  and  C_2
REMARK    2  A    between atoms: C_2  and  C_3
REMARK    3  A    between atoms: C_3  and  C_4
REMARK    4  A    between atoms: C_4  and  C_5
REMARK    5  A    between atoms: C_5  and  C_6
REMARK    6  A    between atoms: C_6  and  C_7
REMARK                            x       y       z     vdW  Elec       q    Type
REMARK                         _______ _______ _______ _____ _____    ______ ____
ROOT
ATOM      1  C   UNL     1       4.024   5.568  18.424  0.00  0.00    +0.000 A 
ATOM      2  C   UNL     1       4.651   5.178  19.596  0.00  0.00    +0.000 A 
ATOM      3  N   UNL     1       5.940   4.767  19.372  0.00  0.00    +0.000 NA
ATOM      4  C   UNL     1       6.106   4.927  18.076  0.00  0.00    +0.000 A 
ATOM      5  C   UNL     1       7.287   4.627  17.288  0.00  0.00    +0.000 A 
ATOM      6  N   UNL     1       8.432   4.138  17.859  0.00  0.00    +0.000 N 
ATOM      7  N   UNL     1       7.268   4.803  15.985  0.00  0.00    +0.000 NA
ATOM      8  C   UNL     1       6.118   5.307  15.404  0.00  0.00    +0.000 A 
ATOM      9  C   UNL     1       4.996   5.610  16.082  0.00  0.00    +0.000 A 
ATOM     10  N   UNL     1       4.985   5.408  17.449  0.00  0.00    +0.000 N 
ATOM     11  H   UNL     1       8.288   3.692  18.759  0.00  0.00    +0.000 HD
ATOM     12  H   UNL     1       9.024   3.635  17.212  0.00  0.00    +0.000 HD
ENDROOT
BRANCH   1  13
ATOM     13  C   UNL     1       2.624   6.009  18.175  0.00  0.00    +0.000 C 
BRANCH  13  14
ATOM     14  C   UNL     1       1.755   4.818  17.769  0.00  0.00    +0.000 C 
BRANCH  14  15
ATOM     15  C   UNL     1       1.392   3.933  18.961  0.00  0.00    +0.000 C 
BRANCH  15  16
ATOM     16  C   UNL     1       1.342   2.463  18.539  0.00  0.00    +0.000 C 
BRANCH  16  18
ATOM     17  C   UNL     1       3.739   1.741  18.757  0.00  0.00    +0.000 C 
ATOM     18  C   UNL     1       2.605   2.044  17.792  0.00  0.00    +0.000 C 
ENDBRANCH  16  18
ENDBRANCH  15  16
ENDBRANCH  14  15
ENDBRANCH  13  14
ENDBRANCH   1  13
TORSDOF 5
ENDMDL
MODEL 4
REMARK VINA RESULT:      -6.4      1.418      2.458
REMARK  Name = 
REMARK  6 active torsions:
REMARK  status: ('A' for Active; 'I' for Inactive)
REMARK    1  A    between atoms: C_1  and  C_2
REMARK    2  A    between atoms: C_2  and  C_3
REMARK    3  A    between atoms: C_3  and  C_4
REMARK    4  A    between atoms: C_4  and  C_5
REMARK    5  A    between atoms: C_5  and  C_6
REMARK    6  A    between atoms: C_6  and  C_7
REMARK                            x       y       z     vdW  Elec       q    Type
REMARK                         _______ _______ _______ _____ _____    ______ ____
ROOT
ATOM      1  C   UNL     1       3.983   5.291  19.231  0.00  0.00    +0.000 A 
ATOM      2  C   UNL     1       4.813   4.333  19.790  0.00  0.00    +0.000 A 
ATOM      3  N   UNL     1       5.930   4.117  19.024  0.00  0.00    +0.000 NA
ATOM      4  C   UNL     1       5.793   4.953  18.016  0.00  0.00    +0.000 A 
ATOM      5  C   UNL     1       6.684   5.134  16.885  0.00  0.00    +0.000 A 
ATOM      6  N   UNL     1       7.847   4.421  16.760  0.00  0.00    +0.000 N 
ATOM      7  N   UNL     1       6.372   5.986  15.934  0.00  0.00    +0.000 NA
ATOM      8  C   UNL     1       5.203   6.717  16.062  0.00  0.00    +0.000 A 
ATOM      9  C   UNL     1       4.343   6.599  17.088  0.00  0.00    +0.000 A 
ATOM     10  N   UNL     1       4.639   5.689  18.086  0.00  0.00    +0.000 N 
ATOM     11  H   UNL     1       7.863   3.558  17.293  0.00  0.00    +0.000 HD
ATOM     12  H   UNL     1       8.178   4.351  15.806  0.00  0.00    +0.000 HD
ENDROOT
BRANCH   1  13
ATOM     13  C   UNL     1       2.649   5.788  19.665  0.00  0.00    +0.000 C 
BRANCH  13  14
ATOM     14  C   UNL     1       2.123   4.950  20.832  0.00  0.00    +0.000 C 
BRANCH  14  15
ATOM     15  C   UNL     1       0.916   4.100  20.436  0.00  0.00    +0.000 C 
BRANCH  15  16
ATOM     16  C   UNL     1       1.367   2.707  19.991  0.00  0.00    +0.000 C 
BRANCH  16  18
ATOM     17  C   UNL     1       2.573   2.103  17.871  0.00  0.00    +0.000 C 
ATOM     18  C   UNL     1       1.247   2.529  18.480  0.00  0.00    +0.000 C 
ENDBRANCH  16  18
ENDBRANCH  15  16
ENDBRANCH  14  15
ENDBRANCH  13  14
ENDBRANCH   1  13
TORSDOF 5
ENDMDL
MODEL 5
REMARK VINA RESULT:      -6.3      2.343      5.751
REMARK  Name = 
REMARK  6 active torsions:
REMARK  status: ('A' for Active; 'I' for Inactive)
REMARK    1  A    between atoms: C_1  and  C_2
REMARK    2  A    between atoms: C_2  and  C_3
REMARK    3  A    between atoms: C_3  and  C_4
REMARK    4  A    between atoms: C_4  and  C_5
REMARK    5  A    between atoms: C_5  and  C_6
REMARK    6  A    between atoms: C_6  and  C_7
REMARK                            x       y       z     vdW  Elec       q    Type
REMARK                         _______ _______ _______ _____ _____    ______ ____
ROOT
ATOM      1  C   UNL     1       5.394   4.923  17.157  0.00  0.00    +0.000 A 
ATOM      2  C   UNL     1       6.334   4.923  18.176  0.00  0.00    +0.000 A 
ATOM      3  N   UNL     1       5.963   4.104  19.211  0.00  0.00    +0.000 NA
ATOM      4  C   UNL     1       4.816   3.591  18.818  0.00  0.00    +0.000 A 
ATOM      5  C   UNL     1       3.963   2.665  19.541  0.00  0.00    +0.000 A 
ATOM      6  N   UNL     1       4.304   2.183  20.778  0.00  0.00    +0.000 N 
ATOM      7  N   UNL     1       2.818   2.285  19.019  0.00  0.00    +0.000 NA
ATOM      8  C   UNL     1       2.474   2.761  17.765  0.00  0.00    +0.000 A 
ATOM      9  C   UNL     1       3.225   3.612  17.045  0.00  0.00    +0.000 A 
ATOM     10  N   UNL     1       4.421   4.046  17.587  0.00  0.00    +0.000 N 
ATOM     11  H   UNL     1       4.976   2.758  21.275  0.00  0.00    +0.000 HD
ATOM     12  H   UNL     1       3.511   1.869  21.321  0.00  0.00    +0.000 HD
ENDROOT
BRANCH   1  13
ATOM     13  C   UNL     1       5.338   5.703  15.891  0.00  0.00    +0.000 C 
BRANCH  13  14
ATOM     14  C   UNL     1       6.257   5.078  14.840  0.00  0.00    +0.000 C 
BRANCH  14  15
ATOM     15  C   UNL     1       5.535   4.042  13.981  0.00  0.00    +0.000 C 
BRANCH  15  16
ATOM     16  C   UNL     1       6.378   3.684  12.755  0.00  0.00    +0.000 C 
BRANCH  16  18
ATOM     17  C   UNL     1       4.283   3.293  11.423  0.00  0.00    +0.000 C 
ATOM     18  C   UNL     1       5.639   2.732  11.818  0.00  0.00    +0.000 C 
ENDBRANCH  16  18
ENDBRANCH  15  16
ENDBRANCH  14  15
ENDBRANCH  13  14
ENDBRANCH   1  13
TORSDOF 5
ENDMDL
MODEL 6
REMARK VINA RESULT:      -6.3      2.833      5.772
REMARK  Name = 
REMARK  6 active torsions:
REMARK  status: ('A' for Active; 'I' for Inactive)
REMARK    1  A    between atoms: C_1  and  C_2
REMARK    2  A    between atoms: C_2  and  C_3
REMARK    3  A    between atoms: C_3  and  C_4
REMARK    4  A    between atoms: C_4  and  C_5
REMARK    5  A    between atoms: C_5  and  C_6
REMARK    6  A    between atoms: C_6  and  C_7
REMARK                            x       y       z     vdW  Elec       q    Type
REMARK                         _______ _______ _______ _____ _____    ______ ____
ROOT
ATOM      1  C   UNL     1       6.115   4.401  15.584  0.00  0.00    +0.000 A 
ATOM      2  C   UNL     1       7.487   4.515  15.739  0.00  0.00    +0.000 A 
ATOM      3  N   UNL     1       7.829   4.841  17.027  0.00  0.00    +0.000 NA
ATOM      4  C   UNL     1       6.675   4.904  17.658  0.00  0.00    +0.000 A 
ATOM      5  C   UNL     1       6.442   5.234  19.052  0.00  0.00    +0.000 A 
ATOM      6  N   UNL     1       7.473   5.507  19.912  0.00  0.00    +0.000 N 
ATOM      7  N   UNL     1       5.213   5.299  19.513  0.00  0.00    +0.000 NA
ATOM      8  C   UNL     1       4.168   5.014  18.650  0.00  0.00    +0.000 A 
ATOM      9  C   UNL     1       4.322   4.696  17.353  0.00  0.00    +0.000 A 
ATOM     10  N   UNL     1       5.605   4.648  16.841  0.00  0.00    +0.000 N 
ATOM     11  H   UNL     1       8.330   5.795  19.453  0.00  0.00    +0.000 HD
ATOM     12  H   UNL     1       7.196   6.064  20.710  0.00  0.00    +0.000 HD
ENDROOT
BRANCH   1  13
ATOM     13  C   UNL     1       5.297   4.139  14.369  0.00  0.00    +0.000 C 
BRANCH  13  14
ATOM     14  C   UNL     1       6.192   3.695  13.210  0.00  0.00    +0.000 C 
BRANCH  14  15
ATOM     15  C   UNL     1       5.405   2.983  12.111  0.00  0.00    +0.000 C 
BRANCH  15  16
ATOM     16  C   UNL     1       4.372   3.929  11.495  0.00  0.00    +0.000 C 
BRANCH  16  18
ATOM     17  C   UNL     1       2.842   4.152   9.514  0.00  0.00    +0.000 C 
ATOM     18  C   UNL     1       3.433   3.198  10.539  0.00  0.00    +0.000 C 
ENDBRANCH  16  18
ENDBRANCH  15  16
ENDBRANCH  14  15
ENDBRANCH  13  14
ENDBRANCH   1  13
TORSDOF 5
ENDMDL
MODEL 7
REMARK VINA RESULT:      -6.3      1.150      1.373
REMARK  Name = 
REMARK  6 active torsions:
REMARK  status: ('A' for Active; 'I' for Inactive)
REMARK    1  A    between atoms: C_1  and  C_2
REMARK    2  A    between atoms: C_2  and  C_3
REMARK    3  A    between atoms: C_3  and  C_4
REMARK    4  A    between atoms: C_4  and  C_5
REMARK    5  A    between atoms: C_5  and  C_6
REMARK    6  A    between atoms: C_6  and  C_7
REMARK                            x       y       z     vdW  Elec       q    Type
REMARK                         _______ _______ _______ _____ _____    ______ ____
ROOT
ATOM      1  C   UNL     1       3.433   4.739  17.425  0.00  0.00    +0.000 A 
ATOM      2  C   UNL     1       3.214   5.986  17.989  0.00  0.00    +0.000 A 
ATOM      3  N   UNL     1       4.305   6.806  17.852  0.00  0.00    +0.000 NA
ATOM      4  C   UNL     1       5.174   6.073  17.189  0.00  0.00    +0.000 A 
ATOM      5  C   UNL     1       6.520   6.439  16.786  0.00  0.00    +0.000 A 
ATOM      6  N   UNL     1       7.043   7.677  17.052  0.00  0.00    +0.000 N 
ATOM      7  N   UNL     1       7.279   5.564  16.165  0.00  0.00    +0.000 NA
ATOM      8  C   UNL     1       6.752   4.315  15.883  0.00  0.00    +0.000 A 
ATOM      9  C   UNL     1       5.512   3.921  16.225  0.00  0.00    +0.000 A 
ATOM     10  N   UNL     1       4.706   4.817  16.901  0.00  0.00    +0.000 N 
ATOM     11  H   UNL     1       6.585   8.164  17.816  0.00  0.00    +0.000 HD
ATOM     12  H   UNL     1       8.054   7.694  17.068  0.00  0.00    +0.000 HD
ENDROOT
BRANCH   1  13
ATOM     13  C   UNL     1       2.574   3.524  17.398  0.00  0.00    +0.000 C 
BRANCH  13  14
ATOM     14  C   UNL     1       1.205   3.827  18.009  0.00  0.00    +0.000 C 
BRANCH  14  15
ATOM     15  C   UNL     1       1.014   3.150  19.366  0.00  0.00    +0.000 C 
BRANCH  15  16
ATOM     16  C   UNL     1       1.031   4.190  20.489  0.00  0.00    +0.000 C 
BRANCH  16  18
ATOM     17  C   UNL     1       2.563   2.464  21.484  0.00  0.00    +0.000 C 
ATOM     18  C   UNL     1       2.157   3.929  21.486  0.00  0.00    +0.000 C 
ENDBRANCH  16  18
ENDBRANCH  15  16
ENDBRANCH  14  15
ENDBRANCH  13  14
ENDBRANCH   1  13
TORSDOF 5
ENDMDL
MODEL 8
REMARK VINA RESULT:      -6.3      1.408      1.563
REMARK  Name = 
REMARK  6 active torsions:
REMARK  status: ('A' for Active; 'I' for Inactive)
REMARK    1  A    between atoms: C_1  and  C_2
REMARK    2  A    between atoms: C_2  and  C_3
REMARK    3  A    between atoms: C_3  and  C_4
REMARK    4  A    between atoms: C_4  and  C_5
REMARK    5  A    between atoms: C_5  and  C_6
REMARK    6  A    between atoms: C_6  and  C_7
REMARK                            x       y       z     vdW  Elec       q    Type
REMARK                         _______ _______ _______ _____ _____    ______ ____
ROOT
ATOM      1  C   UNL     1       4.112   4.126  18.158  0.00  0.00    +0.000 A 
ATOM      2  C   UNL     1       4.773   3.687  19.293  0.00  0.00    +0.000 A 
ATOM      3  N   UNL     1       5.950   4.364  19.491  0.00  0.00    +0.000 NA
ATOM      4  C   UNL     1       5.995   5.225  18.496  0.00  0.00    +0.000 A 
ATOM      5  C   UNL     1       7.040   6.188  18.202  0.00  0.00    +0.000 A 
ATOM      6  N   UNL     1       8.146   6.321  19.000  0.00  0.00    +0.000 N 
ATOM      7  N   UNL     1       6.950   6.947  17.133  0.00  0.00    +0.000 NA
ATOM      8  C   UNL     1       5.829   6.824  16.329  0.00  0.00    +0.000 A 
ATOM      9  C   UNL     1       4.827   5.957  16.554  0.00  0.00    +0.000 A 
ATOM     10  N   UNL     1       4.914   5.131  17.659  0.00  0.00    +0.000 N 
ATOM     11  H   UNL     1       8.344   5.506  19.572  0.00  0.00    +0.000 HD
ATOM     12  H   UNL     1       8.942   6.724  18.523  0.00  0.00    +0.000 HD
ENDROOT
BRANCH   1  13
ATOM     13  C   UNL     1       2.858   3.642  17.519  0.00  0.00    +0.000 C 
BRANCH  13  14
ATOM     14  C   UNL     1       2.660   2.151  17.798  0.00  0.00    +0.000 C 
BRANCH  14  15
ATOM     15  C   UNL     1       1.748   1.901  18.998  0.00  0.00    +0.000 C 
BRANCH  15  16
ATOM     16  C   UNL     1       0.823   3.099  19.223  0.00  0.00    +0.000 C 
BRANCH  16  18
ATOM     17  C   UNL     1       1.649   2.754  21.572  0.00  0.00    +0.000 C 
ATOM     18  C   UNL     1       1.057   3.747  20.586  0.00  0.00    +0.000 C 
ENDBRANCH  16  18
ENDBRANCH  15  16
ENDBRANCH  14  15
ENDBRANCH  13  14
ENDBRANCH   1  13
TORSDOF 5
ENDMDL
MODEL 9
REMARK VINA RESULT:      -6.1      1.357      1.617
REMARK  Name = 
REMARK  6 active torsions:
REMARK  status: ('A' for Active; 'I' for Inactive)
REMARK    1  A    between atoms: C_1  and  C_2
REMARK    2  A    between atoms: C_2  and  C_3
REMARK    3  A    between atoms: C_3  and  C_4
REMARK    4  A    between atoms: C_4  and  C_5
REMARK    5  A    between atoms: C_5  and  C_6
REMARK    6  A    between atoms: C_6  and  C_7
REMARK                            x       y       z     vdW  Elec       q    Type
REMARK                         _______ _______ _______ _____ _____    ______ ____
ROOT
ATOM      1  C   UNL     1       4.187   3.923  18.023  0.00  0.00    +0.000 A 
ATOM      2  C   UNL     1       4.826   3.516  19.183  0.00  0.00    +0.000 A 
ATOM      3  N   UNL     1       5.958   4.251  19.426  0.00  0.00    +0.000 NA
ATOM      4  C   UNL     1       5.997   5.115  18.434  0.00  0.00    +0.000 A 
ATOM      5  C   UNL     1       7.003   6.131  18.180  0.00  0.00    +0.000 A 
ATOM      6  N   UNL     1       8.069   6.318  19.020  0.00  0.00    +0.000 N 
ATOM      7  N   UNL     1       6.915   6.886  17.108  0.00  0.00    +0.000 NA
ATOM      8  C   UNL     1       5.834   6.708  16.262  0.00  0.00    +0.000 A 
ATOM      9  C   UNL     1       4.868   5.791  16.448  0.00  0.00    +0.000 A 
ATOM     10  N   UNL     1       4.955   4.968  17.556  0.00  0.00    +0.000 N 
ATOM     11  H   UNL     1       8.286   5.514  19.599  0.00  0.00    +0.000 HD
ATOM     12  H   UNL     1       8.861   6.762  18.574  0.00  0.00    +0.000 HD
ENDROOT
BRANCH   1  13
ATOM     13  C   UNL     1       2.984   3.377  17.337  0.00  0.00    +0.000 C 
BRANCH  13  14
ATOM     14  C   UNL     1       1.710   3.950  17.960  0.00  0.00    +0.000 C 
BRANCH  14  15
ATOM     15  C   UNL     1       1.996   5.148  18.864  0.00  0.00    +0.000 C 
BRANCH  15  16
ATOM     16  C   UNL     1       1.507   4.871  20.288  0.00  0.00    +0.000 C 
BRANCH  16  18
ATOM     17  C   UNL     1       1.767   2.735  21.587  0.00  0.00    +0.000 C 
ATOM     18  C   UNL     1       1.031   3.430  20.453  0.00  0.00    +0.000 C 
ENDBRANCH  16  18
ENDBRANCH  15  16
ENDBRANCH  14  15
ENDBRANCH  13  14
ENDBRANCH   1  13
TORSDOF 5
ENDMDL
