MODEL 1
REMARK VINA RESULT:      -7.5      0.000      0.000
REMARK  Name = 
REMARK  7 active torsions:
REMARK  status: ('A' for Active; 'I' for Inactive)
REMARK    1  A    between atoms: C_2  and  C_3
REMARK    2  A    between atoms: C_3  and  O_4
REMARK    3  A    between atoms: O_4  and  C_5
REMARK    4  A    between atoms: N_11  and  C_12
REMARK    5  A    between atoms: C_14  and  C_15
REMARK    6  A    between atoms: C_15  and  O_16
REMARK    7  A    between atoms: C_17  and  O_18
REMARK                            x       y       z     vdW  Elec       q    Type
REMARK                         _______ _______ _______ _____ _____    ______ ____
ROOT
ATOM      1  C   UNL     1       1.697   7.898  20.152  0.00  0.00    +0.000 C 
ATOM      2  O   UNL     1       2.103   8.557  19.202  0.00  0.00    +0.000 OA
ATOM      3  N   UNL     1       2.118   6.596  20.428  0.00  0.00    +0.000 N 
ATOM      4  C   UNL     1       2.908   5.797  19.601  0.00  0.00    +0.000 A 
ATOM      5  C   UNL     1       2.912   6.147  18.177  0.00  0.00    +0.000 A 
ATOM      6  C   UNL     1       3.864   5.593  17.449  0.00  0.00    +0.000 A 
ATOM      7  N   UNL     1       4.693   4.617  17.961  0.00  0.00    +0.000 N 
ATOM      8  C   UNL     1       4.483   4.143  19.269  0.00  0.00    +0.000 A 
ATOM      9  O   UNL     1       5.103   3.162  19.682  0.00  0.00    +0.000 OA
ATOM     10  N   UNL     1       3.595   4.816  20.100  0.00  0.00    +0.000 NA
ATOM     11  H   UNL     1       1.972   6.266  21.376  0.00  0.00    +0.000 HD
ENDROOT
BRANCH   7  12
ATOM     12  C   UNL     1       5.679   3.990  17.053  0.00  0.00    +0.000 C 
ATOM     13  O   UNL     1       5.065   3.669  15.778  0.00  0.00    +0.000 OA
ATOM     14  C   UNL     1       5.742   4.462  14.778  0.00  0.00    +0.000 C 
ATOM     15  C   UNL     1       7.166   4.663  15.275  0.00  0.00    +0.000 C 
ATOM     16  C   UNL     1       6.999   4.738  16.784  0.00  0.00    +0.000 C 
ATOM     17  F   UNL     1       7.014   6.016  17.216  0.00  0.00    +0.000 F 
ATOM     18  F   UNL     1       8.038   4.111  17.395  0.00  0.00    +0.000 F 
BRANCH  15  19
ATOM     19  O   UNL     1       7.766   5.818  14.693  0.00  0.00    +0.000 OA
ATOM     20  H   UNL     1       8.126   6.358  15.427  0.00  0.00    +0.000 HD
ENDBRANCH  15  19
BRANCH  14  21
ATOM     21  C   UNL     1       5.717   3.785  13.407  0.00  0.00    +0.000 C 
BRANCH  21  22
ATOM     22  O   UNL     1       6.897   4.096  12.672  0.00  0.00    +0.000 OA
ATOM     23  H   UNL     1       7.351   3.249  12.502  0.00  0.00    +0.000 HD
ENDBRANCH  21  22
ENDBRANCH  14  21
ENDBRANCH   7  12
BRANCH   1  24
ATOM     24  O   UNL     1       0.821   8.393  21.072  0.00  0.00    +0.000 OA
BRANCH  24  25
ATOM     25  C   UNL     1       0.483   9.807  20.865  0.00  0.00    +0.000 C 
BRANCH  25  27
ATOM     26  C   UNL     1      -1.038  10.720  23.061  0.00  0.00    +0.000 C 
ATOM     27  C   UNL     1      -0.336  10.298  22.047  0.00  0.00    +0.000 C 
ENDBRANCH  25  27
ENDBRANCH  24  25
ENDBRANCH   1  24
TORSDOF 7
ENDMDL
MODEL 2
REMARK VINA RESULT:      -7.2      3.004      8.174
REMARK  Name = 
REMARK  7 active torsions:
REMARK  status: ('A' for Active; 'I' for Inactive)
REMARK    1  A    between atoms: C_2  and  C_3
REMARK    2  A    between atoms: C_3  and  O_4
REMARK    3  A    between atoms: O_4  and  C_5
REMARK    4  A    between atoms: N_11  and  C_12
REMARK    5  A    between atoms: C_14  and  C_15
REMARK    6  A    between atoms: C_15  and  O_16
REMARK    7  A    between atoms: C_17  and  O_18
REMARK                            x       y       z     vdW  Elec       q    Type
REMARK                         _______ _______ _______ _____ _____    ______ ____
ROOT
ATOM      1  C   UNL     1       6.266   3.936  12.974  0.00  0.00    +0.000 C 
ATOM      2  O   UNL     1       5.136   3.478  13.083  0.00  0.00    +0.000 OA
ATOM      3  N   UNL     1       7.033   4.373  14.056  0.00  0.00    +0.000 N 
ATOM      4  C   UNL     1       6.589   4.517  15.371  0.00  0.00    +0.000 A 
ATOM      5  C   UNL     1       5.141   4.672  15.550  0.00  0.00    +0.000 A 
ATOM      6  C   UNL     1       4.693   4.518  16.783  0.00  0.00    +0.000 A 
ATOM      7  N   UNL     1       5.550   4.388  17.855  0.00  0.00    +0.000 N 
ATOM      8  C   UNL     1       6.938   4.493  17.652  0.00  0.00    +0.000 A 
ATOM      9  O   UNL     1       7.705   4.546  18.615  0.00  0.00    +0.000 OA
ATOM     10  N   UNL     1       7.435   4.498  16.354  0.00  0.00    +0.000 NA
ATOM     11  H   UNL     1       8.034   4.436  13.904  0.00  0.00    +0.000 HD
ENDROOT
BRANCH   7  12
ATOM     12  C   UNL     1       4.965   4.302  19.211  0.00  0.00    +0.000 C 
ATOM     13  O   UNL     1       4.080   5.426  19.456  0.00  0.00    +0.000 OA
ATOM     14  C   UNL     1       2.755   4.879  19.645  0.00  0.00    +0.000 C 
ATOM     15  C   UNL     1       2.939   3.494  20.246  0.00  0.00    +0.000 C 
ATOM     16  C   UNL     1       4.229   3.006  19.605  0.00  0.00    +0.000 C 
ATOM     17  F   UNL     1       3.980   2.171  18.576  0.00  0.00    +0.000 F 
ATOM     18  F   UNL     1       4.954   2.299  20.510  0.00  0.00    +0.000 F 
BRANCH  15  19
ATOM     19  O   UNL     1       1.809   2.660  19.998  0.00  0.00    +0.000 OA
ATOM     20  H   UNL     1       1.010   3.192  20.195  0.00  0.00    +0.000 HD
ENDBRANCH  15  19
BRANCH  14  21
ATOM     21  C   UNL     1       1.898   5.772  20.544  0.00  0.00    +0.000 C 
BRANCH  21  22
ATOM     22  O   UNL     1       2.292   7.135  20.419  0.00  0.00    +0.000 OA
ATOM     23  H   UNL     1       2.061   7.410  19.512  0.00  0.00    +0.000 HD
ENDBRANCH  21  22
ENDBRANCH  14  21
ENDBRANCH   7  12
BRANCH   1  24
ATOM     24  O   UNL     1       6.915   4.022  11.778  0.00  0.00    +0.000 OA
BRANCH  24  25
ATOM     25  C   UNL     1       7.769   2.864  11.485  0.00  0.00    +0.000 C 
BRANCH  25  27
ATOM     26  C   UNL     1       6.132   0.620  10.979  0.00  0.00    +0.000 C 
ATOM     27  C   UNL     1       6.887   1.656  11.212  0.00  0.00    +0.000 C 
ENDBRANCH  25  27
ENDBRANCH  24  25
ENDBRANCH   1  24
TORSDOF 7
ENDMDL
MODEL 3
REMARK VINA RESULT:      -7.0      3.520      5.546
REMARK  Name = 
REMARK  7 active torsions:
REMARK  status: ('A' for Active; 'I' for Inactive)
REMARK    1  A    between atoms: C_2  and  C_3
REMARK    2  A    between atoms: C_3  and  O_4
REMARK    3  A    between atoms: O_4  and  C_5
REMARK    4  A    between atoms: N_11  and  C_12
REMARK    5  A    between atoms: C_14  and  C_15
REMARK    6  A    between atoms: C_15  and  O_16
REMARK    7  A    between atoms: C_17  and  O_18
REMARK                            x       y       z     vdW  Elec       q    Type
REMARK                         _______ _______ _______ _____ _____    ______ ____
ROOT
ATOM      1  C   UNL     1      -0.038  10.705  18.776  0.00  0.00    +0.000 C 
ATOM      2  O   UNL     1      -0.694   9.970  19.504  0.00  0.00    +0.000 OA
ATOM      3  N   UNL     1       1.149  10.318  18.151  0.00  0.00    +0.000 N 
ATOM      4  C   UNL     1       1.849   9.134  18.382  0.00  0.00    +0.000 A 
ATOM      5  C   UNL     1       1.597   8.474  19.668  0.00  0.00    +0.000 A 
ATOM      6  C   UNL     1       2.022   7.228  19.771  0.00  0.00    +0.000 A 
ATOM      7  N   UNL     1       2.801   6.645  18.793  0.00  0.00    +0.000 N 
ATOM      8  C   UNL     1       3.218   7.409  17.689  0.00  0.00    +0.000 A 
ATOM      9  O   UNL     1       4.045   6.957  16.896  0.00  0.00    +0.000 OA
ATOM     10  N   UNL     1       2.659   8.665  17.482  0.00  0.00    +0.000 NA
ATOM     11  H   UNL     1       1.437  10.868  17.349  0.00  0.00    +0.000 HD
ENDROOT
BRANCH   7  12
ATOM     12  C   UNL     1       3.302   5.272  19.026  0.00  0.00    +0.000 C 
ATOM     13  O   UNL     1       3.149   4.904  20.421  0.00  0.00    +0.000 OA
ATOM     14  C   UNL     1       2.230   3.789  20.460  0.00  0.00    +0.000 C 
ATOM     15  C   UNL     1       2.413   3.032  19.153  0.00  0.00    +0.000 C 
ATOM     16  C   UNL     1       2.736   4.133  18.156  0.00  0.00    +0.000 C 
ATOM     17  F   UNL     1       1.650   4.472  17.431  0.00  0.00    +0.000 F 
ATOM     18  F   UNL     1       3.670   3.695  17.272  0.00  0.00    +0.000 F 
BRANCH  15  19
ATOM     19  O   UNL     1       1.256   2.265  18.826  0.00  0.00    +0.000 OA
ATOM     20  H   UNL     1       1.434   1.826  17.968  0.00  0.00    +0.000 HD
ENDBRANCH  15  19
BRANCH  14  21
ATOM     21  C   UNL     1       2.484   2.890  21.670  0.00  0.00    +0.000 C 
BRANCH  21  22
ATOM     22  O   UNL     1       1.260   2.343  22.153  0.00  0.00    +0.000 OA
ATOM     23  H   UNL     1       0.698   3.099  22.408  0.00  0.00    +0.000 HD
ENDBRANCH  21  22
ENDBRANCH  14  21
ENDBRANCH   7  12
BRANCH   1  24
ATOM     24  O   UNL     1      -0.430  11.973  18.462  0.00  0.00    +0.000 OA
BRANCH  24  25
ATOM     25  C   UNL     1      -1.880  12.116  18.288  0.00  0.00    +0.000 C 
BRANCH  25  27
ATOM     26  C   UNL     1      -2.674  10.686  15.986  0.00  0.00    +0.000 C 
ATOM     27  C   UNL     1      -2.307  11.346  17.049  0.00  0.00    +0.000 C 
ENDBRANCH  25  27
ENDBRANCH  24  25
ENDBRANCH   1  24
TORSDOF 7
ENDMDL
MODEL 4
REMARK VINA RESULT:      -7.0      3.316      5.034
REMARK  Name = 
REMARK  7 active torsions:
REMARK  status: ('A' for Active; 'I' for Inactive)
REMARK    1  A    between atoms: C_2  and  C_3
REMARK    2  A    between atoms: C_3  and  O_4
REMARK    3  A    between atoms: O_4  and  C_5
REMARK    4  A    between atoms: N_11  and  C_12
REMARK    5  A    between atoms: C_14  and  C_15
REMARK    6  A    between atoms: C_15  and  O_16
REMARK    7  A    between atoms: C_17  and  O_18
REMARK                            x       y       z     vdW  Elec       q    Type
REMARK                         _______ _______ _______ _____ _____    ______ ____
ROOT
ATOM      1  C   UNL     1      -0.432  10.263  22.554  0.00  0.00    +0.000 C 
ATOM      2  O   UNL     1      -0.580   9.112  22.945  0.00  0.00    +0.000 OA
ATOM      3  N   UNL     1       0.223  10.601  21.368  0.00  0.00    +0.000 N 
ATOM      4  C   UNL     1       0.943   9.728  20.552  0.00  0.00    +0.000 A 
ATOM      5  C   UNL     1       1.439   8.505  21.193  0.00  0.00    +0.000 A 
ATOM      6  C   UNL     1       1.859   7.556  20.377  0.00  0.00    +0.000 A 
ATOM      7  N   UNL     1       1.982   7.768  19.020  0.00  0.00    +0.000 N 
ATOM      8  C   UNL     1       1.723   9.044  18.490  0.00  0.00    +0.000 A 
ATOM      9  O   UNL     1       1.986   9.294  17.313  0.00  0.00    +0.000 OA
ATOM     10  N   UNL     1       1.134  10.009  19.299  0.00  0.00    +0.000 NA
ATOM     11  H   UNL     1       0.023  11.520  20.987  0.00  0.00    +0.000 HD
ENDROOT
BRANCH   7  12
ATOM     12  C   UNL     1       2.538   6.676  18.190  0.00  0.00    +0.000 C 
ATOM     13  O   UNL     1       3.988   6.727  18.187  0.00  0.00    +0.000 OA
ATOM     14  C   UNL     1       4.449   5.504  18.804  0.00  0.00    +0.000 C 
ATOM     15  C   UNL     1       3.401   4.444  18.500  0.00  0.00    +0.000 C 
ATOM     16  C   UNL     1       2.101   5.231  18.499  0.00  0.00    +0.000 C 
ATOM     17  F   UNL     1       1.439   5.086  19.665  0.00  0.00    +0.000 F 
ATOM     18  F   UNL     1       1.277   4.761  17.526  0.00  0.00    +0.000 F 
BRANCH  15  19
ATOM     19  O   UNL     1       3.442   3.380  19.448  0.00  0.00    +0.000 OA
ATOM     20  H   UNL     1       4.378   3.267  19.715  0.00  0.00    +0.000 HD
ENDBRANCH  15  19
BRANCH  14  21
ATOM     21  C   UNL     1       5.828   5.095  18.286  0.00  0.00    +0.000 C 
BRANCH  21  22
ATOM     22  O   UNL     1       6.208   3.828  18.817  0.00  0.00    +0.000 OA
ATOM     23  H   UNL     1       5.440   3.495  19.318  0.00  0.00    +0.000 HD
ENDBRANCH  21  22
ENDBRANCH  14  21
ENDBRANCH   7  12
BRANCH   1  24
ATOM     24  O   UNL     1      -0.940  11.339  23.220  0.00  0.00    +0.000 OA
BRANCH  24  25
ATOM     25  C   UNL     1      -2.068  11.980  22.533  0.00  0.00    +0.000 C 
BRANCH  25  27
ATOM     26  C   UNL     1      -4.113  12.497  24.410  0.00  0.00    +0.000 C 
ATOM     27  C   UNL     1      -3.169  12.258  23.543  0.00  0.00    +0.000 C 
ENDBRANCH  25  27
ENDBRANCH  24  25
ENDBRANCH   1  24
TORSDOF 7
ENDMDL
MODEL 5
REMARK VINA RESULT:      -7.0      3.387      4.702
REMARK  Name = 
REMARK  7 active torsions:
REMARK  status: ('A' for Active; 'I' for Inactive)
REMARK    1  A    between atoms: C_2  and  C_3
REMARK    2  A    between atoms: C_3  and  O_4
REMARK    3  A    between atoms: O_4  and  C_5
REMARK    4  A    between atoms: N_11  and  C_12
REMARK    5  A    between atoms: C_14  and  C_15
REMARK    6  A    between atoms: C_15  and  O_16
REMARK    7  A    between atoms: C_17  and  O_18
REMARK                            x       y       z     vdW  Elec       q    Type
REMARK                         _______ _______ _______ _____ _____    ______ ____
ROOT
ATOM      1  C   UNL     1      -0.259   9.603  21.018  0.00  0.00    +0.000 C 
ATOM      2  O   UNL     1      -0.686   8.582  21.543  0.00  0.00    +0.000 OA
ATOM      3  N   UNL     1       0.770   9.618  20.075  0.00  0.00    +0.000 N 
ATOM      4  C   UNL     1       1.571   8.532  19.719  0.00  0.00    +0.000 A 
ATOM      5  C   UNL     1       1.663   7.446  20.701  0.00  0.00    +0.000 A 
ATOM      6  C   UNL     1       2.170   6.310  20.261  0.00  0.00    +0.000 A 
ATOM      7  N   UNL     1       2.733   6.206  19.006  0.00  0.00    +0.000 N 
ATOM      8  C   UNL     1       2.838   7.350  18.194  0.00  0.00    +0.000 A 
ATOM      9  O   UNL     1       3.484   7.311  17.145  0.00  0.00    +0.000 OA
ATOM     10  N   UNL     1       2.176   8.512  18.571  0.00  0.00    +0.000 NA
ATOM     11  H   UNL     1       0.832  10.441  19.487  0.00  0.00    +0.000 HD
ENDROOT
BRANCH   7  12
ATOM     12  C   UNL     1       3.352   4.918  18.622  0.00  0.00    +0.000 C 
ATOM     13  O   UNL     1       3.947   4.275  19.779  0.00  0.00    +0.000 OA
ATOM     14  C   UNL     1       3.233   3.034  19.979  0.00  0.00    +0.000 C 
ATOM     15  C   UNL     1       2.766   2.577  18.606  0.00  0.00    +0.000 C 
ATOM     16  C   UNL     1       2.482   3.883  17.882  0.00  0.00    +0.000 C 
ATOM     17  F   UNL     1       1.163   4.165  17.879  0.00  0.00    +0.000 F 
ATOM     18  F   UNL     1       2.860   3.782  16.581  0.00  0.00    +0.000 F 
BRANCH  15  19
ATOM     19  O   UNL     1       1.644   1.701  18.698  0.00  0.00    +0.000 OA
ATOM     20  H   UNL     1       1.290   1.588  17.792  0.00  0.00    +0.000 HD
ENDBRANCH  15  19
BRANCH  14  21
ATOM     21  C   UNL     1       4.110   1.979  20.654  0.00  0.00    +0.000 C 
BRANCH  21  22
ATOM     22  O   UNL     1       5.218   1.642  19.823  0.00  0.00    +0.000 OA
ATOM     23  H   UNL     1       5.305   2.361  19.170  0.00  0.00    +0.000 HD
ENDBRANCH  21  22
ENDBRANCH  14  21
ENDBRANCH   7  12
BRANCH   1  24
ATOM     24  O   UNL     1      -0.785  10.836  21.268  0.00  0.00    +0.000 OA
BRANCH  24  25
ATOM     25  C   UNL     1      -0.741  11.221  22.684  0.00  0.00    +0.000 C 
BRANCH  25  27
ATOM     26  C   UNL     1      -3.238  12.316  23.417  0.00  0.00    +0.000 C 
ATOM     27  C   UNL     1      -2.085  11.810  23.079  0.00  0.00    +0.000 C 
ENDBRANCH  25  27
ENDBRANCH  24  25
ENDBRANCH   1  24
TORSDOF 7
ENDMDL
MODEL 6
REMARK VINA RESULT:      -7.0      1.118      1.172
REMARK  Name = 
REMARK  7 active torsions:
REMARK  status: ('A' for Active; 'I' for Inactive)
REMARK    1  A    between atoms: C_2  and  C_3
REMARK    2  A    between atoms: C_3  and  O_4
REMARK    3  A    between atoms: O_4  and  C_5
REMARK    4  A    between atoms: N_11  and  C_12
REMARK    5  A    between atoms: C_14  and  C_15
REMARK    6  A    between atoms: C_15  and  O_16
REMARK    7  A    between atoms: C_17  and  O_18
REMARK                            x       y       z     vdW  Elec       q    Type
REMARK                         _______ _______ _______ _____ _____    ______ ____
ROOT
ATOM      1  C   UNL     1       1.091   8.005  21.014  0.00  0.00    +0.000 C 
ATOM      2  O   UNL     1       1.739   8.792  20.336  0.00  0.00    +0.000 OA
ATOM      3  N   UNL     1       1.319   6.627  21.034  0.00  0.00    +0.000 N 
ATOM      4  C   UNL     1       2.176   5.927  20.184  0.00  0.00    +0.000 A 
ATOM      5  C   UNL     1       2.497   6.578  18.909  0.00  0.00    +0.000 A 
ATOM      6  C   UNL     1       3.516   6.069  18.241  0.00  0.00    +0.000 A 
ATOM      7  N   UNL     1       4.128   4.897  18.635  0.00  0.00    +0.000 N 
ATOM      8  C   UNL     1       3.617   4.182  19.733  0.00  0.00    +0.000 A 
ATOM      9  O   UNL     1       4.045   3.056  19.995  0.00  0.00    +0.000 OA
ATOM     10  N   UNL     1       2.652   4.773  20.539  0.00  0.00    +0.000 NA
ATOM     11  H   UNL     1       0.957   6.121  21.834  0.00  0.00    +0.000 HD
ENDROOT
BRANCH   7  12
ATOM     12  C   UNL     1       5.209   4.353  17.784  0.00  0.00    +0.000 C 
ATOM     13  O   UNL     1       4.771   4.260  16.403  0.00  0.00    +0.000 OA
ATOM     14  C   UNL     1       5.615   5.150  15.638  0.00  0.00    +0.000 C 
ATOM     15  C   UNL     1       6.959   5.190  16.349  0.00  0.00    +0.000 C 
ATOM     16  C   UNL     1       6.582   5.053  17.815  0.00  0.00    +0.000 C 
ATOM     17  F   UNL     1       6.584   6.250  18.436  0.00  0.00    +0.000 F 
ATOM     18  F   UNL     1       7.498   4.282  18.456  0.00  0.00    +0.000 F 
BRANCH  15  19
ATOM     19  O   UNL     1       7.681   6.381  16.038  0.00  0.00    +0.000 OA
ATOM     20  H   UNL     1       8.375   6.484  16.721  0.00  0.00    +0.000 HD
ENDBRANCH  15  19
BRANCH  14  21
ATOM     21  C   UNL     1       5.759   4.685  14.189  0.00  0.00    +0.000 C 
BRANCH  21  22
ATOM     22  O   UNL     1       6.108   3.304  14.138  0.00  0.00    +0.000 OA
ATOM     23  H   UNL     1       6.168   3.066  13.193  0.00  0.00    +0.000 HD
ENDBRANCH  21  22
ENDBRANCH  14  21
ENDBRANCH   7  12
BRANCH   1  24
ATOM     24  O   UNL     1       0.101   8.404  21.864  0.00  0.00    +0.000 OA
BRANCH  24  25
ATOM     25  C   UNL     1       0.522   9.441  22.814  0.00  0.00    +0.000 C 
BRANCH  25  27
ATOM     26  C   UNL     1      -1.501  11.403  22.987  0.00  0.00    +0.000 C 
ATOM     27  C   UNL     1      -0.567  10.497  22.907  0.00  0.00    +0.000 C 
ENDBRANCH  25  27
ENDBRANCH  24  25
ENDBRANCH   1  24
TORSDOF 7
ENDMDL
MODEL 7
REMARK VINA RESULT:      -6.9      0.747      1.046
REMARK  Name = 
REMARK  7 active torsions:
REMARK  status: ('A' for Active; 'I' for Inactive)
REMARK    1  A    between atoms: C_2  and  C_3
REMARK    2  A    between atoms: C_3  and  O_4
REMARK    3  A    between atoms: O_4  and  C_5
REMARK    4  A    between atoms: N_11  and  C_12
REMARK    5  A    between atoms: C_14  and  C_15
REMARK    6  A    between atoms: C_15  and  O_16
REMARK    7  A    between atoms: C_17  and  O_18
REMARK                            x       y       z     vdW  Elec       q    Type
REMARK                         _______ _______ _______ _____ _____    ______ ____
ROOT
ATOM      1  C   UNL     1       1.538   7.952  20.536  0.00  0.00    +0.000 C 
ATOM      2  O   UNL     1       2.127   8.667  19.736  0.00  0.00    +0.000 OA
ATOM      3  N   UNL     1       1.788   6.587  20.687  0.00  0.00    +0.000 N 
ATOM      4  C   UNL     1       2.597   5.806  19.860  0.00  0.00    +0.000 A 
ATOM      5  C   UNL     1       2.822   6.319  18.504  0.00  0.00    +0.000 A 
ATOM      6  C   UNL     1       3.801   5.749  17.826  0.00  0.00    +0.000 A 
ATOM      7  N   UNL     1       4.456   4.632  18.300  0.00  0.00    +0.000 N 
ATOM      8  C   UNL     1       4.031   4.034  19.500  0.00  0.00    +0.000 A 
ATOM      9  O   UNL     1       4.493   2.947  19.850  0.00  0.00    +0.000 OA
ATOM     10  N   UNL     1       3.114   4.701  20.303  0.00  0.00    +0.000 NA
ATOM     11  H   UNL     1       1.489   6.166  21.559  0.00  0.00    +0.000 HD
ENDROOT
BRANCH   7  12
ATOM     12  C   UNL     1       5.485   4.008  17.439  0.00  0.00    +0.000 C 
ATOM     13  O   UNL     1       4.945   3.727  16.122  0.00  0.00    +0.000 OA
ATOM     14  C   UNL     1       5.695   4.530  15.184  0.00  0.00    +0.000 C 
ATOM     15  C   UNL     1       7.089   4.694  15.771  0.00  0.00    +0.000 C 
ATOM     16  C   UNL     1       6.832   4.739  17.268  0.00  0.00    +0.000 C 
ATOM     17  F   UNL     1       6.841   6.006  17.730  0.00  0.00    +0.000 F 
ATOM     18  F   UNL     1       7.821   4.080  17.926  0.00  0.00    +0.000 F 
BRANCH  15  19
ATOM     19  O   UNL     1       7.743   5.851  15.253  0.00  0.00    +0.000 OA
ATOM     20  H   UNL     1       7.125   6.604  15.360  0.00  0.00    +0.000 HD
ENDBRANCH  15  19
BRANCH  14  21
ATOM     21  C   UNL     1       5.743   3.885  13.798  0.00  0.00    +0.000 C 
BRANCH  21  22
ATOM     22  O   UNL     1       6.890   4.326  13.078  0.00  0.00    +0.000 OA
ATOM     23  H   UNL     1       7.613   3.711  13.302  0.00  0.00    +0.000 HD
ENDBRANCH  21  22
ENDBRANCH  14  21
ENDBRANCH   7  12
BRANCH   1  24
ATOM     24  O   UNL     1       0.602   8.432  21.405  0.00  0.00    +0.000 OA
BRANCH  24  25
ATOM     25  C   UNL     1       0.358   9.874  21.273  0.00  0.00    +0.000 C 
BRANCH  25  27
ATOM     26  C   UNL     1      -1.169  10.338  18.944  0.00  0.00    +0.000 C 
ATOM     27  C   UNL     1      -0.464  10.123  20.019  0.00  0.00    +0.000 C 
ENDBRANCH  25  27
ENDBRANCH  24  25
ENDBRANCH   1  24
TORSDOF 7
ENDMDL
MODEL 8
REMARK VINA RESULT:      -6.8      3.696      5.631
REMARK  Name = 
REMARK  7 active torsions:
REMARK  status: ('A' for Active; 'I' for Inactive)
REMARK    1  A    between atoms: C_2  and  C_3
REMARK    2  A    between atoms: C_3  and  O_4
REMARK    3  A    between atoms: O_4  and  C_5
REMARK    4  A    between atoms: N_11  and  C_12
REMARK    5  A    between atoms: C_14  and  C_15
REMARK    6  A    between atoms: C_15  and  O_16
REMARK    7  A    between atoms: C_17  and  O_18
REMARK                            x       y       z     vdW  Elec       q    Type
REMARK                         _______ _______ _______ _____ _____    ______ ____
ROOT
ATOM      1  C   UNL     1       0.254  10.967  18.754  0.00  0.00    +0.000 C 
ATOM      2  O   UNL     1      -0.525  10.323  19.445  0.00  0.00    +0.000 OA
ATOM      3  N   UNL     1       1.415  10.433  18.191  0.00  0.00    +0.000 N 
ATOM      4  C   UNL     1       1.948   9.171  18.456  0.00  0.00    +0.000 A 
ATOM      5  C   UNL     1       1.550   8.555  19.726  0.00  0.00    +0.000 A 
ATOM      6  C   UNL     1       1.811   7.266  19.849  0.00  0.00    +0.000 A 
ATOM      7  N   UNL     1       2.561   6.586  18.912  0.00  0.00    +0.000 N 
ATOM      8  C   UNL     1       3.126   7.287  17.832  0.00  0.00    +0.000 A 
ATOM      9  O   UNL     1       3.931   6.731  17.083  0.00  0.00    +0.000 OA
ATOM     10  N   UNL     1       2.739   8.601  17.599  0.00  0.00    +0.000 NA
ATOM     11  H   UNL     1       1.810  10.939  17.406  0.00  0.00    +0.000 HD
ENDROOT
BRANCH   7  12
ATOM     12  C   UNL     1       2.874   5.163  19.168  0.00  0.00    +0.000 C 
ATOM     13  O   UNL     1       2.528   4.803  20.531  0.00  0.00    +0.000 OA
ATOM     14  C   UNL     1       1.490   3.800  20.446  0.00  0.00    +0.000 C 
ATOM     15  C   UNL     1       1.729   3.038  19.151  0.00  0.00    +0.000 C 
ATOM     16  C   UNL     1       2.282   4.104  18.218  0.00  0.00    +0.000 C 
ATOM     17  F   UNL     1       1.328   4.572  17.387  0.00  0.00    +0.000 F 
ATOM     18  F   UNL     1       3.252   3.570  17.432  0.00  0.00    +0.000 F 
BRANCH  15  19
ATOM     19  O   UNL     1       0.536   2.412  18.684  0.00  0.00    +0.000 OA
ATOM     20  H   UNL     1      -0.190   2.693  19.279  0.00  0.00    +0.000 HD
ENDBRANCH  15  19
BRANCH  14  21
ATOM     21  C   UNL     1       1.505   2.867  21.657  0.00  0.00    +0.000 C 
BRANCH  21  22
ATOM     22  O   UNL     1       2.841   2.497  21.989  0.00  0.00    +0.000 OA
ATOM     23  H   UNL     1       2.783   1.909  22.765  0.00  0.00    +0.000 HD
ENDBRANCH  21  22
ENDBRANCH  14  21
ENDBRANCH   7  12
BRANCH   1  24
ATOM     24  O   UNL     1       0.039  12.272  18.423  0.00  0.00    +0.000 OA
BRANCH  24  25
ATOM     25  C   UNL     1       0.624  13.227  19.373  0.00  0.00    +0.000 C 
BRANCH  25  27
ATOM     26  C   UNL     1       2.803  14.532  18.141  0.00  0.00    +0.000 C 
ATOM     27  C   UNL     1       1.797  13.930  18.709  0.00  0.00    +0.000 C 
ENDBRANCH  25  27
ENDBRANCH  24  25
ENDBRANCH   1  24
TORSDOF 7
ENDMDL
MODEL 9
REMARK VINA RESULT:      -6.8      1.402      1.659
REMARK  Name = 
REMARK  7 active torsions:
REMARK  status: ('A' for Active; 'I' for Inactive)
REMARK    1  A    between atoms: C_2  and  C_3
REMARK    2  A    between atoms: C_3  and  O_4
REMARK    3  A    between atoms: O_4  and  C_5
REMARK    4  A    between atoms: N_11  and  C_12
REMARK    5  A    between atoms: C_14  and  C_15
REMARK    6  A    between atoms: C_15  and  O_16
REMARK    7  A    between atoms: C_17  and  O_18
REMARK                            x       y       z     vdW  Elec       q    Type
REMARK                         _______ _______ _______ _____ _____    ______ ____
ROOT
ATOM      1  C   UNL     1       1.599   9.117  19.276  0.00  0.00    +0.000 C 
ATOM      2  O   UNL     1       2.205   9.608  18.332  0.00  0.00    +0.000 OA
ATOM      3  N   UNL     1       1.811   7.819  19.743  0.00  0.00    +0.000 N 
ATOM      4  C   UNL     1       2.595   6.844  19.126  0.00  0.00    +0.000 A 
ATOM      5  C   UNL     1       2.829   7.018  17.688  0.00  0.00    +0.000 A 
ATOM      6  C   UNL     1       3.790   6.277  17.166  0.00  0.00    +0.000 A 
ATOM      7  N   UNL     1       4.414   5.284  17.891  0.00  0.00    +0.000 N 
ATOM      8  C   UNL     1       3.977   4.997  19.196  0.00  0.00    +0.000 A 
ATOM      9  O   UNL     1       4.409   4.009  19.793  0.00  0.00    +0.000 OA
ATOM     10  N   UNL     1       3.081   5.859  19.817  0.00  0.00    +0.000 NA
ATOM     11  H   UNL     1       1.502   7.623  20.689  0.00  0.00    +0.000 HD
ENDROOT
BRANCH   7  12
ATOM     12  C   UNL     1       5.423   4.447  17.204  0.00  0.00    +0.000 C 
ATOM     13  O   UNL     1       4.905   3.963  15.938  0.00  0.00    +0.000 OA
ATOM     14  C   UNL     1       5.739   4.528  14.903  0.00  0.00    +0.000 C 
ATOM     15  C   UNL     1       7.123   4.708  15.510  0.00  0.00    +0.000 C 
ATOM     16  C   UNL     1       6.823   5.045  16.962  0.00  0.00    +0.000 C 
ATOM     17  F   UNL     1       6.908   6.372  17.185  0.00  0.00    +0.000 F 
ATOM     18  F   UNL     1       7.741   4.457  17.771  0.00  0.00    +0.000 F 
BRANCH  15  19
ATOM     19  O   UNL     1       7.873   5.705  14.820  0.00  0.00    +0.000 OA
ATOM     20  H   UNL     1       8.219   6.325  15.495  0.00  0.00    +0.000 HD
ENDBRANCH  15  19
BRANCH  14  21
ATOM     21  C   UNL     1       5.784   3.637  13.661  0.00  0.00    +0.000 C 
BRANCH  21  22
ATOM     22  O   UNL     1       6.768   4.104  12.742  0.00  0.00    +0.000 OA
ATOM     23  H   UNL     1       6.438   4.951  12.388  0.00  0.00    +0.000 HD
ENDBRANCH  21  22
ENDBRANCH  14  21
ENDBRANCH   7  12
BRANCH   1  24
ATOM     24  O   UNL     1       0.680   9.814  20.004  0.00  0.00    +0.000 OA
BRANCH  24  25
ATOM     25  C   UNL     1       0.128  10.978  19.300  0.00  0.00    +0.000 C 
BRANCH  25  27
ATOM     26  C   UNL     1      -2.002  10.130  17.652  0.00  0.00    +0.000 C 
ATOM     27  C   UNL     1      -1.019  10.521  18.413  0.00  0.00    +0.000 C 
ENDBRANCH  25  27
ENDBRANCH  24  25
ENDBRANCH   1  24
TORSDOF 7
ENDMDL
