MODEL 1
REMARK VINA RESULT:      -6.9      0.000      0.000
REMARK  Name = 
REMARK  5 active torsions:
REMARK  status: ('A' for Active; 'I' for Inactive)
REMARK    1  A    between atoms: C_1  and  O_2
REMARK    2  A    between atoms: O_2  and  C_3
REMARK    3  A    between atoms: N_15  and  C_16
REMARK    4  A    between atoms: C_20  and  O_21
REMARK    5  A    between atoms: O_21  and  C_22
REMARK                            x       y       z     vdW  Elec       q    Type
REMARK                         _______ _______ _______ _____ _____    ______ ____
ROOT
ATOM      1  C   UNL     1       0.558   8.098  21.258  0.00  0.00    +0.000 A 
ATOM      2  C   UNL     1       0.994   6.761  21.333  0.00  0.00    +0.000 A 
ATOM      3  C   UNL     1       1.882   6.237  20.385  0.00  0.00    +0.000 A 
ATOM      4  C   UNL     1       2.268   4.897  20.404  0.00  0.00    +0.000 A 
ATOM      5  C   UNL     1       3.120   4.268  19.460  0.00  0.00    +0.000 A 
ATOM      6  C   UNL     1       3.605   5.117  18.429  0.00  0.00    +0.000 A 
ATOM      7  C   UNL     1       4.454   4.702  17.399  0.00  0.00    +0.000 A 
ATOM      8  C   UNL     1       5.102   3.527  16.968  0.00  0.00    +0.000 A 
ATOM      9  C   UNL     1       5.912   3.544  15.828  0.00  0.00    +0.000 A 
ATOM     10  C   UNL     1       6.086   4.712  15.104  0.00  0.00    +0.000 A 
ATOM     11  C   UNL     1       5.454   5.892  15.499  0.00  0.00    +0.000 A 
ATOM     12  C   UNL     1       4.642   5.875  16.649  0.00  0.00    +0.000 A 
ATOM     13  N   UNL     1       3.912   6.900  17.253  0.00  0.00    +0.000 N 
ATOM     14  C   UNL     1       3.850   8.251  16.736  0.00  0.00    +0.000 C 
ATOM     15  C   UNL     1       3.256   6.448  18.391  0.00  0.00    +0.000 A 
ATOM     16  C   UNL     1       2.394   7.051  19.358  0.00  0.00    +0.000 A 
ATOM     17  C   UNL     1       2.019   8.410  19.358  0.00  0.00    +0.000 A 
ATOM     18  C   UNL     1       1.120   8.945  20.296  0.00  0.00    +0.000 A 
ATOM     19  C   UNL     1       3.272   2.879  19.796  0.00  0.00    +0.000 C 
ATOM     20  O   UNL     1       3.872   1.932  19.312  0.00  0.00    +0.000 OA
ATOM     21  N   UNL     1       2.503   2.725  20.940  0.00  0.00    +0.000 N 
ATOM     22  C   UNL     1       1.833   3.906  21.421  0.00  0.00    +0.000 C 
ATOM     23  H   UNL     1       2.447   1.816  21.375  0.00  0.00    +0.000 HD
ENDROOT
BRANCH   1  25
ATOM     24  C   UNL     1       0.072   9.418  23.165  0.00  0.00    +0.000 C 
ATOM     25  O   UNL     1      -0.402   8.585  22.108  0.00  0.00    +0.000 OA
ENDBRANCH   1  25
BRANCH  18  26
ATOM     26  O   UNL     1       0.931  10.283  20.085  0.00  0.00    +0.000 OA
ATOM     27  C   UNL     1      -0.133  10.747  19.274  0.00  0.00    +0.000 C 
ENDBRANCH  18  26
TORSDOF 2
ENDMDL
MODEL 2
REMARK VINA RESULT:      -6.8      5.866     10.874
REMARK  Name = 
REMARK  5 active torsions:
REMARK  status: ('A' for Active; 'I' for Inactive)
REMARK    1  A    between atoms: C_1  and  O_2
REMARK    2  A    between atoms: O_2  and  C_3
REMARK    3  A    between atoms: N_15  and  C_16
REMARK    4  A    between atoms: C_20  and  O_21
REMARK    5  A    between atoms: O_21  and  C_22
REMARK                            x       y       z     vdW  Elec       q    Type
REMARK                         _______ _______ _______ _____ _____    ______ ____
ROOT
ATOM      1  C   UNL     1       0.186  11.417  18.954  0.00  0.00    +0.000 A 
ATOM      2  C   UNL     1      -1.059  11.367  18.299  0.00  0.00    +0.000 A 
ATOM      3  C   UNL     1      -2.231  11.778  18.944  0.00  0.00    +0.000 A 
ATOM      4  C   UNL     1      -3.481  11.669  18.334  0.00  0.00    +0.000 A 
ATOM      5  C   UNL     1      -4.723  12.013  18.926  0.00  0.00    +0.000 A 
ATOM      6  C   UNL     1      -4.638  12.515  20.252  0.00  0.00    +0.000 A 
ATOM      7  C   UNL     1      -5.739  12.910  21.019  0.00  0.00    +0.000 A 
ATOM      8  C   UNL     1      -7.140  12.995  20.896  0.00  0.00    +0.000 A 
ATOM      9  C   UNL     1      -7.915  13.480  21.956  0.00  0.00    +0.000 A 
ATOM     10  C   UNL     1      -7.317  13.880  23.140  0.00  0.00    +0.000 A 
ATOM     11  C   UNL     1      -5.933  13.804  23.296  0.00  0.00    +0.000 A 
ATOM     12  C   UNL     1      -5.154  13.320  22.228  0.00  0.00    +0.000 A 
ATOM     13  N   UNL     1      -3.772  13.148  22.125  0.00  0.00    +0.000 N 
ATOM     14  C   UNL     1      -2.846  13.443  23.198  0.00  0.00    +0.000 C 
ATOM     15  C   UNL     1      -3.419  12.651  20.876  0.00  0.00    +0.000 A 
ATOM     16  C   UNL     1      -2.185  12.295  20.252  0.00  0.00    +0.000 A 
ATOM     17  C   UNL     1      -0.917  12.426  20.854  0.00  0.00    +0.000 A 
ATOM     18  C   UNL     1       0.265  12.006  20.221  0.00  0.00    +0.000 A 
ATOM     19  C   UNL     1      -5.791  11.744  18.001  0.00  0.00    +0.000 C 
ATOM     20  O   UNL     1      -7.007  11.852  18.028  0.00  0.00    +0.000 OA
ATOM     21  N   UNL     1      -5.144  11.249  16.878  0.00  0.00    +0.000 N 
ATOM     22  C   UNL     1      -3.708  11.159  16.958  0.00  0.00    +0.000 C 
ATOM     23  H   UNL     1      -5.692  10.981  16.075  0.00  0.00    +0.000 HD
ENDROOT
BRANCH   1  25
ATOM     24  C   UNL     1       1.360   9.485  18.241  0.00  0.00    +0.000 C 
ATOM     25  O   UNL     1       1.320  10.906  18.376  0.00  0.00    +0.000 OA
ENDBRANCH   1  25
BRANCH  18  26
ATOM     26  O   UNL     1       1.356  12.251  21.010  0.00  0.00    +0.000 OA
ATOM     27  C   UNL     1       2.157  13.401  20.806  0.00  0.00    +0.000 C 
ENDBRANCH  18  26
TORSDOF 2
ENDMDL
MODEL 3
REMARK VINA RESULT:      -6.8      6.472      8.952
REMARK  Name = 
REMARK  5 active torsions:
REMARK  status: ('A' for Active; 'I' for Inactive)
REMARK    1  A    between atoms: C_1  and  O_2
REMARK    2  A    between atoms: O_2  and  C_3
REMARK    3  A    between atoms: N_15  and  C_16
REMARK    4  A    between atoms: C_20  and  O_21
REMARK    5  A    between atoms: O_21  and  C_22
REMARK                            x       y       z     vdW  Elec       q    Type
REMARK                         _______ _______ _______ _____ _____    ______ ____
ROOT
ATOM      1  C   UNL     1      -3.357  13.769  23.745  0.00  0.00    +0.000 A 
ATOM      2  C   UNL     1      -2.252  13.132  23.149  0.00  0.00    +0.000 A 
ATOM      3  C   UNL     1      -2.321  12.644  21.839  0.00  0.00    +0.000 A 
ATOM      4  C   UNL     1      -1.259  11.948  21.259  0.00  0.00    +0.000 A 
ATOM      5  C   UNL     1      -1.256  11.376  19.961  0.00  0.00    +0.000 A 
ATOM      6  C   UNL     1      -2.455  11.560  19.221  0.00  0.00    +0.000 A 
ATOM      7  C   UNL     1      -2.665  11.077  17.926  0.00  0.00    +0.000 A 
ATOM      8  C   UNL     1      -1.968  10.349  16.940  0.00  0.00    +0.000 A 
ATOM      9  C   UNL     1      -2.571  10.070  15.709  0.00  0.00    +0.000 A 
ATOM     10  C   UNL     1      -3.861  10.500  15.442  0.00  0.00    +0.000 A 
ATOM     11  C   UNL     1      -4.580  11.217  16.398  0.00  0.00    +0.000 A 
ATOM     12  C   UNL     1      -3.972  11.502  17.635  0.00  0.00    +0.000 A 
ATOM     13  N   UNL     1      -4.462  12.194  18.743  0.00  0.00    +0.000 N 
ATOM     14  C   UNL     1      -5.795  12.756  18.812  0.00  0.00    +0.000 C 
ATOM     15  C   UNL     1      -3.514  12.255  19.758  0.00  0.00    +0.000 A 
ATOM     16  C   UNL     1      -3.485  12.820  21.070  0.00  0.00    +0.000 A 
ATOM     17  C   UNL     1      -4.545  13.544  21.652  0.00  0.00    +0.000 A 
ATOM     18  C   UNL     1      -4.493  14.029  22.970  0.00  0.00    +0.000 A 
ATOM     19  C   UNL     1       0.003  10.724  19.723  0.00  0.00    +0.000 C 
ATOM     20  O   UNL     1       0.489  10.093  18.797  0.00  0.00    +0.000 OA
ATOM     21  N   UNL     1       0.715  10.934  20.894  0.00  0.00    +0.000 N 
ATOM     22  C   UNL     1       0.042  11.685  21.923  0.00  0.00    +0.000 C 
ATOM     23  H   UNL     1       1.649  10.561  20.974  0.00  0.00    +0.000 HD
ENDROOT
BRANCH   1  25
ATOM     24  C   UNL     1      -2.419  15.178  25.405  0.00  0.00    +0.000 C 
ATOM     25  O   UNL     1      -3.341  14.143  25.065  0.00  0.00    +0.000 OA
ENDBRANCH   1  25
BRANCH  18  26
ATOM     26  O   UNL     1      -5.640  14.703  23.289  0.00  0.00    +0.000 OA
ATOM     27  C   UNL     1      -6.907  14.206  22.899  0.00  0.00    +0.000 C 
ENDBRANCH  18  26
TORSDOF 2
ENDMDL
MODEL 4
REMARK VINA RESULT:      -6.6      5.167     10.347
REMARK  Name = 
REMARK  5 active torsions:
REMARK  status: ('A' for Active; 'I' for Inactive)
REMARK    1  A    between atoms: C_1  and  O_2
REMARK    2  A    between atoms: O_2  and  C_3
REMARK    3  A    between atoms: N_15  and  C_16
REMARK    4  A    between atoms: C_20  and  O_21
REMARK    5  A    between atoms: O_21  and  C_22
REMARK                            x       y       z     vdW  Elec       q    Type
REMARK                         _______ _______ _______ _____ _____    ______ ____
ROOT
ATOM      1  C   UNL     1       0.512   9.958  19.466  0.00  0.00    +0.000 A 
ATOM      2  C   UNL     1      -0.493  10.260  18.526  0.00  0.00    +0.000 A 
ATOM      3  C   UNL     1      -1.637  10.976  18.897  0.00  0.00    +0.000 A 
ATOM      4  C   UNL     1      -2.673  11.222  17.995  0.00  0.00    +0.000 A 
ATOM      5  C   UNL     1      -3.886  11.893  18.293  0.00  0.00    +0.000 A 
ATOM      6  C   UNL     1      -4.010  12.345  19.635  0.00  0.00    +0.000 A 
ATOM      7  C   UNL     1      -5.122  13.025  20.139  0.00  0.00    +0.000 A 
ATOM      8  C   UNL     1      -6.371  13.497  19.687  0.00  0.00    +0.000 A 
ATOM      9  C   UNL     1      -7.231  14.171  20.561  0.00  0.00    +0.000 A 
ATOM     10  C   UNL     1      -6.869  14.382  21.882  0.00  0.00    +0.000 A 
ATOM     11  C   UNL     1      -5.643  13.924  22.363  0.00  0.00    +0.000 A 
ATOM     12  C   UNL     1      -4.777  13.249  21.482  0.00  0.00    +0.000 A 
ATOM     13  N   UNL     1      -3.512  12.701  21.704  0.00  0.00    +0.000 N 
ATOM     14  C   UNL     1      -2.844  12.721  22.989  0.00  0.00    +0.000 C 
ATOM     15  C   UNL     1      -2.999  12.133  20.544  0.00  0.00    +0.000 A 
ATOM     16  C   UNL     1      -1.788  11.452  20.212  0.00  0.00    +0.000 A 
ATOM     17  C   UNL     1      -0.727  11.222  21.112  0.00  0.00    +0.000 A 
ATOM     18  C   UNL     1       0.421  10.494  20.755  0.00  0.00    +0.000 A 
ATOM     19  C   UNL     1      -4.715  11.937  17.119  0.00  0.00    +0.000 C 
ATOM     20  O   UNL     1      -5.824  12.378  16.859  0.00  0.00    +0.000 OA
ATOM     21  N   UNL     1      -3.961  11.289  16.152  0.00  0.00    +0.000 N 
ATOM     22  C   UNL     1      -2.671  10.803  16.571  0.00  0.00    +0.000 C 
ATOM     23  H   UNL     1      -4.338  11.188  15.222  0.00  0.00    +0.000 HD
ENDROOT
BRANCH   1  25
ATOM     24  C   UNL     1       1.862   9.036  17.749  0.00  0.00    +0.000 C 
ATOM     25  O   UNL     1       1.576   9.155  19.143  0.00  0.00    +0.000 OA
ENDBRANCH   1  25
BRANCH  18  26
ATOM     26  O   UNL     1       1.299  10.422  21.801  0.00  0.00    +0.000 OA
ATOM     27  C   UNL     1       1.342   9.280  22.637  0.00  0.00    +0.000 C 
ENDBRANCH  18  26
TORSDOF 2
ENDMDL
MODEL 5
REMARK VINA RESULT:      -6.6      7.505     10.807
REMARK  Name = 
REMARK  5 active torsions:
REMARK  status: ('A' for Active; 'I' for Inactive)
REMARK    1  A    between atoms: C_1  and  O_2
REMARK    2  A    between atoms: O_2  and  C_3
REMARK    3  A    between atoms: N_15  and  C_16
REMARK    4  A    between atoms: C_20  and  O_21
REMARK    5  A    between atoms: O_21  and  C_22
REMARK                            x       y       z     vdW  Elec       q    Type
REMARK                         _______ _______ _______ _____ _____    ______ ____
ROOT
ATOM      1  C   UNL     1      -4.045  11.314  17.323  0.00  0.00    +0.000 A 
ATOM      2  C   UNL     1      -2.763  11.472  17.885  0.00  0.00    +0.000 A 
ATOM      3  C   UNL     1      -2.594  12.069  19.140  0.00  0.00    +0.000 A 
ATOM      4  C   UNL     1      -1.328  12.296  19.679  0.00  0.00    +0.000 A 
ATOM      5  C   UNL     1      -1.058  12.937  20.915  0.00  0.00    +0.000 A 
ATOM      6  C   UNL     1      -2.207  13.359  21.637  0.00  0.00    +0.000 A 
ATOM      7  C   UNL     1      -2.168  14.011  22.873  0.00  0.00    +0.000 A 
ATOM      8  C   UNL     1      -1.210  14.463  23.803  0.00  0.00    +0.000 A 
ATOM      9  C   UNL     1      -1.614  15.094  24.984  0.00  0.00    +0.000 A 
ATOM     10  C   UNL     1      -2.959  15.287  25.255  0.00  0.00    +0.000 A 
ATOM     11  C   UNL     1      -3.933  14.857  24.354  0.00  0.00    +0.000 A 
ATOM     12  C   UNL     1      -3.526  14.218  23.167  0.00  0.00    +0.000 A 
ATOM     13  N   UNL     1      -4.284  13.697  22.117  0.00  0.00    +0.000 N 
ATOM     14  C   UNL     1      -5.730  13.757  22.066  0.00  0.00    +0.000 C 
ATOM     15  C   UNL     1      -3.471  13.136  21.140  0.00  0.00    +0.000 A 
ATOM     16  C   UNL     1      -3.709  12.487  19.889  0.00  0.00    +0.000 A 
ATOM     17  C   UNL     1      -4.987  12.233  19.351  0.00  0.00    +0.000 A 
ATOM     18  C   UNL     1      -5.169  11.645  18.087  0.00  0.00    +0.000 A 
ATOM     19  C   UNL     1       0.363  13.006  21.124  0.00  0.00    +0.000 C 
ATOM     20  O   UNL     1       1.088  13.456  21.998  0.00  0.00    +0.000 OA
ATOM     21  N   UNL     1       0.897  12.397  19.999  0.00  0.00    +0.000 N 
ATOM     22  C   UNL     1      -0.050  11.909  19.029  0.00  0.00    +0.000 C 
ATOM     23  H   UNL     1       1.899  12.323  19.910  0.00  0.00    +0.000 HD
ENDROOT
BRANCH   1  25
ATOM     24  C   UNL     1      -3.021  10.714  15.271  0.00  0.00    +0.000 C 
ATOM     25  O   UNL     1      -4.213  10.842  16.046  0.00  0.00    +0.000 OA
ENDBRANCH   1  25
BRANCH  18  26
ATOM     26  O   UNL     1      -6.500  11.500  17.803  0.00  0.00    +0.000 OA
ATOM     27  C   UNL     1      -7.438  12.485  18.196  0.00  0.00    +0.000 C 
ENDBRANCH  18  26
TORSDOF 2
ENDMDL
MODEL 6
REMARK VINA RESULT:      -6.5      6.531     10.222
REMARK  Name = 
REMARK  5 active torsions:
REMARK  status: ('A' for Active; 'I' for Inactive)
REMARK    1  A    between atoms: C_1  and  O_2
REMARK    2  A    between atoms: O_2  and  C_3
REMARK    3  A    between atoms: N_15  and  C_16
REMARK    4  A    between atoms: C_20  and  O_21
REMARK    5  A    between atoms: O_21  and  C_22
REMARK                            x       y       z     vdW  Elec       q    Type
REMARK                         _______ _______ _______ _____ _____    ______ ____
ROOT
ATOM      1  C   UNL     1      -3.967  10.944  16.586  0.00  0.00    +0.000 A 
ATOM      2  C   UNL     1      -2.731  10.825  17.251  0.00  0.00    +0.000 A 
ATOM      3  C   UNL     1      -2.513  11.450  18.485  0.00  0.00    +0.000 A 
ATOM      4  C   UNL     1      -1.273  11.400  19.122  0.00  0.00    +0.000 A 
ATOM      5  C   UNL     1      -0.945  12.042  20.344  0.00  0.00    +0.000 A 
ATOM      6  C   UNL     1      -2.004  12.780  20.938  0.00  0.00    +0.000 A 
ATOM      7  C   UNL     1      -1.896  13.487  22.139  0.00  0.00    +0.000 A 
ATOM      8  C   UNL     1      -0.927  13.758  23.127  0.00  0.00    +0.000 A 
ATOM      9  C   UNL     1      -1.248  14.550  24.234  0.00  0.00    +0.000 A 
ATOM     10  C   UNL     1      -2.520  15.082  24.375  0.00  0.00    +0.000 A 
ATOM     11  C   UNL     1      -3.500  14.838  23.414  0.00  0.00    +0.000 A 
ATOM     12  C   UNL     1      -3.178  14.038  22.301  0.00  0.00    +0.000 A 
ATOM     13  N   UNL     1      -3.962  13.644  21.215  0.00  0.00    +0.000 N 
ATOM     14  C   UNL     1      -5.340  14.049  21.033  0.00  0.00    +0.000 C 
ATOM     15  C   UNL     1      -3.243  12.835  20.343  0.00  0.00    +0.000 A 
ATOM     16  C   UNL     1      -3.541  12.177  19.110  0.00  0.00    +0.000 A 
ATOM     17  C   UNL     1      -4.799  12.204  18.474  0.00  0.00    +0.000 A 
ATOM     18  C   UNL     1      -5.027  11.590  17.230  0.00  0.00    +0.000 A 
ATOM     19  C   UNL     1       0.430  11.779  20.674  0.00  0.00    +0.000 C 
ATOM     20  O   UNL     1       1.177  12.100  21.586  0.00  0.00    +0.000 OA
ATOM     21  N   UNL     1       0.878  10.981  19.632  0.00  0.00    +0.000 N 
ATOM     22  C   UNL     1      -0.087  10.670  18.608  0.00  0.00    +0.000 C 
ATOM     23  H   UNL     1       1.834  10.660  19.636  0.00  0.00    +0.000 HD
ENDROOT
BRANCH   1  25
ATOM     24  C   UNL     1      -2.962  10.169  14.584  0.00  0.00    +0.000 C 
ATOM     25  O   UNL     1      -4.152  10.438  15.325  0.00  0.00    +0.000 OA
ENDBRANCH   1  25
BRANCH  18  26
ATOM     26  O   UNL     1      -6.328  11.752  16.837  0.00  0.00    +0.000 OA
ATOM     27  C   UNL     1      -7.197  12.621  17.541  0.00  0.00    +0.000 C 
ENDBRANCH  18  26
TORSDOF 2
ENDMDL
MODEL 7
REMARK VINA RESULT:      -6.5      6.033      9.262
REMARK  Name = 
REMARK  5 active torsions:
REMARK  status: ('A' for Active; 'I' for Inactive)
REMARK    1  A    between atoms: C_1  and  O_2
REMARK    2  A    between atoms: O_2  and  C_3
REMARK    3  A    between atoms: N_15  and  C_16
REMARK    4  A    between atoms: C_20  and  O_21
REMARK    5  A    between atoms: O_21  and  C_22
REMARK                            x       y       z     vdW  Elec       q    Type
REMARK                         _______ _______ _______ _____ _____    ______ ____
ROOT
ATOM      1  C   UNL     1      -6.188  14.172  21.226  0.00  0.00    +0.000 A 
ATOM      2  C   UNL     1      -6.057  13.474  20.009  0.00  0.00    +0.000 A 
ATOM      3  C   UNL     1      -4.883  12.776  19.700  0.00  0.00    +0.000 A 
ATOM      4  C   UNL     1      -4.712  12.139  18.471  0.00  0.00    +0.000 A 
ATOM      5  C   UNL     1      -3.543  11.453  18.051  0.00  0.00    +0.000 A 
ATOM      6  C   UNL     1      -2.486  11.431  19.001  0.00  0.00    +0.000 A 
ATOM      7  C   UNL     1      -1.250  10.812  18.791  0.00  0.00    +0.000 A 
ATOM      8  C   UNL     1      -0.589  10.077  17.786  0.00  0.00    +0.000 A 
ATOM      9  C   UNL     1       0.713   9.610  17.991  0.00  0.00    +0.000 A 
ATOM     10  C   UNL     1       1.373   9.866  19.182  0.00  0.00    +0.000 A 
ATOM     11  C   UNL     1       0.751  10.595  20.195  0.00  0.00    +0.000 A 
ATOM     12  C   UNL     1      -0.561  11.062  19.989  0.00  0.00    +0.000 A 
ATOM     13  N   UNL     1      -1.398  11.799  20.828  0.00  0.00    +0.000 N 
ATOM     14  C   UNL     1      -1.010  12.261  22.144  0.00  0.00    +0.000 C 
ATOM     15  C   UNL     1      -2.630  12.035  20.228  0.00  0.00    +0.000 A 
ATOM     16  C   UNL     1      -3.821  12.720  20.620  0.00  0.00    +0.000 A 
ATOM     17  C   UNL     1      -4.010  13.344  21.870  0.00  0.00    +0.000 A 
ATOM     18  C   UNL     1      -5.179  14.057  22.188  0.00  0.00    +0.000 A 
ATOM     19  C   UNL     1      -3.732  10.947  16.719  0.00  0.00    +0.000 C 
ATOM     20  O   UNL     1      -3.047  10.316  15.928  0.00  0.00    +0.000 OA
ATOM     21  N   UNL     1      -5.018  11.347  16.387  0.00  0.00    +0.000 N 
ATOM     22  C   UNL     1      -5.732  12.091  17.394  0.00  0.00    +0.000 C 
ATOM     23  H   UNL     1      -5.388  11.107  15.480  0.00  0.00    +0.000 HD
ENDROOT
BRANCH   1  25
ATOM     24  C   UNL     1      -7.193  16.311  21.048  0.00  0.00    +0.000 C 
ATOM     25  O   UNL     1      -7.283  14.955  21.486  0.00  0.00    +0.000 OA
ENDBRANCH   1  25
BRANCH  18  26
ATOM     26  O   UNL     1      -5.116  14.556  23.460  0.00  0.00    +0.000 OA
ATOM     27  C   UNL     1      -3.940  14.418  24.237  0.00  0.00    +0.000 C 
ENDBRANCH  18  26
TORSDOF 2
ENDMDL
MODEL 8
REMARK VINA RESULT:      -6.4      8.336     10.290
REMARK  Name = 
REMARK  5 active torsions:
REMARK  status: ('A' for Active; 'I' for Inactive)
REMARK    1  A    between atoms: C_1  and  O_2
REMARK    2  A    between atoms: O_2  and  C_3
REMARK    3  A    between atoms: N_15  and  C_16
REMARK    4  A    between atoms: C_20  and  O_21
REMARK    5  A    between atoms: O_21  and  C_22
REMARK                            x       y       z     vdW  Elec       q    Type
REMARK                         _______ _______ _______ _____ _____    ______ ____
ROOT
ATOM      1  C   UNL     1      -3.306  14.732  24.152  0.00  0.00    +0.000 A 
ATOM      2  C   UNL     1      -4.452  14.220  23.515  0.00  0.00    +0.000 A 
ATOM      3  C   UNL     1      -4.361  13.569  22.279  0.00  0.00    +0.000 A 
ATOM      4  C   UNL     1      -5.494  13.119  21.601  0.00  0.00    +0.000 A 
ATOM      5  C   UNL     1      -5.503  12.496  20.327  0.00  0.00    +0.000 A 
ATOM      6  C   UNL     1      -4.224  12.328  19.731  0.00  0.00    +0.000 A 
ATOM      7  C   UNL     1      -4.006  11.741  18.481  0.00  0.00    +0.000 A 
ATOM      8  C   UNL     1      -4.755  11.158  17.439  0.00  0.00    +0.000 A 
ATOM      9  C   UNL     1      -4.113  10.659  16.301  0.00  0.00    +0.000 A 
ATOM     10  C   UNL     1      -2.735  10.733  16.179  0.00  0.00    +0.000 A 
ATOM     11  C   UNL     1      -1.965  11.309  17.190  0.00  0.00    +0.000 A 
ATOM     12  C   UNL     1      -2.611  11.808  18.337  0.00  0.00    +0.000 A 
ATOM     13  N   UNL     1      -2.083  12.418  19.475  0.00  0.00    +0.000 N 
ATOM     14  C   UNL     1      -0.671  12.679  19.663  0.00  0.00    +0.000 C 
ATOM     15  C   UNL     1      -3.085  12.747  20.380  0.00  0.00    +0.000 A 
ATOM     16  C   UNL     1      -3.110  13.372  21.665  0.00  0.00    +0.000 A 
ATOM     17  C   UNL     1      -1.967  13.807  22.365  0.00  0.00    +0.000 A 
ATOM     18  C   UNL     1      -2.047  14.472  23.601  0.00  0.00    +0.000 A 
ATOM     19  C   UNL     1      -6.856  12.192  19.947  0.00  0.00    +0.000 C 
ATOM     20  O   UNL     1      -7.387  11.681  18.972  0.00  0.00    +0.000 OA
ATOM     21  N   UNL     1      -7.614  12.644  21.016  0.00  0.00    +0.000 N 
ATOM     22  C   UNL     1      -6.884  13.235  22.109  0.00  0.00    +0.000 C 
ATOM     23  H   UNL     1      -8.617  12.542  20.985  0.00  0.00    +0.000 HD
ENDROOT
BRANCH   1  25
ATOM     24  C   UNL     1      -3.967  16.776  25.155  0.00  0.00    +0.000 C 
ATOM     25  O   UNL     1      -3.398  15.475  25.301  0.00  0.00    +0.000 OA
ENDBRANCH   1  25
BRANCH  18  26
ATOM     26  O   UNL     1      -0.799  14.778  24.072  0.00  0.00    +0.000 OA
ATOM     27  C   UNL     1      -0.236  16.059  23.857  0.00  0.00    +0.000 C 
ENDBRANCH  18  26
TORSDOF 2
ENDMDL
MODEL 9
REMARK VINA RESULT:      -6.3      6.202     11.108
REMARK  Name = 
REMARK  5 active torsions:
REMARK  status: ('A' for Active; 'I' for Inactive)
REMARK    1  A    between atoms: C_1  and  O_2
REMARK    2  A    between atoms: O_2  and  C_3
REMARK    3  A    between atoms: N_15  and  C_16
REMARK    4  A    between atoms: C_20  and  O_21
REMARK    5  A    between atoms: O_21  and  C_22
REMARK                            x       y       z     vdW  Elec       q    Type
REMARK                         _______ _______ _______ _____ _____    ______ ____
ROOT
ATOM      1  C   UNL     1      -2.634  10.403  17.160  0.00  0.00    +0.000 A 
ATOM      2  C   UNL     1      -3.767  11.141  17.553  0.00  0.00    +0.000 A 
ATOM      3  C   UNL     1      -3.776  11.867  18.749  0.00  0.00    +0.000 A 
ATOM      4  C   UNL     1      -4.914  12.546  19.186  0.00  0.00    +0.000 A 
ATOM      5  C   UNL     1      -5.032  13.264  20.404  0.00  0.00    +0.000 A 
ATOM      6  C   UNL     1      -3.863  13.274  21.211  0.00  0.00    +0.000 A 
ATOM      7  C   UNL     1      -3.763  13.919  22.448  0.00  0.00    +0.000 A 
ATOM      8  C   UNL     1      -4.567  14.696  23.306  0.00  0.00    +0.000 A 
ATOM      9  C   UNL     1      -4.052  15.178  24.514  0.00  0.00    +0.000 A 
ATOM     10  C   UNL     1      -2.748  14.896  24.886  0.00  0.00    +0.000 A 
ATOM     11  C   UNL     1      -1.927  14.124  24.063  0.00  0.00    +0.000 A 
ATOM     12  C   UNL     1      -2.445  13.643  22.846  0.00  0.00    +0.000 A 
ATOM     13  N   UNL     1      -1.844  12.865  21.855  0.00  0.00    +0.000 N 
ATOM     14  C   UNL     1      -0.487  12.368  21.939  0.00  0.00    +0.000 C 
ATOM     15  C   UNL     1      -2.719  12.628  20.802  0.00  0.00    +0.000 A 
ATOM     16  C   UNL     1      -2.633  11.912  19.568  0.00  0.00    +0.000 A 
ATOM     17  C   UNL     1      -1.479  11.245  19.110  0.00  0.00    +0.000 A 
ATOM     18  C   UNL     1      -1.461  10.503  17.916  0.00  0.00    +0.000 A 
ATOM     19  C   UNL     1      -6.357  13.810  20.517  0.00  0.00    +0.000 C 
ATOM     20  O   UNL     1      -6.951  14.477  21.351  0.00  0.00    +0.000 OA
ATOM     21  N   UNL     1      -6.989  13.399  19.352  0.00  0.00    +0.000 N 
ATOM     22  C   UNL     1      -6.197  12.612  18.442  0.00  0.00    +0.000 C 
ATOM     23  H   UNL     1      -7.951  13.662  19.197  0.00  0.00    +0.000 HD
ENDROOT
BRANCH   1  25
ATOM     24  C   UNL     1      -3.042  10.222  14.832  0.00  0.00    +0.000 C 
ATOM     25  O   UNL     1      -2.656   9.593  16.054  0.00  0.00    +0.000 OA
ENDBRANCH   1  25
BRANCH  18  26
ATOM     26  O   UNL     1      -0.223   9.965  17.695  0.00  0.00    +0.000 OA
ATOM     27  C   UNL     1       0.825  10.141  18.631  0.00  0.00    +0.000 C 
ENDBRANCH  18  26
TORSDOF 2
ENDMDL
