MODEL 1
REMARK VINA RESULT:      -7.8      0.000      0.000
REMARK  Name = 
REMARK  3 active torsions:
REMARK  status: ('A' for Active; 'I' for Inactive)
REMARK    1  A    between atoms: C_6  and  C_7
REMARK    2  A    between atoms: N_9  and  N_10
REMARK    3  A    between atoms: C_11  and  C_12
REMARK                            x       y       z     vdW  Elec       q    Type
REMARK                         _______ _______ _______ _____ _____    ______ ____
ROOT
ATOM      1  C   UNL     1       1.140   9.128  20.309  0.00  0.00    +0.000 C 
ATOM      2  O   UNL     1       0.949   9.737  19.259  0.00  0.00    +0.000 OA
ATOM      3  N   UNL     1       1.833   7.922  20.410  0.00  0.00    +0.000 N 
ATOM      4  H   UNL     1       1.961   7.502  21.326  0.00  0.00    +0.000 HD
ENDROOT
BRANCH   1  10
ATOM      5  N   UNL     1      -1.041  11.293  20.917  0.00  0.00    +0.000 N 
ATOM      6  C   UNL     1      -0.345  10.603  21.839  0.00  0.00    +0.000 A 
ATOM      7  N   UNL     1      -0.495  10.750  23.152  0.00  0.00    +0.000 NA
ATOM      8  O   UNL     1       0.406   9.867  23.728  0.00  0.00    +0.000 OA
ATOM      9  N   UNL     1       1.122   9.169  22.761  0.00  0.00    +0.000 NA
ATOM     10  C   UNL     1       0.649   9.623  21.589  0.00  0.00    +0.000 A 
ATOM     11  H   UNL     1      -1.633  12.065  21.207  0.00  0.00    +0.000 HD
ATOM     12  H   UNL     1      -0.763  11.303  19.937  0.00  0.00    +0.000 HD
ENDBRANCH   1  10
BRANCH   3  13
ATOM     13  N   UNL     1       2.353   7.338  19.294  0.00  0.00    +0.000 NA
ATOM     14  C   UNL     1       3.084   6.283  19.472  0.00  0.00    +0.000 C 
BRANCH  14  15
ATOM     15  C   UNL     1       3.715   5.602  18.312  0.00  0.00    +0.000 A 
ATOM     16  C   UNL     1       4.846   6.207  17.740  0.00  0.00    +0.000 A 
ATOM     17  C   UNL     1       5.477   5.561  16.702  0.00  0.00    +0.000 A 
ATOM     18  C   UNL     1       5.021   4.363  16.211  0.00  0.00    +0.000 A 
ATOM     19  C   UNL     1       3.901   3.747  16.728  0.00  0.00    +0.000 A 
ATOM     20  C   UNL     1       3.237   4.374  17.795  0.00  0.00    +0.000 A 
ATOM     21 BR   UNL     1       1.702   3.486  18.477  0.00  0.00    +0.000 Br
ATOM     22  O   UNL     1       5.796   3.890  15.199  0.00  0.00    +0.000 OA
ATOM     23  C   UNL     1       6.824   4.904  15.145  0.00  0.00    +0.000 C 
ATOM     24  O   UNL     1       6.591   5.997  16.055  0.00  0.00    +0.000 OA
ENDBRANCH  14  15
ENDBRANCH   3  13
TORSDOF 3
ENDMDL
MODEL 2
REMARK VINA RESULT:      -7.2      7.470      9.639
REMARK  Name = 
REMARK  3 active torsions:
REMARK  status: ('A' for Active; 'I' for Inactive)
REMARK    1  A    between atoms: C_6  and  C_7
REMARK    2  A    between atoms: N_9  and  N_10
REMARK    3  A    between atoms: C_11  and  C_12
REMARK                            x       y       z     vdW  Elec       q    Type
REMARK                         _______ _______ _______ _____ _____    ______ ____
ROOT
ATOM      1  C   UNL     1       7.638   7.502  17.851  0.00  0.00    +0.000 C 
ATOM      2  O   UNL     1       7.271   7.980  16.780  0.00  0.00    +0.000 OA
ATOM      3  N   UNL     1       8.475   8.148  18.760  0.00  0.00    +0.000 N 
ATOM      4  H   UNL     1       8.708   7.684  19.633  0.00  0.00    +0.000 HD
ENDROOT
BRANCH   1  10
ATOM      5  N   UNL     1       7.605   4.789  16.285  0.00  0.00    +0.000 N 
ATOM      6  C   UNL     1       7.216   4.961  17.562  0.00  0.00    +0.000 A 
ATOM      7  N   UNL     1       6.761   3.984  18.343  0.00  0.00    +0.000 NA
ATOM      8  O   UNL     1       6.473   4.587  19.558  0.00  0.00    +0.000 OA
ATOM      9  N   UNL     1       6.750   5.949  19.528  0.00  0.00    +0.000 NA
ATOM     10  C   UNL     1       7.218   6.178  18.290  0.00  0.00    +0.000 A 
ATOM     11  H   UNL     1       7.436   3.901  15.823  0.00  0.00    +0.000 HD
ATOM     12  H   UNL     1       7.753   5.582  15.663  0.00  0.00    +0.000 HD
ENDBRANCH   1  10
BRANCH   3  13
ATOM     13  N   UNL     1       8.947   9.397  18.486  0.00  0.00    +0.000 NA
ATOM     14  C   UNL     1       9.292  10.128  19.499  0.00  0.00    +0.000 C 
BRANCH  14  15
ATOM     15  C   UNL     1       9.788  11.513  19.291  0.00  0.00    +0.000 A 
ATOM     16  C   UNL     1      10.378  11.813  18.052  0.00  0.00    +0.000 A 
ATOM     17  C   UNL     1      10.791  13.105  17.822  0.00  0.00    +0.000 A 
ATOM     18  C   UNL     1      10.655  14.088  18.770  0.00  0.00    +0.000 A 
ATOM     19  C   UNL     1      10.104  13.830  20.007  0.00  0.00    +0.000 A 
ATOM     20  C   UNL     1       9.663  12.524  20.273  0.00  0.00    +0.000 A 
ATOM     21 BR   UNL     1       8.907  12.218  21.989  0.00  0.00    +0.000 Br
ATOM     22  O   UNL     1      11.110  15.293  18.335  0.00  0.00    +0.000 OA
ATOM     23  C   UNL     1      11.501  14.966  16.983  0.00  0.00    +0.000 C 
ATOM     24  O   UNL     1      11.356  13.565  16.674  0.00  0.00    +0.000 OA
ENDBRANCH  14  15
ENDBRANCH   3  13
TORSDOF 3
ENDMDL
MODEL 3
REMARK VINA RESULT:      -7.1      1.907      2.191
REMARK  Name = 
REMARK  3 active torsions:
REMARK  status: ('A' for Active; 'I' for Inactive)
REMARK    1  A    between atoms: C_6  and  C_7
REMARK    2  A    between atoms: N_9  and  N_10
REMARK    3  A    between atoms: C_11  and  C_12
REMARK                            x       y       z     vdW  Elec       q    Type
REMARK                         _______ _______ _______ _____ _____    ______ ____
ROOT
ATOM      1  C   UNL     1       0.271   9.868  18.236  0.00  0.00    +0.000 C 
ATOM      2  O   UNL     1      -0.344   9.433  17.264  0.00  0.00    +0.000 OA
ATOM      3  N   UNL     1       1.551   9.460  18.609  0.00  0.00    +0.000 N 
ATOM      4  H   UNL     1       1.991   9.892  19.416  0.00  0.00    +0.000 HD
ENDROOT
BRANCH   1  10
ATOM      5  N   UNL     1      -1.288  12.490  17.523  0.00  0.00    +0.000 N 
ATOM      6  C   UNL     1      -1.000  12.064  18.766  0.00  0.00    +0.000 A 
ATOM      7  N   UNL     1      -1.347  12.710  19.877  0.00  0.00    +0.000 NA
ATOM      8  O   UNL     1      -0.855  11.941  20.920  0.00  0.00    +0.000 OA
ATOM      9  N   UNL     1      -0.195  10.810  20.451  0.00  0.00    +0.000 NA
ATOM     10  C   UNL     1      -0.293  10.886  19.113  0.00  0.00    +0.000 A 
ATOM     11  H   UNL     1      -1.683  13.415  17.387  0.00  0.00    +0.000 HD
ATOM     12  H   UNL     1      -0.839  12.084  16.704  0.00  0.00    +0.000 HD
ENDBRANCH   1  10
BRANCH   3  13
ATOM     13  N   UNL     1       2.206   8.514  17.879  0.00  0.00    +0.000 NA
ATOM     14  C   UNL     1       2.667   7.490  18.527  0.00  0.00    +0.000 C 
BRANCH  14  15
ATOM     15  C   UNL     1       3.421   6.427  17.813  0.00  0.00    +0.000 A 
ATOM     16  C   UNL     1       4.482   6.828  16.984  0.00  0.00    +0.000 A 
ATOM     17  C   UNL     1       5.227   5.854  16.360  0.00  0.00    +0.000 A 
ATOM     18  C   UNL     1       4.948   4.519  16.517  0.00  0.00    +0.000 A 
ATOM     19  C   UNL     1       3.902   4.084  17.302  0.00  0.00    +0.000 A 
ATOM     20  C   UNL     1       3.126   5.051  17.962  0.00  0.00    +0.000 A 
ATOM     21 BR   UNL     1       1.699   4.404  19.035  0.00  0.00    +0.000 Br
ATOM     22  O   UNL     1       5.813   3.726  15.829  0.00  0.00    +0.000 OA
ATOM     23  C   UNL     1       6.700   4.716  15.263  0.00  0.00    +0.000 C 
ATOM     24  O   UNL     1       6.295   6.069  15.548  0.00  0.00    +0.000 OA
ENDBRANCH  14  15
ENDBRANCH   3  13
TORSDOF 3
ENDMDL
MODEL 4
REMARK VINA RESULT:      -7.1      7.461      9.980
REMARK  Name = 
REMARK  3 active torsions:
REMARK  status: ('A' for Active; 'I' for Inactive)
REMARK    1  A    between atoms: C_6  and  C_7
REMARK    2  A    between atoms: N_9  and  N_10
REMARK    3  A    between atoms: C_11  and  C_12
REMARK                            x       y       z     vdW  Elec       q    Type
REMARK                         _______ _______ _______ _____ _____    ______ ____
ROOT
ATOM      1  C   UNL     1       7.279   7.817  17.602  0.00  0.00    +0.000 C 
ATOM      2  O   UNL     1       6.166   8.303  17.409  0.00  0.00    +0.000 OA
ATOM      3  N   UNL     1       8.400   8.544  18.001  0.00  0.00    +0.000 N 
ATOM      4  H   UNL     1       9.276   8.052  18.159  0.00  0.00    +0.000 HD
ENDROOT
BRANCH   1  10
ATOM      5  N   UNL     1       7.914   5.627  19.750  0.00  0.00    +0.000 N 
ATOM      6  C   UNL     1       7.820   5.419  18.424  0.00  0.00    +0.000 A 
ATOM      7  N   UNL     1       7.985   4.235  17.840  0.00  0.00    +0.000 NA
ATOM      8  O   UNL     1       7.812   4.465  16.484  0.00  0.00    +0.000 OA
ATOM      9  N   UNL     1       7.540   5.805  16.226  0.00  0.00    +0.000 NA
ATOM     10  C   UNL     1       7.539   6.393  17.434  0.00  0.00    +0.000 A 
ATOM     11  H   UNL     1       8.251   4.884  20.354  0.00  0.00    +0.000 HD
ATOM     12  H   UNL     1       7.983   6.567  20.138  0.00  0.00    +0.000 HD
ENDBRANCH   1  10
BRANCH   3  13
ATOM     13  N   UNL     1       8.308   9.888  18.201  0.00  0.00    +0.000 NA
ATOM     14  C   UNL     1       9.395  10.578  18.053  0.00  0.00    +0.000 C 
BRANCH  14  15
ATOM     15  C   UNL     1       9.390  12.046  18.282  0.00  0.00    +0.000 A 
ATOM     16  C   UNL     1       8.312  12.781  17.762  0.00  0.00    +0.000 A 
ATOM     17  C   UNL     1       8.262  14.133  18.013  0.00  0.00    +0.000 A 
ATOM     18  C   UNL     1       9.237  14.770  18.738  0.00  0.00    +0.000 A 
ATOM     19  C   UNL     1      10.324  14.091  19.246  0.00  0.00    +0.000 A 
ATOM     20  C   UNL     1      10.403  12.708  19.016  0.00  0.00    +0.000 A 
ATOM     21 BR   UNL     1      11.915  11.814  19.740  0.00  0.00    +0.000 Br
ATOM     22  O   UNL     1       8.988  16.100  18.883  0.00  0.00    +0.000 OA
ATOM     23  C   UNL     1       7.715  16.214  18.210  0.00  0.00    +0.000 C 
ATOM     24  O   UNL     1       7.281  14.981  17.604  0.00  0.00    +0.000 OA
ENDBRANCH  14  15
ENDBRANCH   3  13
TORSDOF 3
ENDMDL
MODEL 5
REMARK VINA RESULT:      -7.0      3.775      8.264
REMARK  Name = 
REMARK  3 active torsions:
REMARK  status: ('A' for Active; 'I' for Inactive)
REMARK    1  A    between atoms: C_6  and  C_7
REMARK    2  A    between atoms: N_9  and  N_10
REMARK    3  A    between atoms: C_11  and  C_12
REMARK                            x       y       z     vdW  Elec       q    Type
REMARK                         _______ _______ _______ _____ _____    ______ ____
ROOT
ATOM      1  C   UNL     1       2.175   4.319  19.571  0.00  0.00    +0.000 C 
ATOM      2  O   UNL     1       1.324   4.461  18.694  0.00  0.00    +0.000 OA
ATOM      3  N   UNL     1       2.324   5.163  20.671  0.00  0.00    +0.000 N 
ATOM      4  H   UNL     1       3.043   4.954  21.359  0.00  0.00    +0.000 HD
ENDROOT
BRANCH   1  10
ATOM      5  N   UNL     1       2.246   1.761  17.765  0.00  0.00    +0.000 N 
ATOM      6  C   UNL     1       3.146   2.074  18.715  0.00  0.00    +0.000 A 
ATOM      7  N   UNL     1       4.205   1.327  19.016  0.00  0.00    +0.000 NA
ATOM      8  O   UNL     1       4.854   2.001  20.039  0.00  0.00    +0.000 OA
ATOM      9  N   UNL     1       4.189   3.176  20.375  0.00  0.00    +0.000 NA
ATOM     10  C   UNL     1       3.133   3.221  19.547  0.00  0.00    +0.000 A 
ATOM     11  H   UNL     1       2.279   0.849  17.321  0.00  0.00    +0.000 HD
ATOM     12  H   UNL     1       1.351   2.243  17.700  0.00  0.00    +0.000 HD
ENDBRANCH   1  10
BRANCH   3  13
ATOM     13  N   UNL     1       1.496   6.234  20.829  0.00  0.00    +0.000 NA
ATOM     14  C   UNL     1       1.985   7.399  20.542  0.00  0.00    +0.000 C 
BRANCH  14  15
ATOM     15  C   UNL     1       1.160   8.623  20.714  0.00  0.00    +0.000 A 
ATOM     16  C   UNL     1       0.628   8.873  21.990  0.00  0.00    +0.000 A 
ATOM     17  C   UNL     1      -0.091  10.030  22.182  0.00  0.00    +0.000 A 
ATOM     18  C   UNL     1      -0.308  10.924  21.164  0.00  0.00    +0.000 A 
ATOM     19  C   UNL     1       0.175  10.705  19.891  0.00  0.00    +0.000 A 
ATOM     20  C   UNL     1       0.922   9.538  19.662  0.00  0.00    +0.000 A 
ATOM     21 BR   UNL     1       1.571   9.282  17.895  0.00  0.00    +0.000 Br
ATOM     22  O   UNL     1      -1.026  12.006  21.569  0.00  0.00    +0.000 OA
ATOM     23  C   UNL     1      -1.190  11.714  22.975  0.00  0.00    +0.000 C 
ATOM     24  O   UNL     1      -0.650  10.432  23.354  0.00  0.00    +0.000 OA
ENDBRANCH  14  15
ENDBRANCH   3  13
TORSDOF 3
ENDMDL
MODEL 6
REMARK VINA RESULT:      -7.0      1.407      1.466
REMARK  Name = 
REMARK  3 active torsions:
REMARK  status: ('A' for Active; 'I' for Inactive)
REMARK    1  A    between atoms: C_6  and  C_7
REMARK    2  A    between atoms: N_9  and  N_10
REMARK    3  A    between atoms: C_11  and  C_12
REMARK                            x       y       z     vdW  Elec       q    Type
REMARK                         _______ _______ _______ _____ _____    ______ ____
ROOT
ATOM      1  C   UNL     1       1.429  10.223  19.035  0.00  0.00    +0.000 C 
ATOM      2  O   UNL     1       2.006  10.833  18.137  0.00  0.00    +0.000 OA
ATOM      3  N   UNL     1       1.454   8.838  19.193  0.00  0.00    +0.000 N 
ATOM      4  H   UNL     1       0.964   8.423  19.980  0.00  0.00    +0.000 HD
ENDROOT
BRANCH   1  10
ATOM      5  N   UNL     1      -1.601  11.020  19.031  0.00  0.00    +0.000 N 
ATOM      6  C   UNL     1      -0.730  11.256  20.030  0.00  0.00    +0.000 A 
ATOM      7  N   UNL     1      -1.047  11.868  21.168  0.00  0.00    +0.000 NA
ATOM      8  O   UNL     1       0.127  11.909  21.904  0.00  0.00    +0.000 OA
ATOM      9  N   UNL     1       1.181  11.320  21.213  0.00  0.00    +0.000 NA
ATOM     10  C   UNL     1       0.644  10.910  20.052  0.00  0.00    +0.000 A 
ATOM     11  H   UNL     1      -2.529  11.430  19.065  0.00  0.00    +0.000 HD
ATOM     12  H   UNL     1      -1.284  10.737  18.105  0.00  0.00    +0.000 HD
ENDBRANCH   1  10
BRANCH   3  13
ATOM     13  N   UNL     1       2.151   8.063  18.316  0.00  0.00    +0.000 NA
ATOM     14  C   UNL     1       2.661   6.966  18.782  0.00  0.00    +0.000 C 
BRANCH  14  15
ATOM     15  C   UNL     1       3.462   6.077  17.901  0.00  0.00    +0.000 A 
ATOM     16  C   UNL     1       4.600   6.625  17.287  0.00  0.00    +0.000 A 
ATOM     17  C   UNL     1       5.386   5.801  16.514  0.00  0.00    +0.000 A 
ATOM     18  C   UNL     1       5.075   4.478  16.321  0.00  0.00    +0.000 A 
ATOM     19  C   UNL     1       3.954   3.907  16.885  0.00  0.00    +0.000 A 
ATOM     20  C   UNL     1       3.134   4.717  17.688  0.00  0.00    +0.000 A 
ATOM     21 BR   UNL     1       1.605   3.885  18.447  0.00  0.00    +0.000 Br
ATOM     22  O   UNL     1       5.988   3.841  15.540  0.00  0.00    +0.000 OA
ATOM     23  C   UNL     1       6.938   4.904  15.307  0.00  0.00    +0.000 C 
ATOM     24  O   UNL     1       6.528   6.165  15.873  0.00  0.00    +0.000 OA
ENDBRANCH  14  15
ENDBRANCH   3  13
TORSDOF 3
ENDMDL
MODEL 7
REMARK VINA RESULT:      -6.9      3.689      8.189
REMARK  Name = 
REMARK  3 active torsions:
REMARK  status: ('A' for Active; 'I' for Inactive)
REMARK    1  A    between atoms: C_6  and  C_7
REMARK    2  A    between atoms: N_9  and  N_10
REMARK    3  A    between atoms: C_11  and  C_12
REMARK                            x       y       z     vdW  Elec       q    Type
REMARK                         _______ _______ _______ _____ _____    ______ ____
ROOT
ATOM      1  C   UNL     1       2.345   4.477  19.989  0.00  0.00    +0.000 C 
ATOM      2  O   UNL     1       1.807   4.570  18.887  0.00  0.00    +0.000 OA
ATOM      3  N   UNL     1       2.139   5.361  21.047  0.00  0.00    +0.000 N 
ATOM      4  H   UNL     1       2.611   5.191  21.931  0.00  0.00    +0.000 HD
ENDROOT
BRANCH   1  10
ATOM      5  N   UNL     1       4.766   3.369  18.338  0.00  0.00    +0.000 N 
ATOM      6  C   UNL     1       4.368   2.919  19.542  0.00  0.00    +0.000 A 
ATOM      7  N   UNL     1       4.960   1.927  20.203  0.00  0.00    +0.000 NA
ATOM      8  O   UNL     1       4.239   1.783  21.377  0.00  0.00    +0.000 OA
ATOM      9  N   UNL     1       3.188   2.692  21.443  0.00  0.00    +0.000 NA
ATOM     10  C   UNL     1       3.274   3.400  20.305  0.00  0.00    +0.000 A 
ATOM     11  H   UNL     1       5.479   2.863  17.823  0.00  0.00    +0.000 HD
ATOM     12  H   UNL     1       4.176   3.982  17.777  0.00  0.00    +0.000 HD
ENDBRANCH   1  10
BRANCH   3  13
ATOM     13  N   UNL     1       1.292   6.418  20.899  0.00  0.00    +0.000 NA
ATOM     14  C   UNL     1       1.819   7.601  20.950  0.00  0.00    +0.000 C 
BRANCH  14  15
ATOM     15  C   UNL     1       0.963   8.810  20.829  0.00  0.00    +0.000 A 
ATOM     16  C   UNL     1       0.275   9.238  21.976  0.00  0.00    +0.000 A 
ATOM     17  C   UNL     1      -0.477  10.387  21.897  0.00  0.00    +0.000 A 
ATOM     18  C   UNL     1      -0.579  11.105  20.732  0.00  0.00    +0.000 A 
ATOM     19  C   UNL     1       0.060  10.708  19.577  0.00  0.00    +0.000 A 
ATOM     20  C   UNL     1       0.844   9.543  19.624  0.00  0.00    +0.000 A 
ATOM     21 BR   UNL     1       1.708   9.038  18.010  0.00  0.00    +0.000 Br
ATOM     22  O   UNL     1      -1.355  12.213  20.873  0.00  0.00    +0.000 OA
ATOM     23  C   UNL     1      -1.686  12.137  22.278  0.00  0.00    +0.000 C 
ATOM     24  O   UNL     1      -1.181  10.947  22.916  0.00  0.00    +0.000 OA
ENDBRANCH  14  15
ENDBRANCH   3  13
TORSDOF 3
ENDMDL
MODEL 8
REMARK VINA RESULT:      -6.9      1.357      1.551
REMARK  Name = 
REMARK  3 active torsions:
REMARK  status: ('A' for Active; 'I' for Inactive)
REMARK    1  A    between atoms: C_6  and  C_7
REMARK    2  A    between atoms: N_9  and  N_10
REMARK    3  A    between atoms: C_11  and  C_12
REMARK                            x       y       z     vdW  Elec       q    Type
REMARK                         _______ _______ _______ _____ _____    ______ ____
ROOT
ATOM      1  C   UNL     1       1.024   8.992  20.595  0.00  0.00    +0.000 C 
ATOM      2  O   UNL     1       1.064   7.861  21.074  0.00  0.00    +0.000 OA
ATOM      3  N   UNL     1       1.417   9.316  19.297  0.00  0.00    +0.000 N 
ATOM      4  H   UNL     1       1.326  10.278  18.980  0.00  0.00    +0.000 HD
ENDROOT
BRANCH   1  10
ATOM      5  N   UNL     1      -0.749   9.077  23.176  0.00  0.00    +0.000 N 
ATOM      6  C   UNL     1      -0.257  10.149  22.529  0.00  0.00    +0.000 A 
ATOM      7  N   UNL     1      -0.460  11.408  22.908  0.00  0.00    +0.000 NA
ATOM      8  O   UNL     1       0.207  12.186  21.974  0.00  0.00    +0.000 OA
ATOM      9  N   UNL     1       0.827  11.401  21.008  0.00  0.00    +0.000 NA
ATOM     10  C   UNL     1       0.542  10.136  21.358  0.00  0.00    +0.000 A 
ATOM     11  H   UNL     1      -1.420   9.206  23.927  0.00  0.00    +0.000 HD
ATOM     12  H   UNL     1      -0.746   8.151  22.751  0.00  0.00    +0.000 HD
ENDBRANCH   1  10
BRANCH   3  13
ATOM     13  N   UNL     1       1.888   8.347  18.464  0.00  0.00    +0.000 NA
ATOM     14  C   UNL     1       2.831   7.587  18.924  0.00  0.00    +0.000 C 
BRANCH  14  15
ATOM     15  C   UNL     1       3.422   6.524  18.070  0.00  0.00    +0.000 A 
ATOM     16  C   UNL     1       4.384   6.911  17.123  0.00  0.00    +0.000 A 
ATOM     17  C   UNL     1       4.984   5.933  16.363  0.00  0.00    +0.000 A 
ATOM     18  C   UNL     1       4.654   4.608  16.500  0.00  0.00    +0.000 A 
ATOM     19  C   UNL     1       3.699   4.188  17.400  0.00  0.00    +0.000 A 
ATOM     20  C   UNL     1       3.073   5.159  18.199  0.00  0.00    +0.000 A 
ATOM     21 BR   UNL     1       1.768   4.531  19.428  0.00  0.00    +0.000 Br
ATOM     22  O   UNL     1       5.374   3.808  15.668  0.00  0.00    +0.000 OA
ATOM     23  C   UNL     1       6.232   4.779  15.029  0.00  0.00    +0.000 C 
ATOM     24  O   UNL     1       5.945   6.136  15.423  0.00  0.00    +0.000 OA
ENDBRANCH  14  15
ENDBRANCH   3  13
TORSDOF 3
ENDMDL
MODEL 9
REMARK VINA RESULT:      -6.9      1.763      1.908
REMARK  Name = 
REMARK  3 active torsions:
REMARK  status: ('A' for Active; 'I' for Inactive)
REMARK    1  A    between atoms: C_6  and  C_7
REMARK    2  A    between atoms: N_9  and  N_10
REMARK    3  A    between atoms: C_11  and  C_12
REMARK                            x       y       z     vdW  Elec       q    Type
REMARK                         _______ _______ _______ _____ _____    ______ ____
ROOT
ATOM      1  C   UNL     1       1.572  10.315  18.731  0.00  0.00    +0.000 C 
ATOM      2  O   UNL     1       2.246  10.909  17.892  0.00  0.00    +0.000 OA
ATOM      3  N   UNL     1       1.575   8.933  18.914  0.00  0.00    +0.000 N 
ATOM      4  H   UNL     1       1.002   8.531  19.650  0.00  0.00    +0.000 HD
ENDROOT
BRANCH   1  10
ATOM      5  N   UNL     1       2.044  12.957  20.348  0.00  0.00    +0.000 N 
ATOM      6  C   UNL     1       0.918  12.219  20.364  0.00  0.00    +0.000 A 
ATOM      7  N   UNL     1      -0.162  12.520  21.080  0.00  0.00    +0.000 NA
ATOM      8  O   UNL     1      -1.074  11.510  20.815  0.00  0.00    +0.000 OA
ATOM      9  N   UNL     1      -0.552  10.573  19.930  0.00  0.00    +0.000 NA
ATOM     10  C   UNL     1       0.683  11.020  19.646  0.00  0.00    +0.000 A 
ATOM     11  H   UNL     1       2.152  13.724  21.003  0.00  0.00    +0.000 HD
ATOM     12  H   UNL     1       2.912  12.595  19.955  0.00  0.00    +0.000 HD
ENDBRANCH   1  10
BRANCH   3  13
ATOM     13  N   UNL     1       2.362   8.142  18.131  0.00  0.00    +0.000 NA
ATOM     14  C   UNL     1       2.523   6.915  18.514  0.00  0.00    +0.000 C 
BRANCH  14  15
ATOM     15  C   UNL     1       3.389   5.993  17.735  0.00  0.00    +0.000 A 
ATOM     16  C   UNL     1       4.515   6.541  17.099  0.00  0.00    +0.000 A 
ATOM     17  C   UNL     1       5.360   5.692  16.420  0.00  0.00    +0.000 A 
ATOM     18  C   UNL     1       5.119   4.343  16.341  0.00  0.00    +0.000 A 
ATOM     19  C   UNL     1       4.013   3.768  16.930  0.00  0.00    +0.000 A 
ATOM     20  C   UNL     1       3.134   4.604  17.639  0.00  0.00    +0.000 A 
ATOM     21 BR   UNL     1       1.628   3.766  18.437  0.00  0.00    +0.000 Br
ATOM     22  O   UNL     1       6.082   3.687  15.640  0.00  0.00    +0.000 OA
ATOM     23  C   UNL     1       6.985   4.772  15.333  0.00  0.00    +0.000 C 
ATOM     24  O   UNL     1       6.499   6.055  15.774  0.00  0.00    +0.000 OA
ENDBRANCH  14  15
ENDBRANCH   3  13
TORSDOF 3
ENDMDL
