MODEL 1
REMARK VINA RESULT:      -5.0      0.000      0.000
REMARK  Name = 
REMARK  18 active torsions:
REMARK  status: ('A' for Active; 'I' for Inactive)
REMARK    1  A    between atoms: C_1  and  C_2
REMARK    2  A    between atoms: C_2  and  C_3
REMARK    3  A    between atoms: C_2  and  N_4
REMARK    4  A    between atoms: N_4  and  C_5
REMARK    5  A    between atoms: N_4  and  C_17
REMARK    6  A    between atoms: C_5  and  C_6
REMARK    7  A    between atoms: C_6  and  SE_7
REMARK    8  A    between atoms: SE_7  and  C_8
REMARK    9  A    between atoms: C_8  and  C_9
REMARK   10  A    between atoms: C_9  and  N_10
REMARK   11  A    between atoms: N_10  and  C_11
REMARK   12  A    between atoms: N_10  and  C_14
REMARK   13  A    between atoms: C_11  and  C_12
REMARK   14  A    between atoms: C_11  and  C_13
REMARK   15  A    between atoms: C_14  and  C_15
REMARK   16  A    between atoms: C_14  and  C_16
REMARK   17  A    between atoms: C_17  and  C_18
REMARK   18  A    between atoms: C_17  and  C_19
REMARK                            x       y       z     vdW  Elec       q    Type
REMARK                         _______ _______ _______ _____ _____    ______ ____
ROOT
ATOM      1 SE   UNL     1       2.591   7.244  18.678  0.00  0.00    +0.000 Se
ENDROOT
BRANCH   1   2
ATOM      2  C   UNL     1       3.661   5.899  19.634  0.00  0.00    +0.000 C 
BRANCH   2   3
ATOM      3  C   UNL     1       2.769   4.776  20.205  0.00  0.00    +0.000 C 
BRANCH   3   4
ATOM      4  N   UNL     1       2.735   3.531  19.356  0.00  0.00    +0.000 NA
BRANCH   4   6
ATOM      5  C   UNL     1       1.198   2.938  21.300  0.00  0.00    +0.000 C 
ATOM      6  C   UNL     1       1.731   2.527  19.898  0.00  0.00    +0.000 C 
ATOM      7  C   UNL     1       0.455   2.357  19.044  0.00  0.00    +0.000 C 
ENDBRANCH   4   6
BRANCH   4   8
ATOM      8  C   UNL     1       4.132   3.053  18.994  0.00  0.00    +0.000 C 
ATOM      9  C   UNL     1       4.698   1.940  19.907  0.00  0.00    +0.000 C 
ATOM     10  C   UNL     1       4.181   2.419  17.577  0.00  0.00    +0.000 C 
ENDBRANCH   4   8
ENDBRANCH   3   4
ENDBRANCH   2   3
ENDBRANCH   1   2
BRANCH   1  11
ATOM     11  C   UNL     1       3.956   7.436  17.284  0.00  0.00    +0.000 C 
BRANCH  11  12
ATOM     12  C   UNL     1       5.000   6.307  17.342  0.00  0.00    +0.000 C 
BRANCH  12  13
ATOM     13  N   UNL     1       6.292   6.530  16.602  0.00  0.00    +0.000 NA
BRANCH  13  14
ATOM     14  C   UNL     1       7.529   6.783  17.445  0.00  0.00    +0.000 C 
ATOM     15  C   UNL     1       7.808   8.296  17.675  0.00  0.00    +0.000 C 
ATOM     16  C   UNL     1       7.450   6.199  18.877  0.00  0.00    +0.000 C 
ENDBRANCH  13  14
BRANCH  13  17
ATOM     17  C   UNL     1       6.508   5.430  15.581  0.00  0.00    +0.000 C 
ATOM     18  C   UNL     1       7.239   4.197  16.156  0.00  0.00    +0.000 C 
ATOM     19  C   UNL     1       5.226   4.987  14.845  0.00  0.00    +0.000 C 
ENDBRANCH  13  17
ENDBRANCH  12  13
ENDBRANCH  11  12
ENDBRANCH   1  11
TORSDOF 10
ENDMDL
MODEL 2
REMARK VINA RESULT:      -5.0      1.186      5.879
REMARK  Name = 
REMARK  18 active torsions:
REMARK  status: ('A' for Active; 'I' for Inactive)
REMARK    1  A    between atoms: C_1  and  C_2
REMARK    2  A    between atoms: C_2  and  C_3
REMARK    3  A    between atoms: C_2  and  N_4
REMARK    4  A    between atoms: N_4  and  C_5
REMARK    5  A    between atoms: N_4  and  C_17
REMARK    6  A    between atoms: C_5  and  C_6
REMARK    7  A    between atoms: C_6  and  SE_7
REMARK    8  A    between atoms: SE_7  and  C_8
REMARK    9  A    between atoms: C_8  and  C_9
REMARK   10  A    between atoms: C_9  and  N_10
REMARK   11  A    between atoms: N_10  and  C_11
REMARK   12  A    between atoms: N_10  and  C_14
REMARK   13  A    between atoms: C_11  and  C_12
REMARK   14  A    between atoms: C_11  and  C_13
REMARK   15  A    between atoms: C_14  and  C_15
REMARK   16  A    between atoms: C_14  and  C_16
REMARK   17  A    between atoms: C_17  and  C_18
REMARK   18  A    between atoms: C_17  and  C_19
REMARK                            x       y       z     vdW  Elec       q    Type
REMARK                         _______ _______ _______ _____ _____    ______ ____
ROOT
ATOM      1 SE   UNL     1       3.237   6.398  18.917  0.00  0.00    +0.000 Se
ENDROOT
BRANCH   1   2
ATOM      2  C   UNL     1       4.147   7.273  17.409  0.00  0.00    +0.000 C 
BRANCH   2   3
ATOM      3  C   UNL     1       4.769   6.235  16.451  0.00  0.00    +0.000 C 
BRANCH   3   4
ATOM      4  N   UNL     1       6.277   6.228  16.452  0.00  0.00    +0.000 NA
BRANCH   4   6
ATOM      5  C   UNL     1       5.813   3.748  16.097  0.00  0.00    +0.000 C 
ATOM      6  C   UNL     1       6.818   4.919  15.902  0.00  0.00    +0.000 C 
ATOM      7  C   UNL     1       7.108   4.920  14.386  0.00  0.00    +0.000 C 
ENDBRANCH   4   6
BRANCH   4   8
ATOM      8  C   UNL     1       6.845   6.771  17.754  0.00  0.00    +0.000 C 
ATOM      9  C   UNL     1       7.677   5.760  18.575  0.00  0.00    +0.000 C 
ATOM     10  C   UNL     1       7.835   7.943  17.511  0.00  0.00    +0.000 C 
ENDBRANCH   4   8
ENDBRANCH   3   4
ENDBRANCH   2   3
ENDBRANCH   1   2
BRANCH   1  11
ATOM     11  C   UNL     1       2.219   5.233  17.713  0.00  0.00    +0.000 C 
BRANCH  11  12
ATOM     12  C   UNL     1       2.288   3.758  18.145  0.00  0.00    +0.000 C 
BRANCH  12  13
ATOM     13  N   UNL     1       2.815   3.474  19.526  0.00  0.00    +0.000 NA
BRANCH  13  14
ATOM     14  C   UNL     1       1.837   3.632  20.678  0.00  0.00    +0.000 C 
ATOM     15  C   UNL     1       0.351   3.555  20.225  0.00  0.00    +0.000 C 
ATOM     16  C   UNL     1       1.952   2.533  21.762  0.00  0.00    +0.000 C 
ENDBRANCH  13  14
BRANCH  13  17
ATOM     17  C   UNL     1       3.520   2.132  19.553  0.00  0.00    +0.000 C 
ATOM     18  C   UNL     1       3.593   1.450  18.169  0.00  0.00    +0.000 C 
ATOM     19  C   UNL     1       4.922   2.164  20.199  0.00  0.00    +0.000 C 
ENDBRANCH  13  17
ENDBRANCH  12  13
ENDBRANCH  11  12
ENDBRANCH   1  11
TORSDOF 10
ENDMDL
MODEL 3
REMARK VINA RESULT:      -4.9      4.074      6.136
REMARK  Name = 
REMARK  18 active torsions:
REMARK  status: ('A' for Active; 'I' for Inactive)
REMARK    1  A    between atoms: C_1  and  C_2
REMARK    2  A    between atoms: C_2  and  C_3
REMARK    3  A    between atoms: C_2  and  N_4
REMARK    4  A    between atoms: N_4  and  C_5
REMARK    5  A    between atoms: N_4  and  C_17
REMARK    6  A    between atoms: C_5  and  C_6
REMARK    7  A    between atoms: C_6  and  SE_7
REMARK    8  A    between atoms: SE_7  and  C_8
REMARK    9  A    between atoms: C_8  and  C_9
REMARK   10  A    between atoms: C_9  and  N_10
REMARK   11  A    between atoms: N_10  and  C_11
REMARK   12  A    between atoms: N_10  and  C_14
REMARK   13  A    between atoms: C_11  and  C_12
REMARK   14  A    between atoms: C_11  and  C_13
REMARK   15  A    between atoms: C_14  and  C_15
REMARK   16  A    between atoms: C_14  and  C_16
REMARK   17  A    between atoms: C_17  and  C_18
REMARK   18  A    between atoms: C_17  and  C_19
REMARK                            x       y       z     vdW  Elec       q    Type
REMARK                         _______ _______ _______ _____ _____    ______ ____
ROOT
ATOM      1 SE   UNL     1       3.126   7.435  17.840  0.00  0.00    +0.000 Se
ENDROOT
BRANCH   1   2
ATOM      2  C   UNL     1       2.414   6.589  19.466  0.00  0.00    +0.000 C 
BRANCH   2   3
ATOM      3  C   UNL     1       3.288   5.394  19.904  0.00  0.00    +0.000 C 
BRANCH   3   4
ATOM      4  N   UNL     1       3.079   4.149  19.081  0.00  0.00    +0.000 NA
BRANCH   4   6
ATOM      5  C   UNL     1       2.169   3.481  21.366  0.00  0.00    +0.000 C 
ATOM      6  C   UNL     1       2.312   3.097  19.866  0.00  0.00    +0.000 C 
ATOM      7  C   UNL     1       0.860   2.864  19.394  0.00  0.00    +0.000 C 
ENDBRANCH   4   6
BRANCH   4   8
ATOM      8  C   UNL     1       4.343   3.740  18.342  0.00  0.00    +0.000 C 
ATOM      9  C   UNL     1       4.284   3.907  16.806  0.00  0.00    +0.000 C 
ATOM     10  C   UNL     1       5.564   4.606  18.755  0.00  0.00    +0.000 C 
ENDBRANCH   4   8
ENDBRANCH   3   4
ENDBRANCH   2   3
ENDBRANCH   1   2
BRANCH   1  11
ATOM     11  C   UNL     1       1.869   8.932  17.988  0.00  0.00    +0.000 C 
BRANCH  11  12
ATOM     12  C   UNL     1       1.416   9.160  19.440  0.00  0.00    +0.000 C 
BRANCH  12  13
ATOM     13  N   UNL     1       0.482  10.313  19.693  0.00  0.00    +0.000 NA
BRANCH  13  14
ATOM     14  C   UNL     1      -0.292  10.841  18.497  0.00  0.00    +0.000 C 
ATOM     15  C   UNL     1      -1.750  10.302  18.432  0.00  0.00    +0.000 C 
ATOM     16  C   UNL     1      -0.464  12.380  18.482  0.00  0.00    +0.000 C 
ENDBRANCH  13  14
BRANCH  13  17
ATOM     17  C   UNL     1      -0.422  10.009  20.871  0.00  0.00    +0.000 C 
ATOM     18  C   UNL     1      -0.144   8.633  21.517  0.00  0.00    +0.000 C 
ATOM     19  C   UNL     1      -0.441  11.106  21.957  0.00  0.00    +0.000 C 
ENDBRANCH  13  17
ENDBRANCH  12  13
ENDBRANCH  11  12
ENDBRANCH   1  11
TORSDOF 10
ENDMDL
MODEL 4
REMARK VINA RESULT:      -4.8      0.915      5.890
REMARK  Name = 
REMARK  18 active torsions:
REMARK  status: ('A' for Active; 'I' for Inactive)
REMARK    1  A    between atoms: C_1  and  C_2
REMARK    2  A    between atoms: C_2  and  C_3
REMARK    3  A    between atoms: C_2  and  N_4
REMARK    4  A    between atoms: N_4  and  C_5
REMARK    5  A    between atoms: N_4  and  C_17
REMARK    6  A    between atoms: C_5  and  C_6
REMARK    7  A    between atoms: C_6  and  SE_7
REMARK    8  A    between atoms: SE_7  and  C_8
REMARK    9  A    between atoms: C_8  and  C_9
REMARK   10  A    between atoms: C_9  and  N_10
REMARK   11  A    between atoms: N_10  and  C_11
REMARK   12  A    between atoms: N_10  and  C_14
REMARK   13  A    between atoms: C_11  and  C_12
REMARK   14  A    between atoms: C_11  and  C_13
REMARK   15  A    between atoms: C_14  and  C_15
REMARK   16  A    between atoms: C_14  and  C_16
REMARK   17  A    between atoms: C_17  and  C_18
REMARK   18  A    between atoms: C_17  and  C_19
REMARK                            x       y       z     vdW  Elec       q    Type
REMARK                         _______ _______ _______ _____ _____    ______ ____
ROOT
ATOM      1 SE   UNL     1       2.221   7.132  18.223  0.00  0.00    +0.000 Se
ENDROOT
BRANCH   1   2
ATOM      2  C   UNL     1       3.978   7.600  17.475  0.00  0.00    +0.000 C 
BRANCH   2   3
ATOM      3  C   UNL     1       4.935   6.389  17.492  0.00  0.00    +0.000 C 
BRANCH   3   4
ATOM      4  N   UNL     1       6.029   6.459  16.458  0.00  0.00    +0.000 NA
BRANCH   4   6
ATOM      5  C   UNL     1       7.196   4.919  14.797  0.00  0.00    +0.000 C 
ATOM      6  C   UNL     1       5.839   5.397  15.387  0.00  0.00    +0.000 C 
ATOM      7  C   UNL     1       5.158   4.099  15.872  0.00  0.00    +0.000 C 
ENDBRANCH   4   6
BRANCH   4   8
ATOM      8  C   UNL     1       7.400   6.626  17.094  0.00  0.00    +0.000 C 
ATOM      9  C   UNL     1       7.737   8.063  17.553  0.00  0.00    +0.000 C 
ATOM     10  C   UNL     1       7.545   5.786  18.393  0.00  0.00    +0.000 C 
ENDBRANCH   4   8
ENDBRANCH   3   4
ENDBRANCH   2   3
ENDBRANCH   1   2
BRANCH   1  11
ATOM     11  C   UNL     1       2.744   5.257  18.454  0.00  0.00    +0.000 C 
BRANCH  11  12
ATOM     12  C   UNL     1       3.230   4.968  19.885  0.00  0.00    +0.000 C 
BRANCH  12  13
ATOM     13  N   UNL     1       3.131   3.545  20.368  0.00  0.00    +0.000 NA
BRANCH  13  14
ATOM     14  C   UNL     1       1.733   2.968  20.511  0.00  0.00    +0.000 C 
ATOM     15  C   UNL     1       1.474   2.349  21.915  0.00  0.00    +0.000 C 
ATOM     16  C   UNL     1       0.598   4.008  20.349  0.00  0.00    +0.000 C 
ENDBRANCH  13  14
BRANCH  13  17
ATOM     17  C   UNL     1       4.040   2.649  19.550  0.00  0.00    +0.000 C 
ATOM     18  C   UNL     1       4.950   1.748  20.414  0.00  0.00    +0.000 C 
ATOM     19  C   UNL     1       3.306   1.797  18.493  0.00  0.00    +0.000 C 
ENDBRANCH  13  17
ENDBRANCH  12  13
ENDBRANCH  11  12
ENDBRANCH   1  11
TORSDOF 10
ENDMDL
MODEL 5
REMARK VINA RESULT:      -4.8      0.926      2.214
REMARK  Name = 
REMARK  18 active torsions:
REMARK  status: ('A' for Active; 'I' for Inactive)
REMARK    1  A    between atoms: C_1  and  C_2
REMARK    2  A    between atoms: C_2  and  C_3
REMARK    3  A    between atoms: C_2  and  N_4
REMARK    4  A    between atoms: N_4  and  C_5
REMARK    5  A    between atoms: N_4  and  C_17
REMARK    6  A    between atoms: C_5  and  C_6
REMARK    7  A    between atoms: C_6  and  SE_7
REMARK    8  A    between atoms: SE_7  and  C_8
REMARK    9  A    between atoms: C_8  and  C_9
REMARK   10  A    between atoms: C_9  and  N_10
REMARK   11  A    between atoms: N_10  and  C_11
REMARK   12  A    between atoms: N_10  and  C_14
REMARK   13  A    between atoms: C_11  and  C_12
REMARK   14  A    between atoms: C_11  and  C_13
REMARK   15  A    between atoms: C_14  and  C_15
REMARK   16  A    between atoms: C_14  and  C_16
REMARK   17  A    between atoms: C_17  and  C_18
REMARK   18  A    between atoms: C_17  and  C_19
REMARK                            x       y       z     vdW  Elec       q    Type
REMARK                         _______ _______ _______ _____ _____    ______ ____
ROOT
ATOM      1 SE   UNL     1       2.689   7.514  18.311  0.00  0.00    +0.000 Se
ENDROOT
BRANCH   1   2
ATOM      2  C   UNL     1       2.302   6.092  19.612  0.00  0.00    +0.000 C 
BRANCH   2   3
ATOM      3  C   UNL     1       2.029   4.746  18.907  0.00  0.00    +0.000 C 
BRANCH   3   4
ATOM      4  N   UNL     1       2.849   3.599  19.440  0.00  0.00    +0.000 NA
BRANCH   4   6
ATOM      5  C   UNL     1       3.598   1.361  18.479  0.00  0.00    +0.000 C 
ATOM      6  C   UNL     1       3.614   2.908  18.323  0.00  0.00    +0.000 C 
ATOM      7  C   UNL     1       3.056   3.152  16.904  0.00  0.00    +0.000 C 
ENDBRANCH   4   6
BRANCH   4   8
ATOM      8  C   UNL     1       2.063   2.751  20.427  0.00  0.00    +0.000 C 
ATOM      9  C   UNL     1       2.175   3.194  21.904  0.00  0.00    +0.000 C 
ATOM     10  C   UNL     1       0.535   2.800  20.149  0.00  0.00    +0.000 C 
ENDBRANCH   4   8
ENDBRANCH   3   4
ENDBRANCH   2   3
ENDBRANCH   1   2
BRANCH   1  11
ATOM     11  C   UNL     1       4.161   6.486  17.524  0.00  0.00    +0.000 C 
BRANCH  11  12
ATOM     12  C   UNL     1       5.268   7.399  16.970  0.00  0.00    +0.000 C 
BRANCH  12  13
ATOM     13  N   UNL     1       6.538   6.734  16.511  0.00  0.00    +0.000 NA
BRANCH  13  14
ATOM     14  C   UNL     1       7.751   6.879  17.414  0.00  0.00    +0.000 C 
ATOM     15  C   UNL     1       8.073   8.360  17.764  0.00  0.00    +0.000 C 
ATOM     16  C   UNL     1       7.598   6.196  18.795  0.00  0.00    +0.000 C 
ENDBRANCH  13  14
BRANCH  13  17
ATOM     17  C   UNL     1       6.270   5.289  16.139  0.00  0.00    +0.000 C 
ATOM     18  C   UNL     1       5.847   5.104  14.665  0.00  0.00    +0.000 C 
ATOM     19  C   UNL     1       7.422   4.321  16.482  0.00  0.00    +0.000 C 
ENDBRANCH  13  17
ENDBRANCH  12  13
ENDBRANCH  11  12
ENDBRANCH   1  11
TORSDOF 10
ENDMDL
MODEL 6
REMARK VINA RESULT:      -4.7      4.078      6.344
REMARK  Name = 
REMARK  18 active torsions:
REMARK  status: ('A' for Active; 'I' for Inactive)
REMARK    1  A    between atoms: C_1  and  C_2
REMARK    2  A    between atoms: C_2  and  C_3
REMARK    3  A    between atoms: C_2  and  N_4
REMARK    4  A    between atoms: N_4  and  C_5
REMARK    5  A    between atoms: N_4  and  C_17
REMARK    6  A    between atoms: C_5  and  C_6
REMARK    7  A    between atoms: C_6  and  SE_7
REMARK    8  A    between atoms: SE_7  and  C_8
REMARK    9  A    between atoms: C_8  and  C_9
REMARK   10  A    between atoms: C_9  and  N_10
REMARK   11  A    between atoms: N_10  and  C_11
REMARK   12  A    between atoms: N_10  and  C_14
REMARK   13  A    between atoms: C_11  and  C_12
REMARK   14  A    between atoms: C_11  and  C_13
REMARK   15  A    between atoms: C_14  and  C_15
REMARK   16  A    between atoms: C_14  and  C_16
REMARK   17  A    between atoms: C_17  and  C_18
REMARK   18  A    between atoms: C_17  and  C_19
REMARK                            x       y       z     vdW  Elec       q    Type
REMARK                         _______ _______ _______ _____ _____    ______ ____
ROOT
ATOM      1 SE   UNL     1       3.163   7.587  17.840  0.00  0.00    +0.000 Se
ENDROOT
BRANCH   1   2
ATOM      2  C   UNL     1       1.767   8.946  18.103  0.00  0.00    +0.000 C 
BRANCH   2   3
ATOM      3  C   UNL     1       1.364   9.056  19.589  0.00  0.00    +0.000 C 
BRANCH   3   4
ATOM      4  N   UNL     1       0.555  10.285  19.914  0.00  0.00    +0.000 NA
BRANCH   4   6
ATOM      5  C   UNL     1      -0.235   8.596  21.651  0.00  0.00    +0.000 C 
ATOM      6  C   UNL     1      -0.444  10.004  21.025  0.00  0.00    +0.000 C 
ATOM      7  C   UNL     1      -0.368  10.969  22.228  0.00  0.00    +0.000 C 
ENDBRANCH   4   6
BRANCH   4   8
ATOM      8  C   UNL     1       0.079  11.000  18.660  0.00  0.00    +0.000 C 
ATOM      9  C   UNL     1      -1.443  10.925  18.403  0.00  0.00    +0.000 C 
ATOM     10  C   UNL     1       0.363  12.526  18.717  0.00  0.00    +0.000 C 
ENDBRANCH   4   8
ENDBRANCH   3   4
ENDBRANCH   2   3
ENDBRANCH   1   2
BRANCH   1  11
ATOM     11  C   UNL     1       2.571   6.578  19.413  0.00  0.00    +0.000 C 
BRANCH  11  12
ATOM     12  C   UNL     1       3.418   5.314  19.637  0.00  0.00    +0.000 C 
BRANCH  12  13
ATOM     13  N   UNL     1       3.453   4.306  18.519  0.00  0.00    +0.000 NA
BRANCH  13  14
ATOM     14  C   UNL     1       4.808   4.028  17.891  0.00  0.00    +0.000 C 
ATOM     15  C   UNL     1       4.915   4.543  16.427  0.00  0.00    +0.000 C 
ATOM     16  C   UNL     1       5.994   4.713  18.613  0.00  0.00    +0.000 C 
ENDBRANCH  13  14
BRANCH  13  17
ATOM     17  C   UNL     1       2.743   3.033  18.937  0.00  0.00    +0.000 C 
ATOM     18  C   UNL     1       1.228   3.051  18.639  0.00  0.00    +0.000 C 
ATOM     19  C   UNL     1       3.376   1.741  18.377  0.00  0.00    +0.000 C 
ENDBRANCH  13  17
ENDBRANCH  12  13
ENDBRANCH  11  12
ENDBRANCH   1  11
TORSDOF 10
ENDMDL
MODEL 7
REMARK VINA RESULT:      -4.7      3.858      8.464
REMARK  Name = 
REMARK  18 active torsions:
REMARK  status: ('A' for Active; 'I' for Inactive)
REMARK    1  A    between atoms: C_1  and  C_2
REMARK    2  A    between atoms: C_2  and  C_3
REMARK    3  A    between atoms: C_2  and  N_4
REMARK    4  A    between atoms: N_4  and  C_5
REMARK    5  A    between atoms: N_4  and  C_17
REMARK    6  A    between atoms: C_5  and  C_6
REMARK    7  A    between atoms: C_6  and  SE_7
REMARK    8  A    between atoms: SE_7  and  C_8
REMARK    9  A    between atoms: C_8  and  C_9
REMARK   10  A    between atoms: C_9  and  N_10
REMARK   11  A    between atoms: N_10  and  C_11
REMARK   12  A    between atoms: N_10  and  C_14
REMARK   13  A    between atoms: C_11  and  C_12
REMARK   14  A    between atoms: C_11  and  C_13
REMARK   15  A    between atoms: C_14  and  C_15
REMARK   16  A    between atoms: C_14  and  C_16
REMARK   17  A    between atoms: C_17  and  C_18
REMARK   18  A    between atoms: C_17  and  C_19
REMARK                            x       y       z     vdW  Elec       q    Type
REMARK                         _______ _______ _______ _____ _____    ______ ____
ROOT
ATOM      1 SE   UNL     1       7.844   8.323  17.694  0.00  0.00    +0.000 Se
ENDROOT
BRANCH   1   2
ATOM      2  C   UNL     1       8.904   9.417  18.938  0.00  0.00    +0.000 C 
BRANCH   2   3
ATOM      3  C   UNL     1       9.350  10.740  18.279  0.00  0.00    +0.000 C 
BRANCH   3   4
ATOM      4  N   UNL     1       9.175  11.951  19.159  0.00  0.00    +0.000 NA
BRANCH   4   6
ATOM      5  C   UNL     1      10.204  13.303  17.261  0.00  0.00    +0.000 C 
ATOM      6  C   UNL     1       9.077  13.221  18.329  0.00  0.00    +0.000 C 
ATOM      7  C   UNL     1       7.772  13.367  17.516  0.00  0.00    +0.000 C 
ENDBRANCH   4   6
BRANCH   4   8
ATOM      8  C   UNL     1      10.113  11.924  20.355  0.00  0.00    +0.000 C 
ATOM      9  C   UNL     1      11.612  11.785  20.006  0.00  0.00    +0.000 C 
ATOM     10  C   UNL     1      10.051  13.243  21.173  0.00  0.00    +0.000 C 
ENDBRANCH   4   8
ENDBRANCH   3   4
ENDBRANCH   2   3
ENDBRANCH   1   2
BRANCH   1  11
ATOM     11  C   UNL     1       8.092   6.717  18.790  0.00  0.00    +0.000 C 
BRANCH  11  12
ATOM     12  C   UNL     1       7.387   5.492  18.183  0.00  0.00    +0.000 C 
BRANCH  12  13
ATOM     13  N   UNL     1       5.936   5.651  17.813  0.00  0.00    +0.000 NA
BRANCH  13  14
ATOM     14  C   UNL     1       5.550   5.285  16.390  0.00  0.00    +0.000 C 
ATOM     15  C   UNL     1       5.121   6.518  15.543  0.00  0.00    +0.000 C 
ATOM     16  C   UNL     1       6.695   4.649  15.565  0.00  0.00    +0.000 C 
ENDBRANCH  13  14
BRANCH  13  17
ATOM     17  C   UNL     1       5.054   4.968  18.839  0.00  0.00    +0.000 C 
ATOM     18  C   UNL     1       3.849   5.828  19.280  0.00  0.00    +0.000 C 
ATOM     19  C   UNL     1       4.574   3.560  18.427  0.00  0.00    +0.000 C 
ENDBRANCH  13  17
ENDBRANCH  12  13
ENDBRANCH  11  12
ENDBRANCH   1  11
TORSDOF 10
ENDMDL
MODEL 8
REMARK VINA RESULT:      -4.7      1.073      2.996
REMARK  Name = 
REMARK  18 active torsions:
REMARK  status: ('A' for Active; 'I' for Inactive)
REMARK    1  A    between atoms: C_1  and  C_2
REMARK    2  A    between atoms: C_2  and  C_3
REMARK    3  A    between atoms: C_2  and  N_4
REMARK    4  A    between atoms: N_4  and  C_5
REMARK    5  A    between atoms: N_4  and  C_17
REMARK    6  A    between atoms: C_5  and  C_6
REMARK    7  A    between atoms: C_6  and  SE_7
REMARK    8  A    between atoms: SE_7  and  C_8
REMARK    9  A    between atoms: C_8  and  C_9
REMARK   10  A    between atoms: C_9  and  N_10
REMARK   11  A    between atoms: N_10  and  C_11
REMARK   12  A    between atoms: N_10  and  C_14
REMARK   13  A    between atoms: C_11  and  C_12
REMARK   14  A    between atoms: C_11  and  C_13
REMARK   15  A    between atoms: C_14  and  C_15
REMARK   16  A    between atoms: C_14  and  C_16
REMARK   17  A    between atoms: C_17  and  C_18
REMARK   18  A    between atoms: C_17  and  C_19
REMARK                            x       y       z     vdW  Elec       q    Type
REMARK                         _______ _______ _______ _____ _____    ______ ____
ROOT
ATOM      1 SE   UNL     1       3.023   6.903  18.401  0.00  0.00    +0.000 Se
ENDROOT
BRANCH   1   2
ATOM      2  C   UNL     1       4.108   5.739  19.556  0.00  0.00    +0.000 C 
BRANCH   2   3
ATOM      3  C   UNL     1       3.888   4.250  19.215  0.00  0.00    +0.000 C 
BRANCH   3   4
ATOM      4  N   UNL     1       2.525   3.731  19.595  0.00  0.00    +0.000 NA
BRANCH   4   6
ATOM      5  C   UNL     1       4.105   2.165  20.839  0.00  0.00    +0.000 C 
ATOM      6  C   UNL     1       2.632   2.617  20.624  0.00  0.00    +0.000 C 
ATOM      7  C   UNL     1       2.139   2.989  22.039  0.00  0.00    +0.000 C 
ENDBRANCH   4   6
BRANCH   4   8
ATOM      8  C   UNL     1       1.637   3.526  18.379  0.00  0.00    +0.000 C 
ATOM      9  C   UNL     1       2.375   3.070  17.099  0.00  0.00    +0.000 C 
ATOM     10  C   UNL     1       0.585   2.407  18.609  0.00  0.00    +0.000 C 
ENDBRANCH   4   8
ENDBRANCH   3   4
ENDBRANCH   2   3
ENDBRANCH   1   2
BRANCH   1  11
ATOM     11  C   UNL     1       3.982   6.316  16.795  0.00  0.00    +0.000 C 
BRANCH  11  12
ATOM     12  C   UNL     1       5.462   6.733  16.824  0.00  0.00    +0.000 C 
BRANCH  12  13
ATOM     13  N   UNL     1       6.467   5.668  17.176  0.00  0.00    +0.000 NA
BRANCH  13  14
ATOM     14  C   UNL     1       6.850   4.698  16.071  0.00  0.00    +0.000 C 
ATOM     15  C   UNL     1       5.809   3.559  15.876  0.00  0.00    +0.000 C 
ATOM     16  C   UNL     1       6.958   5.346  14.669  0.00  0.00    +0.000 C 
ENDBRANCH  13  14
BRANCH  13  17
ATOM     17  C   UNL     1       7.680   6.289  17.840  0.00  0.00    +0.000 C 
ATOM     18  C   UNL     1       7.729   7.827  17.710  0.00  0.00    +0.000 C 
ATOM     19  C   UNL     1       7.875   5.877  19.315  0.00  0.00    +0.000 C 
ENDBRANCH  13  17
ENDBRANCH  12  13
ENDBRANCH  11  12
ENDBRANCH   1  11
TORSDOF 10
ENDMDL
MODEL 9
REMARK VINA RESULT:      -4.7      4.493      7.056
REMARK  Name = 
REMARK  18 active torsions:
REMARK  status: ('A' for Active; 'I' for Inactive)
REMARK    1  A    between atoms: C_1  and  C_2
REMARK    2  A    between atoms: C_2  and  C_3
REMARK    3  A    between atoms: C_2  and  N_4
REMARK    4  A    between atoms: N_4  and  C_5
REMARK    5  A    between atoms: N_4  and  C_17
REMARK    6  A    between atoms: C_5  and  C_6
REMARK    7  A    between atoms: C_6  and  SE_7
REMARK    8  A    between atoms: SE_7  and  C_8
REMARK    9  A    between atoms: C_8  and  C_9
REMARK   10  A    between atoms: C_9  and  N_10
REMARK   11  A    between atoms: N_10  and  C_11
REMARK   12  A    between atoms: N_10  and  C_14
REMARK   13  A    between atoms: C_11  and  C_12
REMARK   14  A    between atoms: C_11  and  C_13
REMARK   15  A    between atoms: C_14  and  C_15
REMARK   16  A    between atoms: C_14  and  C_16
REMARK   17  A    between atoms: C_17  and  C_18
REMARK   18  A    between atoms: C_17  and  C_19
REMARK                            x       y       z     vdW  Elec       q    Type
REMARK                         _______ _______ _______ _____ _____    ______ ____
ROOT
ATOM      1 SE   UNL     1       2.879   8.255  17.770  0.00  0.00    +0.000 Se
ENDROOT
BRANCH   1   2
ATOM      2  C   UNL     1       1.264   9.370  17.895  0.00  0.00    +0.000 C 
BRANCH   2   3
ATOM      3  C   UNL     1       0.971   9.771  19.356  0.00  0.00    +0.000 C 
BRANCH   3   4
ATOM      4  N   UNL     1      -0.412  10.331  19.571  0.00  0.00    +0.000 NA
BRANCH   4   6
ATOM      5  C   UNL     1      -2.402   9.978  18.019  0.00  0.00    +0.000 C 
ATOM      6  C   UNL     1      -1.055  10.721  18.250  0.00  0.00    +0.000 C 
ATOM      7  C   UNL     1      -1.420  12.216  18.121  0.00  0.00    +0.000 C 
ENDBRANCH   4   6
BRANCH   4   8
ATOM      8  C   UNL     1      -0.451  11.316  20.728  0.00  0.00    +0.000 C 
ATOM      9  C   UNL     1      -0.683  10.681  22.119  0.00  0.00    +0.000 C 
ATOM     10  C   UNL     1       0.896  12.072  20.894  0.00  0.00    +0.000 C 
ENDBRANCH   4   8
ENDBRANCH   3   4
ENDBRANCH   2   3
ENDBRANCH   1   2
BRANCH   1  11
ATOM     11  C   UNL     1       2.385   7.242  19.374  0.00  0.00    +0.000 C 
BRANCH  11  12
ATOM     12  C   UNL     1       2.308   5.730  19.098  0.00  0.00    +0.000 C 
BRANCH  12  13
ATOM     13  N   UNL     1       3.042   4.822  20.048  0.00  0.00    +0.000 NA
BRANCH  13  14
ATOM     14  C   UNL     1       2.192   3.986  20.988  0.00  0.00    +0.000 C 
ATOM     15  C   UNL     1       0.819   3.589  20.373  0.00  0.00    +0.000 C 
ATOM     16  C   UNL     1       2.828   2.630  21.381  0.00  0.00    +0.000 C 
ENDBRANCH  13  14
BRANCH  13  17
ATOM     17  C   UNL     1       4.058   3.985  19.296  0.00  0.00    +0.000 C 
ATOM     18  C   UNL     1       3.568   3.535  17.901  0.00  0.00    +0.000 C 
ATOM     19  C   UNL     1       5.453   4.635  19.180  0.00  0.00    +0.000 C 
ENDBRANCH  13  17
ENDBRANCH  12  13
ENDBRANCH  11  12
ENDBRANCH   1  11
TORSDOF 10
ENDMDL
