MODEL 1
REMARK VINA RESULT:      -8.8      0.000      0.000
REMARK  Name = 
REMARK  0 active torsions:
REMARK  status: ('A' for Active; 'I' for Inactive)
REMARK                            x       y       z     vdW  Elec       q    Type
REMARK                         _______ _______ _______ _____ _____    ______ ____
ROOT
ATOM      1  N   UNL     1       2.846  12.239  17.450  0.00  0.00    +0.000 N 
ATOM      2  C   UNL     1       1.944  12.853  18.346  0.00  0.00    +0.000 A 
ATOM      3  N   UNL     1       0.636  12.521  18.547  0.00  0.00    +0.000 NA
ATOM      4  C   UNL     1      -0.197  13.337  19.276  0.00  0.00    +0.000 A 
ATOM      5  N   UNL     1       0.350  14.566  19.587  0.00  0.00    +0.000 NA
ATOM      6  C   UNL     1       1.687  14.805  19.302  0.00  0.00    +0.000 A 
ATOM      7  N   UNL     1       2.521  13.934  18.797  0.00  0.00    +0.000 NA
ATOM      8  N   UNL     1       2.410  16.025  19.338  0.00  0.00    +0.000 N 
ATOM      9  C   UNL     1       2.074  17.104  18.366  0.00  0.00    +0.000 C 
ATOM     10  C   UNL     1       0.930  18.095  18.004  0.00  0.00    +0.000 C 
ATOM     11  C   UNL     1      -0.365  17.309  18.011  0.00  0.00    +0.000 C 
ATOM     12  C   UNL     1      -1.502  17.942  18.759  0.00  0.00    +0.000 C 
ATOM     13  C   UNL     1      -2.265  16.829  19.473  0.00  0.00    +0.000 C 
ATOM     14  N   UNL     1      -3.073  17.474  20.489  0.00  0.00    +0.000 N 
ATOM     15  C   UNL     1      -4.103  16.646  21.017  0.00  0.00    +0.000 A 
ATOM     16  C   UNL     1      -5.361  16.633  20.375  0.00  0.00    +0.000 A 
ATOM     17  C   UNL     1      -5.639  17.318  19.142  0.00  0.00    +0.000 A 
ATOM     18  C   UNL     1      -6.894  17.274  18.556  0.00  0.00    +0.000 A 
ATOM     19  C   UNL     1      -7.910  16.619  19.217  0.00  0.00    +0.000 A 
ATOM     20  C   UNL     1      -7.648  15.920  20.437  0.00  0.00    +0.000 A 
ATOM     21  C   UNL     1      -6.383  15.940  21.031  0.00  0.00    +0.000 A 
ATOM     22  N   UNL     1      -6.093  15.224  22.184  0.00  0.00    +0.000 NA
ATOM     23  C   UNL     1      -4.821  15.000  22.656  0.00  0.00    +0.000 A 
ATOM     24  C   UNL     1      -4.415  14.000  23.589  0.00  0.00    +0.000 A 
ATOM     25  C   UNL     1      -3.111  13.684  23.904  0.00  0.00    +0.000 A 
ATOM     26  C   UNL     1      -2.095  14.428  23.352  0.00  0.00    +0.000 A 
ATOM     27  C   UNL     1      -2.443  15.485  22.520  0.00  0.00    +0.000 A 
ATOM     28  C   UNL     1      -3.775  15.748  22.099  0.00  0.00    +0.000 A 
ATOM     29  C   UNL     1      -5.367  13.022  24.201  0.00  0.00    +0.000 C 
ATOM     30  O   UNL     1      -4.994  11.881  24.479  0.00  0.00    +0.000 OA
ATOM     31  N   UNL     1      -6.676  13.408  24.317  0.00  0.00    +0.000 N 
ATOM     32  C   UNL     1      -7.574  12.458  23.739  0.00  0.00    +0.000 C 
ATOM     33  C   UNL     1      -7.521  12.614  22.194  0.00  0.00    +0.000 C 
ATOM     34  C   UNL     1      -6.305  11.966  21.249  0.00  0.00    +0.000 C 
ATOM     35  C   UNL     1      -4.974  12.595  20.218  0.00  0.00    +0.000 C 
ATOM     36  C   UNL     1      -3.174  13.045  20.182  0.00  0.00    +0.000 C 
ATOM     37  N   UNL     1      -1.694  13.004  19.197  0.00  0.00    +0.000 N 
ATOM     38  H   UNL     1       3.183  13.022  16.888  0.00  0.00    +0.000 HD
ATOM     39  H   UNL     1       3.686  12.079  18.003  0.00  0.00    +0.000 HD
ATOM     40  H   UNL     1       3.346  15.715  19.067  0.00  0.00    +0.000 HD
ATOM     41  H   UNL     1      -3.500  18.317  20.118  0.00  0.00    +0.000 HD
ATOM     42  H   UNL     1      -6.878  14.377  24.081  0.00  0.00    +0.000 HD
ATOM     43  H   UNL     1      -1.871  13.845  18.636  0.00  0.00    +0.000 HD
ENDROOT
TORSDOF 0
ENDMDL
MODEL 2
REMARK VINA RESULT:      -8.1      9.088     14.012
REMARK  Name = 
REMARK  0 active torsions:
REMARK  status: ('A' for Active; 'I' for Inactive)
REMARK                            x       y       z     vdW  Elec       q    Type
REMARK                         _______ _______ _______ _____ _____    ______ ____
ROOT
ATOM      1  N   UNL     1       2.317  17.000  24.674  0.00  0.00    +0.000 N 
ATOM      2  C   UNL     1       3.663  16.691  24.380  0.00  0.00    +0.000 A 
ATOM      3  N   UNL     1       4.234  16.619  23.143  0.00  0.00    +0.000 NA
ATOM      4  C   UNL     1       5.491  16.087  22.974  0.00  0.00    +0.000 A 
ATOM      5  N   UNL     1       5.998  15.473  24.102  0.00  0.00    +0.000 NA
ATOM      6  C   UNL     1       5.309  15.582  25.302  0.00  0.00    +0.000 A 
ATOM      7  N   UNL     1       4.217  16.275  25.486  0.00  0.00    +0.000 NA
ATOM      8  N   UNL     1       5.513  14.889  26.522  0.00  0.00    +0.000 N 
ATOM      9  C   UNL     1       5.259  13.421  26.581  0.00  0.00    +0.000 C 
ATOM     10  C   UNL     1       5.805  12.074  26.027  0.00  0.00    +0.000 C 
ATOM     11  C   UNL     1       6.036  12.259  24.541  0.00  0.00    +0.000 C 
ATOM     12  C   UNL     1       7.362  11.778  24.028  0.00  0.00    +0.000 C 
ATOM     13  C   UNL     1       7.837  12.770  22.968  0.00  0.00    +0.000 C 
ATOM     14  N   UNL     1       9.256  12.530  22.791  0.00  0.00    +0.000 N 
ATOM     15  C   UNL     1       9.794  13.112  21.609  0.00  0.00    +0.000 A 
ATOM     16  C   UNL     1       9.770  12.364  20.411  0.00  0.00    +0.000 A 
ATOM     17  C   UNL     1       9.124  11.086  20.277  0.00  0.00    +0.000 A 
ATOM     18  C   UNL     1       9.133  10.393  19.078  0.00  0.00    +0.000 A 
ATOM     19  C   UNL     1       9.842  10.913  18.018  0.00  0.00    +0.000 A 
ATOM     20  C   UNL     1      10.479  12.190  18.129  0.00  0.00    +0.000 A 
ATOM     21  C   UNL     1      10.464  12.909  19.327  0.00  0.00    +0.000 A 
ATOM     22  N   UNL     1      11.026  14.173  19.442  0.00  0.00    +0.000 NA
ATOM     23  C   UNL     1      10.813  15.022  20.502  0.00  0.00    +0.000 A 
ATOM     24  C   UNL     1      11.037  16.429  20.533  0.00  0.00    +0.000 A 
ATOM     25  C   UNL     1      10.646  17.279  21.547  0.00  0.00    +0.000 A 
ATOM     26  C   UNL     1      10.061  16.745  22.671  0.00  0.00    +0.000 A 
ATOM     27  C   UNL     1       9.918  15.365  22.736  0.00  0.00    +0.000 A 
ATOM     28  C   UNL     1      10.213  14.493  21.653  0.00  0.00    +0.000 A 
ATOM     29  C   UNL     1      11.556  17.199  19.360  0.00  0.00    +0.000 C 
ATOM     30  O   UNL     1      11.197  18.362  19.169  0.00  0.00    +0.000 OA
ATOM     31  N   UNL     1      12.333  16.521  18.459  0.00  0.00    +0.000 N 
ATOM     32  C   UNL     1      11.855  16.659  17.119  0.00  0.00    +0.000 C 
ATOM     33  C   UNL     1      10.613  15.742  16.947  0.00  0.00    +0.000 C 
ATOM     34  C   UNL     1       9.086  16.157  17.483  0.00  0.00    +0.000 C 
ATOM     35  C   UNL     1       7.931  15.567  18.728  0.00  0.00    +0.000 C 
ATOM     36  C   UNL     1       7.342  15.798  20.472  0.00  0.00    +0.000 C 
ATOM     37  N   UNL     1       5.906  15.805  21.523  0.00  0.00    +0.000 N 
ATOM     38  H   UNL     1       2.015  16.205  25.239  0.00  0.00    +0.000 HD
ATOM     39  H   UNL     1       2.371  17.697  25.415  0.00  0.00    +0.000 HD
ATOM     40  H   UNL     1       4.788  15.301  27.114  0.00  0.00    +0.000 HD
ATOM     41  H   UNL     1       9.446  11.533  22.772  0.00  0.00    +0.000 HD
ATOM     42  H   UNL     1      12.592  15.571  18.718  0.00  0.00    +0.000 HD
ATOM     43  H   UNL     1       5.837  14.794  21.678  0.00  0.00    +0.000 HD
ENDROOT
TORSDOF 0
ENDMDL
MODEL 3
REMARK VINA RESULT:      -8.0      1.040      1.222
REMARK  Name = 
REMARK  0 active torsions:
REMARK  status: ('A' for Active; 'I' for Inactive)
REMARK                            x       y       z     vdW  Elec       q    Type
REMARK                         _______ _______ _______ _____ _____    ______ ____
ROOT
ATOM      1  N   UNL     1       2.021  10.395  17.405  0.00  0.00    +0.000 N 
ATOM      2  C   UNL     1       1.336  11.186  18.353  0.00  0.00    +0.000 A 
ATOM      3  N   UNL     1      -0.014  11.248  18.545  0.00  0.00    +0.000 NA
ATOM      4  C   UNL     1      -0.571  12.221  19.340  0.00  0.00    +0.000 A 
ATOM      5  N   UNL     1       0.316  13.204  19.732  0.00  0.00    +0.000 NA
ATOM      6  C   UNL     1       1.666  13.051  19.449  0.00  0.00    +0.000 A 
ATOM      7  N   UNL     1       2.205  12.009  18.873  0.00  0.00    +0.000 NA
ATOM      8  N   UNL     1       2.721  13.992  19.563  0.00  0.00    +0.000 N 
ATOM      9  C   UNL     1       2.733  15.189  18.675  0.00  0.00    +0.000 C 
ATOM     10  C   UNL     1       1.943  16.501  18.398  0.00  0.00    +0.000 C 
ATOM     11  C   UNL     1       0.471  16.141  18.364  0.00  0.00    +0.000 C 
ATOM     12  C   UNL     1      -0.431  17.031  19.169  0.00  0.00    +0.000 C 
ATOM     13  C   UNL     1      -1.499  16.148  19.811  0.00  0.00    +0.000 C 
ATOM     14  N   UNL     1      -2.087  16.932  20.880  0.00  0.00    +0.000 N 
ATOM     15  C   UNL     1      -3.323  16.415  21.360  0.00  0.00    +0.000 A 
ATOM     16  C   UNL     1      -4.521  16.825  20.734  0.00  0.00    +0.000 A 
ATOM     17  C   UNL     1      -4.568  17.649  19.556  0.00  0.00    +0.000 A 
ATOM     18  C   UNL     1      -5.773  18.025  18.983  0.00  0.00    +0.000 A 
ATOM     19  C   UNL     1      -6.944  17.659  19.608  0.00  0.00    +0.000 A 
ATOM     20  C   UNL     1      -6.916  16.828  20.772  0.00  0.00    +0.000 A 
ATOM     21  C   UNL     1      -5.710  16.426  21.351  0.00  0.00    +0.000 A 
ATOM     22  N   UNL     1      -5.659  15.575  22.446  0.00  0.00    +0.000 NA
ATOM     23  C   UNL     1      -4.518  14.946  22.886  0.00  0.00    +0.000 A 
ATOM     24  C   UNL     1      -4.440  13.807  23.739  0.00  0.00    +0.000 A 
ATOM     25  C   UNL     1      -3.293  13.093  24.016  0.00  0.00    +0.000 A 
ATOM     26  C   UNL     1      -2.096  13.536  23.507  0.00  0.00    +0.000 A 
ATOM     27  C   UNL     1      -2.102  14.705  22.756  0.00  0.00    +0.000 A 
ATOM     28  C   UNL     1      -3.290  15.385  22.371  0.00  0.00    +0.000 A 
ATOM     29  C   UNL     1      -5.647  13.118  24.292  0.00  0.00    +0.000 C 
ATOM     30  O   UNL     1      -5.636  11.901  24.483  0.00  0.00    +0.000 OA
ATOM     31  N   UNL     1      -6.781  13.869  24.450  0.00  0.00    +0.000 N 
ATOM     32  C   UNL     1      -7.917  13.276  23.817  0.00  0.00    +0.000 C 
ATOM     33  C   UNL     1      -7.804  13.519  22.286  0.00  0.00    +0.000 C 
ATOM     34  C   UNL     1      -6.828  12.606  21.283  0.00  0.00    +0.000 C 
ATOM     35  C   UNL     1      -5.360  12.879  20.284  0.00  0.00    +0.000 C 
ATOM     36  C   UNL     1      -3.508  12.770  20.259  0.00  0.00    +0.000 C 
ATOM     37  N   UNL     1      -2.098  12.359  19.255  0.00  0.00    +0.000 N 
ATOM     38  H   UNL     1       2.583  11.080  16.896  0.00  0.00    +0.000 HD
ATOM     39  H   UNL     1       2.769   9.951  17.935  0.00  0.00    +0.000 HD
ATOM     40  H   UNL     1       3.523  13.436  19.259  0.00  0.00    +0.000 HD
ATOM     41  H   UNL     1      -2.238  17.889  20.575  0.00  0.00    +0.000 HD
ATOM     42  H   UNL     1      -6.682  14.868  24.286  0.00  0.00    +0.000 HD
ATOM     43  H   UNL     1      -2.010  13.252  18.759  0.00  0.00    +0.000 HD
ENDROOT
TORSDOF 0
ENDMDL
MODEL 4
REMARK VINA RESULT:      -7.2      3.084      5.263
REMARK  Name = 
REMARK  0 active torsions:
REMARK  status: ('A' for Active; 'I' for Inactive)
REMARK                            x       y       z     vdW  Elec       q    Type
REMARK                         _______ _______ _______ _____ _____    ______ ____
ROOT
ATOM      1  N   UNL     1       1.639   7.990  20.347  0.00  0.00    +0.000 N 
ATOM      2  C   UNL     1       1.060   9.276  20.282  0.00  0.00    +0.000 A 
ATOM      3  N   UNL     1       0.616  10.028  21.330  0.00  0.00    +0.000 NA
ATOM      4  C   UNL     1      -0.134  11.161  21.120  0.00  0.00    +0.000 A 
ATOM      5  N   UNL     1      -0.545  11.329  19.814  0.00  0.00    +0.000 NA
ATOM      6  C   UNL     1      -0.056  10.478  18.833  0.00  0.00    +0.000 A 
ATOM      7  N   UNL     1       0.826   9.533  19.023  0.00  0.00    +0.000 NA
ATOM      8  N   UNL     1      -0.474  10.322  17.487  0.00  0.00    +0.000 N 
ATOM      9  C   UNL     1      -1.829   9.771  17.201  0.00  0.00    +0.000 C 
ATOM     10  C   UNL     1      -3.337  10.123  17.354  0.00  0.00    +0.000 C 
ATOM     11  C   UNL     1      -3.537  10.642  18.764  0.00  0.00    +0.000 C 
ATOM     12  C   UNL     1      -4.328  11.912  18.879  0.00  0.00    +0.000 C 
ATOM     13  C   UNL     1      -3.694  12.755  19.984  0.00  0.00    +0.000 C 
ATOM     14  N   UNL     1      -4.190  14.105  19.804  0.00  0.00    +0.000 N 
ATOM     15  C   UNL     1      -3.989  14.947  20.933  0.00  0.00    +0.000 A 
ATOM     16  C   UNL     1      -4.978  14.982  21.941  0.00  0.00    +0.000 A 
ATOM     17  C   UNL     1      -6.133  14.126  21.960  0.00  0.00    +0.000 A 
ATOM     18  C   UNL     1      -7.075  14.204  22.973  0.00  0.00    +0.000 A 
ATOM     19  C   UNL     1      -6.931  15.177  23.937  0.00  0.00    +0.000 A 
ATOM     20  C   UNL     1      -5.780  16.028  23.941  0.00  0.00    +0.000 A 
ATOM     21  C   UNL     1      -4.813  15.950  22.936  0.00  0.00    +0.000 A 
ATOM     22  N   UNL     1      -3.663  16.727  22.950  0.00  0.00    +0.000 NA
ATOM     23  C   UNL     1      -2.571  16.507  22.144  0.00  0.00    +0.000 A 
ATOM     24  C   UNL     1      -1.248  17.001  22.339  0.00  0.00    +0.000 A 
ATOM     25  C   UNL     1      -0.138  16.619  21.615  0.00  0.00    +0.000 A 
ATOM     26  C   UNL     1      -0.299  15.751  20.561  0.00  0.00    +0.000 A 
ATOM     27  C   UNL     1      -1.587  15.324  20.262  0.00  0.00    +0.000 A 
ATOM     28  C   UNL     1      -2.719  15.622  21.068  0.00  0.00    +0.000 A 
ATOM     29  C   UNL     1      -0.860  17.862  23.500  0.00  0.00    +0.000 C 
ATOM     30  O   UNL     1       0.270  17.783  23.984  0.00  0.00    +0.000 OA
ATOM     31  N   UNL     1      -1.842  18.631  24.065  0.00  0.00    +0.000 N 
ATOM     32  C   UNL     1      -1.940  18.432  25.477  0.00  0.00    +0.000 C 
ATOM     33  C   UNL     1      -2.662  17.080  25.730  0.00  0.00    +0.000 C 
ATOM     34  C   UNL     1      -1.897  15.598  25.623  0.00  0.00    +0.000 C 
ATOM     35  C   UNL     1      -1.995  14.149  24.565  0.00  0.00    +0.000 C 
ATOM     36  C   UNL     1      -1.279  13.323  23.065  0.00  0.00    +0.000 C 
ATOM     37  N   UNL     1      -0.803  11.758  22.367  0.00  0.00    +0.000 N 
ATOM     38  H   UNL     1       1.053   7.439  19.717  0.00  0.00    +0.000 HD
ATOM     39  H   UNL     1       2.470   8.054  19.761  0.00  0.00    +0.000 HD
ATOM     40  H   UNL     1       0.173   9.603  17.155  0.00  0.00    +0.000 HD
ATOM     41  H   UNL     1      -5.183  14.091  19.589  0.00  0.00    +0.000 HD
ATOM     42  H   UNL     1      -2.736  18.644  23.579  0.00  0.00    +0.000 HD
ATOM     43  H   UNL     1      -1.727  11.460  22.037  0.00  0.00    +0.000 HD
ENDROOT
TORSDOF 0
ENDMDL
MODEL 5
REMARK VINA RESULT:      -7.2      7.160     12.665
REMARK  Name = 
REMARK  0 active torsions:
REMARK  status: ('A' for Active; 'I' for Inactive)
REMARK                            x       y       z     vdW  Elec       q    Type
REMARK                         _______ _______ _______ _____ _____    ______ ____
ROOT
ATOM      1  N   UNL     1       0.215  17.125  17.647  0.00  0.00    +0.000 N 
ATOM      2  C   UNL     1       1.541  17.163  18.131  0.00  0.00    +0.000 A 
ATOM      3  N   UNL     1       2.556  16.311  17.806  0.00  0.00    +0.000 NA
ATOM      4  C   UNL     1       3.734  16.312  18.515  0.00  0.00    +0.000 A 
ATOM      5  N   UNL     1       3.701  17.080  19.661  0.00  0.00    +0.000 NA
ATOM      6  C   UNL     1       2.596  17.883  19.908  0.00  0.00    +0.000 A 
ATOM      7  N   UNL     1       1.572  18.027  19.109  0.00  0.00    +0.000 NA
ATOM      8  N   UNL     1       2.243  18.589  21.086  0.00  0.00    +0.000 N 
ATOM      9  C   UNL     1       1.887  17.828  22.317  0.00  0.00    +0.000 C 
ATOM     10  C   UNL     1       2.517  16.887  23.384  0.00  0.00    +0.000 C 
ATOM     11  C   UNL     1       3.339  15.853  22.642  0.00  0.00    +0.000 C 
ATOM     12  C   UNL     1       4.723  15.623  23.176  0.00  0.00    +0.000 C 
ATOM     13  C   UNL     1       5.651  15.411  21.982  0.00  0.00    +0.000 C 
ATOM     14  N   UNL     1       7.001  15.602  22.475  0.00  0.00    +0.000 N 
ATOM     15  C   UNL     1       8.009  15.108  21.600  0.00  0.00    +0.000 A 
ATOM     16  C   UNL     1       8.418  13.762  21.725  0.00  0.00    +0.000 A 
ATOM     17  C   UNL     1       7.795  12.813  22.608  0.00  0.00    +0.000 A 
ATOM     18  C   UNL     1       8.239  11.504  22.694  0.00  0.00    +0.000 A 
ATOM     19  C   UNL     1       9.349  11.133  21.967  0.00  0.00    +0.000 A 
ATOM     20  C   UNL     1       9.972  12.060  21.072  0.00  0.00    +0.000 A 
ATOM     21  C   UNL     1       9.525  13.379  20.963  0.00  0.00    +0.000 A 
ATOM     22  N   UNL     1      10.079  14.278  20.062  0.00  0.00    +0.000 NA
ATOM     23  C   UNL     1       9.515  15.487  19.729  0.00  0.00    +0.000 A 
ATOM     24  C   UNL     1       9.803  16.282  18.581  0.00  0.00    +0.000 A 
ATOM     25  C   UNL     1       9.096  17.397  18.183  0.00  0.00    +0.000 A 
ATOM     26  C   UNL     1       8.073  17.853  18.980  0.00  0.00    +0.000 A 
ATOM     27  C   UNL     1       7.822  17.175  20.167  0.00  0.00    +0.000 A 
ATOM     28  C   UNL     1       8.468  15.962  20.530  0.00  0.00    +0.000 A 
ATOM     29  C   UNL     1      10.803  15.882  17.542  0.00  0.00    +0.000 C 
ATOM     30  O   UNL     1      10.631  16.190  16.362  0.00  0.00    +0.000 OA
ATOM     31  N   UNL     1      11.828  15.066  17.939  0.00  0.00    +0.000 N 
ATOM     32  C   UNL     1      11.941  13.900  17.120  0.00  0.00    +0.000 C 
ATOM     33  C   UNL     1      10.814  12.910  17.523  0.00  0.00    +0.000 C 
ATOM     34  C   UNL     1       9.233  13.061  17.005  0.00  0.00    +0.000 C 
ATOM     35  C   UNL     1       7.637  13.404  17.757  0.00  0.00    +0.000 C 
ATOM     36  C   UNL     1       6.412  14.739  18.158  0.00  0.00    +0.000 C 
ATOM     37  N   UNL     1       4.679  15.133  18.239  0.00  0.00    +0.000 N 
ATOM     38  H   UNL     1      -0.343  17.090  18.501  0.00  0.00    +0.000 HD
ATOM     39  H   UNL     1       0.014  18.086  17.376  0.00  0.00    +0.000 HD
ATOM     40  H   UNL     1       1.371  19.040  20.799  0.00  0.00    +0.000 HD
ATOM     41  H   UNL     1       7.114  15.153  23.378  0.00  0.00    +0.000 HD
ATOM     42  H   UNL     1      11.895  14.887  18.939  0.00  0.00    +0.000 HD
ATOM     43  H   UNL     1       4.484  14.735  19.164  0.00  0.00    +0.000 HD
ENDROOT
TORSDOF 0
ENDMDL
MODEL 6
REMARK VINA RESULT:      -6.9      8.912     11.956
REMARK  Name = 
REMARK  0 active torsions:
REMARK  status: ('A' for Active; 'I' for Inactive)
REMARK                            x       y       z     vdW  Elec       q    Type
REMARK                         _______ _______ _______ _____ _____    ______ ____
ROOT
ATOM      1  N   UNL     1       3.757  15.425  17.196  0.00  0.00    +0.000 N 
ATOM      2  C   UNL     1       4.667  15.032  18.201  0.00  0.00    +0.000 A 
ATOM      3  N   UNL     1       4.472  15.092  19.550  0.00  0.00    +0.000 NA
ATOM      4  C   UNL     1       5.514  14.896  20.425  0.00  0.00    +0.000 A 
ATOM      5  N   UNL     1       6.754  14.846  19.821  0.00  0.00    +0.000 NA
ATOM      6  C   UNL     1       6.834  14.828  18.435  0.00  0.00    +0.000 A 
ATOM      7  N   UNL     1       5.813  14.802  17.620  0.00  0.00    +0.000 NA
ATOM      8  N   UNL     1       7.967  14.981  17.598  0.00  0.00    +0.000 N 
ATOM      9  C   UNL     1       8.678  16.290  17.559  0.00  0.00    +0.000 C 
ATOM     10  C   UNL     1       9.540  17.228  18.454  0.00  0.00    +0.000 C 
ATOM     11  C   UNL     1       8.851  17.321  19.801  0.00  0.00    +0.000 C 
ATOM     12  C   UNL     1       9.739  17.133  20.996  0.00  0.00    +0.000 C 
ATOM     13  C   UNL     1       8.954  16.338  22.037  0.00  0.00    +0.000 C 
ATOM     14  N   UNL     1       9.929  15.821  22.978  0.00  0.00    +0.000 N 
ATOM     15  C   UNL     1       9.362  15.355  24.196  0.00  0.00    +0.000 A 
ATOM     16  C   UNL     1       9.188  16.269  25.258  0.00  0.00    +0.000 A 
ATOM     17  C   UNL     1       9.439  17.681  25.151  0.00  0.00    +0.000 A 
ATOM     18  C   UNL     1       9.254  18.534  26.227  0.00  0.00    +0.000 A 
ATOM     19  C   UNL     1       8.893  17.996  27.442  0.00  0.00    +0.000 A 
ATOM     20  C   UNL     1       8.625  16.596  27.564  0.00  0.00    +0.000 A 
ATOM     21  C   UNL     1       8.791  15.726  26.484  0.00  0.00    +0.000 A 
ATOM     22  N   UNL     1       8.484  14.375  26.565  0.00  0.00    +0.000 NA
ATOM     23  C   UNL     1       8.377  13.538  25.478  0.00  0.00    +0.000 A 
ATOM     24  C   UNL     1       7.726  12.272  25.431  0.00  0.00    +0.000 A 
ATOM     25  C   UNL     1       7.480  11.541  24.287  0.00  0.00    +0.000 A 
ATOM     26  C   UNL     1       7.960  12.007  23.086  0.00  0.00    +0.000 A 
ATOM     27  C   UNL     1       8.697  13.186  23.094  0.00  0.00    +0.000 A 
ATOM     28  C   UNL     1       8.859  14.002  24.246  0.00  0.00    +0.000 A 
ATOM     29  C   UNL     1       7.042  11.661  26.613  0.00  0.00    +0.000 C 
ATOM     30  O   UNL     1       6.042  10.957  26.460  0.00  0.00    +0.000 OA
ATOM     31  N   UNL     1       7.495  12.020  27.854  0.00  0.00    +0.000 N 
ATOM     32  C   UNL     1       6.444  12.492  28.700  0.00  0.00    +0.000 C 
ATOM     33  C   UNL     1       6.080  13.938  28.264  0.00  0.00    +0.000 C 
ATOM     34  C   UNL     1       5.110  14.281  26.947  0.00  0.00    +0.000 C 
ATOM     35  C   UNL     1       5.311  15.067  25.343  0.00  0.00    +0.000 C 
ATOM     36  C   UNL     1       5.653  14.763  23.545  0.00  0.00    +0.000 C 
ATOM     37  N   UNL     1       5.232  15.261  21.890  0.00  0.00    +0.000 N 
ATOM     38  H   UNL     1       4.298  16.090  16.641  0.00  0.00    +0.000 HD
ATOM     39  H   UNL     1       3.755  14.648  16.536  0.00  0.00    +0.000 HD
ATOM     40  H   UNL     1       7.549  14.886  16.670  0.00  0.00    +0.000 HD
ATOM     41  H   UNL     1      10.619  16.532  23.197  0.00  0.00    +0.000 HD
ATOM     42  H   UNL     1       8.340  12.587  27.875  0.00  0.00    +0.000 HD
ATOM     43  H   UNL     1       5.848  16.079  21.825  0.00  0.00    +0.000 HD
ENDROOT
TORSDOF 0
ENDMDL
MODEL 7
REMARK VINA RESULT:      -6.8      2.815      8.548
REMARK  Name = 
REMARK  0 active torsions:
REMARK  status: ('A' for Active; 'I' for Inactive)
REMARK                            x       y       z     vdW  Elec       q    Type
REMARK                         _______ _______ _______ _____ _____    ______ ____
ROOT
ATOM      1  N   UNL     1      -7.272  18.213  21.309  0.00  0.00    +0.000 N 
ATOM      2  C   UNL     1      -5.978  17.747  21.628  0.00  0.00    +0.000 A 
ATOM      3  N   UNL     1      -4.914  17.641  20.779  0.00  0.00    +0.000 NA
ATOM      4  C   UNL     1      -3.778  16.962  21.151  0.00  0.00    +0.000 A 
ATOM      5  N   UNL     1      -3.905  16.257  22.331  0.00  0.00    +0.000 NA
ATOM      6  C   UNL     1      -5.051  16.415  23.097  0.00  0.00    +0.000 A 
ATOM      7  N   UNL     1      -6.034  17.233  22.826  0.00  0.00    +0.000 NA
ATOM      8  N   UNL     1      -5.496  15.666  24.215  0.00  0.00    +0.000 N 
ATOM      9  C   UNL     1      -5.891  14.241  24.032  0.00  0.00    +0.000 C 
ATOM     10  C   UNL     1      -5.285  12.853  23.674  0.00  0.00    +0.000 C 
ATOM     11  C   UNL     1      -4.384  13.051  22.472  0.00  0.00    +0.000 C 
ATOM     12  C   UNL     1      -3.025  12.424  22.572  0.00  0.00    +0.000 C 
ATOM     13  C   UNL     1      -2.024  13.380  21.927  0.00  0.00    +0.000 C 
ATOM     14  N   UNL     1      -0.711  12.971  22.388  0.00  0.00    +0.000 N 
ATOM     15  C   UNL     1       0.361  13.516  21.628  0.00  0.00    +0.000 A 
ATOM     16  C   UNL     1       0.814  12.813  20.490  0.00  0.00    +0.000 A 
ATOM     17  C   UNL     1       0.180  11.629  19.974  0.00  0.00    +0.000 A 
ATOM     18  C   UNL     1       0.668  10.976  18.854  0.00  0.00    +0.000 A 
ATOM     19  C   UNL     1       1.830  11.435  18.274  0.00  0.00    +0.000 A 
ATOM     20  C   UNL     1       2.466  12.619  18.766  0.00  0.00    +0.000 A 
ATOM     21  C   UNL     1       1.976  13.299  19.884  0.00  0.00    +0.000 A 
ATOM     22  N   UNL     1       2.544  14.479  20.343  0.00  0.00    +0.000 NA
ATOM     23  C   UNL     1       1.954  15.316  21.261  0.00  0.00    +0.000 A 
ATOM     24  C   UNL     1       2.274  16.683  21.506  0.00  0.00    +0.000 A 
ATOM     25  C   UNL     1       1.549  17.544  22.302  0.00  0.00    +0.000 A 
ATOM     26  C   UNL     1       0.466  17.055  22.993  0.00  0.00    +0.000 A 
ATOM     27  C   UNL     1       0.175  15.701  22.872  0.00  0.00    +0.000 A 
ATOM     28  C   UNL     1       0.846  14.832  21.970  0.00  0.00    +0.000 A 
ATOM     29  C   UNL     1       3.345  17.416  20.761  0.00  0.00    +0.000 C 
ATOM     30  O   UNL     1       3.227  18.620  20.526  0.00  0.00    +0.000 OA
ATOM     31  N   UNL     1       4.377  16.674  20.253  0.00  0.00    +0.000 N 
ATOM     32  C   UNL     1       4.580  16.910  18.858  0.00  0.00    +0.000 C 
ATOM     33  C   UNL     1       3.471  16.160  18.070  0.00  0.00    +0.000 C 
ATOM     34  C   UNL     1       1.916  16.746  17.894  0.00  0.00    +0.000 C 
ATOM     35  C   UNL     1       0.269  16.268  18.431  0.00  0.00    +0.000 C 
ATOM     36  C   UNL     1      -1.026  16.519  19.735  0.00  0.00    +0.000 C 
ATOM     37  N   UNL     1      -2.775  16.674  20.025  0.00  0.00    +0.000 N 
ATOM     38  H   UNL     1      -7.875  17.445  21.609  0.00  0.00    +0.000 HD
ATOM     39  H   UNL     1      -7.494  18.876  22.050  0.00  0.00    +0.000 HD
ATOM     40  H   UNL     1      -6.367  16.148  24.450  0.00  0.00    +0.000 HD
ATOM     41  H   UNL     1      -0.632  11.959  22.374  0.00  0.00    +0.000 HD
ATOM     42  H   UNL     1       4.395  15.692  20.521  0.00  0.00    +0.000 HD
ATOM     43  H   UNL     1      -3.006  15.675  20.048  0.00  0.00    +0.000 HD
ENDROOT
TORSDOF 0
ENDMDL
MODEL 8
REMARK VINA RESULT:      -6.7      3.780      7.372
REMARK  Name = 
REMARK  0 active torsions:
REMARK  status: ('A' for Active; 'I' for Inactive)
REMARK                            x       y       z     vdW  Elec       q    Type
REMARK                         _______ _______ _______ _____ _____    ______ ____
ROOT
ATOM      1  N   UNL     1       8.366  18.060  23.593  0.00  0.00    +0.000 N 
ATOM      2  C   UNL     1       7.297  17.909  22.684  0.00  0.00    +0.000 A 
ATOM      3  N   UNL     1       6.113  17.270  22.911  0.00  0.00    +0.000 NA
ATOM      4  C   UNL     1       5.249  16.992  21.877  0.00  0.00    +0.000 A 
ATOM      5  N   UNL     1       5.777  17.229  20.624  0.00  0.00    +0.000 NA
ATOM      6  C   UNL     1       7.011  17.855  20.514  0.00  0.00    +0.000 A 
ATOM      7  N   UNL     1       7.723  18.303  21.515  0.00  0.00    +0.000 NA
ATOM      8  N   UNL     1       7.837  18.021  19.374  0.00  0.00    +0.000 N 
ATOM      9  C   UNL     1       8.458  16.824  18.739  0.00  0.00    +0.000 C 
ATOM     10  C   UNL     1       8.078  15.536  17.953  0.00  0.00    +0.000 C 
ATOM     11  C   UNL     1       6.908  14.897  18.674  0.00  0.00    +0.000 C 
ATOM     12  C   UNL     1       5.760  14.481  17.801  0.00  0.00    +0.000 C 
ATOM     13  C   UNL     1       4.469  14.778  18.561  0.00  0.00    +0.000 C 
ATOM     14  N   UNL     1       3.403  14.763  17.578  0.00  0.00    +0.000 N 
ATOM     15  C   UNL     1       2.101  14.674  18.143  0.00  0.00    +0.000 A 
ATOM     16  C   UNL     1       1.554  13.396  18.392  0.00  0.00    +0.000 A 
ATOM     17  C   UNL     1       2.280  12.166  18.221  0.00  0.00    +0.000 A 
ATOM     18  C   UNL     1       1.693  10.937  18.478  0.00  0.00    +0.000 A 
ATOM     19  C   UNL     1       0.363  10.901  18.832  0.00  0.00    +0.000 A 
ATOM     20  C   UNL     1      -0.371  12.115  19.021  0.00  0.00    +0.000 A 
ATOM     21  C   UNL     1       0.212  13.362  18.783  0.00  0.00    +0.000 A 
ATOM     22  N   UNL     1      -0.463  14.553  19.013  0.00  0.00    +0.000 NA
ATOM     23  C   UNL     1       0.139  15.789  19.048  0.00  0.00    +0.000 A 
ATOM     24  C   UNL     1      -0.386  16.983  19.624  0.00  0.00    +0.000 A 
ATOM     25  C   UNL     1       0.313  18.158  19.802  0.00  0.00    +0.000 A 
ATOM     26  C   UNL     1       1.599  18.245  19.325  0.00  0.00    +0.000 A 
ATOM     27  C   UNL     1       2.120  17.143  18.658  0.00  0.00    +0.000 A 
ATOM     28  C   UNL     1       1.452  15.891  18.568  0.00  0.00    +0.000 A 
ATOM     29  C   UNL     1      -1.721  17.046  20.296  0.00  0.00    +0.000 C 
ATOM     30  O   UNL     1      -1.903  17.805  21.250  0.00  0.00    +0.000 OA
ATOM     31  N   UNL     1      -2.671  16.147  19.890  0.00  0.00    +0.000 N 
ATOM     32  C   UNL     1      -3.225  15.414  20.985  0.00  0.00    +0.000 C 
ATOM     33  C   UNL     1      -2.195  14.336  21.422  0.00  0.00    +0.000 C 
ATOM     34  C   UNL     1      -0.870  14.673  22.383  0.00  0.00    +0.000 C 
ATOM     35  C   UNL     1       0.918  14.670  22.193  0.00  0.00    +0.000 C 
ATOM     36  C   UNL     1       2.396  15.719  21.796  0.00  0.00    +0.000 C 
ATOM     37  N   UNL     1       4.097  16.033  22.210  0.00  0.00    +0.000 N 
ATOM     38  H   UNL     1       9.162  17.678  23.081  0.00  0.00    +0.000 HD
ATOM     39  H   UNL     1       8.612  19.047  23.537  0.00  0.00    +0.000 HD
ATOM     40  H   UNL     1       8.623  18.543  19.767  0.00  0.00    +0.000 HD
ATOM     41  H   UNL     1       3.527  13.987  16.935  0.00  0.00    +0.000 HD
ATOM     42  H   UNL     1      -2.431  15.578  19.081  0.00  0.00    +0.000 HD
ATOM     43  H   UNL     1       4.523  15.293  21.642  0.00  0.00    +0.000 HD
ENDROOT
TORSDOF 0
ENDMDL
MODEL 9
REMARK VINA RESULT:      -6.6      8.388     11.406
REMARK  Name = 
REMARK  0 active torsions:
REMARK  status: ('A' for Active; 'I' for Inactive)
REMARK                            x       y       z     vdW  Elec       q    Type
REMARK                         _______ _______ _______ _____ _____    ______ ____
ROOT
ATOM      1  N   UNL     1      10.959  15.696  16.592  0.00  0.00    +0.000 N 
ATOM      2  C   UNL     1       9.911  15.395  17.489  0.00  0.00    +0.000 A 
ATOM      3  N   UNL     1       9.595  16.067  18.633  0.00  0.00    +0.000 NA
ATOM      4  C   UNL     1       8.700  15.544  19.537  0.00  0.00    +0.000 A 
ATOM      5  N   UNL     1       8.337  14.238  19.276  0.00  0.00    +0.000 NA
ATOM      6  C   UNL     1       8.748  13.642  18.092  0.00  0.00    +0.000 A 
ATOM      7  N   UNL     1       9.427  14.233  17.144  0.00  0.00    +0.000 NA
ATOM      8  N   UNL     1       8.678  12.282  17.698  0.00  0.00    +0.000 N 
ATOM      9  C   UNL     1       9.496  11.267  18.421  0.00  0.00    +0.000 C 
ATOM     10  C   UNL     1       9.627  10.585  19.814  0.00  0.00    +0.000 C 
ATOM     11  C   UNL     1       9.549  11.679  20.859  0.00  0.00    +0.000 C 
ATOM     12  C   UNL     1       8.619  11.412  22.006  0.00  0.00    +0.000 C 
ATOM     13  C   UNL     1       7.933  12.729  22.364  0.00  0.00    +0.000 C 
ATOM     14  N   UNL     1       6.773  12.382  23.163  0.00  0.00    +0.000 N 
ATOM     15  C   UNL     1       6.214  13.481  23.872  0.00  0.00    +0.000 A 
ATOM     16  C   UNL     1       6.706  13.779  25.162  0.00  0.00    +0.000 A 
ATOM     17  C   UNL     1       7.827  13.111  25.766  0.00  0.00    +0.000 A 
ATOM     18  C   UNL     1       8.267  13.442  27.038  0.00  0.00    +0.000 A 
ATOM     19  C   UNL     1       7.562  14.379  27.759  0.00  0.00    +0.000 A 
ATOM     20  C   UNL     1       6.452  15.063  27.169  0.00  0.00    +0.000 A 
ATOM     21  C   UNL     1       6.007  14.753  25.881  0.00  0.00    +0.000 A 
ATOM     22  N   UNL     1       4.969  15.441  25.268  0.00  0.00    +0.000 NA
ATOM     23  C   UNL     1       4.670  15.358  23.929  0.00  0.00    +0.000 A 
ATOM     24  C   UNL     1       3.890  16.275  23.165  0.00  0.00    +0.000 A 
ATOM     25  C   UNL     1       3.758  16.262  21.793  0.00  0.00    +0.000 A 
ATOM     26  C   UNL     1       4.348  15.246  21.079  0.00  0.00    +0.000 A 
ATOM     27  C   UNL     1       5.029  14.264  21.788  0.00  0.00    +0.000 A 
ATOM     28  C   UNL     1       5.267  14.329  23.188  0.00  0.00    +0.000 A 
ATOM     29  C   UNL     1       3.270  17.505  23.751  0.00  0.00    +0.000 C 
ATOM     30  O   UNL     1       3.148  18.525  23.072  0.00  0.00    +0.000 OA
ATOM     31  N   UNL     1       2.970  17.479  25.087  0.00  0.00    +0.000 N 
ATOM     32  C   UNL     1       3.530  18.591  25.789  0.00  0.00    +0.000 C 
ATOM     33  C   UNL     1       5.049  18.328  25.986  0.00  0.00    +0.000 C 
ATOM     34  C   UNL     1       6.184  18.576  24.786  0.00  0.00    +0.000 C 
ATOM     35  C   UNL     1       7.295  17.559  23.806  0.00  0.00    +0.000 C 
ATOM     36  C   UNL     1       7.492  16.656  22.197  0.00  0.00    +0.000 C 
ATOM     37  N   UNL     1       8.640  16.248  20.900  0.00  0.00    +0.000 N 
ATOM     38  H   UNL     1      11.478  14.817  16.539  0.00  0.00    +0.000 HD
ATOM     39  H   UNL     1      10.524  15.668  15.672  0.00  0.00    +0.000 HD
ATOM     40  H   UNL     1       9.083  12.320  16.760  0.00  0.00    +0.000 HD
ATOM     41  H   UNL     1       7.010  11.656  23.832  0.00  0.00    +0.000 HD
ATOM     42  H   UNL     1       3.086  16.583  25.555  0.00  0.00    +0.000 HD
ATOM     43  H   UNL     1       9.093  15.448  21.356  0.00  0.00    +0.000 HD
ENDROOT
TORSDOF 0
ENDMDL
