MODEL 1
REMARK VINA RESULT:      -6.7      0.000      0.000
REMARK  Name = 
REMARK  8 active torsions:
REMARK  status: ('A' for Active; 'I' for Inactive)
REMARK    1  A    between atoms: C_1  and  O_2
REMARK    2  A    between atoms: O_2  and  C_3
REMARK    3  A    between atoms: C_6  and  S_7
REMARK    4  A    between atoms: S_7  and  C_8
REMARK    5  A    between atoms: N_11  and  C_12
REMARK    6  A    between atoms: N_11  and  C_13
REMARK    7  A    between atoms: C_16  and  O_17
REMARK    8  A    between atoms: O_17  and  C_18
REMARK                            x       y       z     vdW  Elec       q    Type
REMARK                         _______ _______ _______ _____ _____    ______ ____
ROOT
ATOM      1  C   UNL     1       5.275   3.982  16.990  0.00  0.00    +0.000 A 
ATOM      2  N   UNL     1       5.350   3.900  15.640  0.00  0.00    +0.000 NA
ATOM      3  C   UNL     1       6.427   4.365  14.997  0.00  0.00    +0.000 A 
ATOM      4  N   UNL     1       6.436   4.358  13.621  0.00  0.00    +0.000 N 
ATOM      5  C   UNL     1       5.349   3.745  12.885  0.00  0.00    +0.000 C 
ATOM      6  C   UNL     1       7.647   4.678  12.896  0.00  0.00    +0.000 C 
ATOM      7  N   UNL     1       7.462   4.892  15.657  0.00  0.00    +0.000 NA
ATOM      8  C   UNL     1       7.369   4.967  17.000  0.00  0.00    +0.000 A 
ATOM      9  C   UNL     1       6.299   4.523  17.749  0.00  0.00    +0.000 A 
ENDROOT
BRANCH   9  10
ATOM     10  O   UNL     1       6.406   4.769  19.081  0.00  0.00    +0.000 OA
ATOM     11  C   UNL     1       7.452   5.618  19.530  0.00  0.00    +0.000 C 
ENDBRANCH   9  10
BRANCH   1  12
ATOM     12  S   UNL     1       3.716   3.418  17.681  0.00  0.00    +0.000 S 
BRANCH  12  16
ATOM     13  C   UNL     1       2.045   7.088  19.890  0.00  0.00    +0.000 A 
ATOM     14  C   UNL     1       2.657   7.236  18.642  0.00  0.00    +0.000 A 
ATOM     15  C   UNL     1       3.171   6.123  17.963  0.00  0.00    +0.000 A 
ATOM     16  C   UNL     1       3.097   4.852  18.542  0.00  0.00    +0.000 A 
ATOM     17  C   UNL     1       2.501   4.710  19.799  0.00  0.00    +0.000 A 
ATOM     18  C   UNL     1       1.980   5.823  20.472  0.00  0.00    +0.000 A 
BRANCH  13  20
ATOM     19  C   UNL     1       1.136   9.247  19.570  0.00  0.00    +0.000 C 
ATOM     20  O   UNL     1       1.600   8.244  20.468  0.00  0.00    +0.000 OA
ENDBRANCH  13  20
ENDBRANCH  12  16
ENDBRANCH   1  12
TORSDOF 4
ENDMDL
MODEL 2
REMARK VINA RESULT:      -6.7      0.201      1.096
REMARK  Name = 
REMARK  8 active torsions:
REMARK  status: ('A' for Active; 'I' for Inactive)
REMARK    1  A    between atoms: C_1  and  O_2
REMARK    2  A    between atoms: O_2  and  C_3
REMARK    3  A    between atoms: C_6  and  S_7
REMARK    4  A    between atoms: S_7  and  C_8
REMARK    5  A    between atoms: N_11  and  C_12
REMARK    6  A    between atoms: N_11  and  C_13
REMARK    7  A    between atoms: C_16  and  O_17
REMARK    8  A    between atoms: O_17  and  C_18
REMARK                            x       y       z     vdW  Elec       q    Type
REMARK                         _______ _______ _______ _____ _____    ______ ____
ROOT
ATOM      1  C   UNL     1       5.381   4.051  17.147  0.00  0.00    +0.000 A 
ATOM      2  N   UNL     1       5.460   3.949  15.799  0.00  0.00    +0.000 NA
ATOM      3  C   UNL     1       6.499   4.480  15.143  0.00  0.00    +0.000 A 
ATOM      4  N   UNL     1       6.506   4.447  13.768  0.00  0.00    +0.000 N 
ATOM      5  C   UNL     1       5.465   3.742  13.047  0.00  0.00    +0.000 C 
ATOM      6  C   UNL     1       7.689   4.841  13.033  0.00  0.00    +0.000 C 
ATOM      7  N   UNL     1       7.493   5.095  15.790  0.00  0.00    +0.000 NA
ATOM      8  C   UNL     1       7.397   5.189  17.132  0.00  0.00    +0.000 A 
ATOM      9  C   UNL     1       6.364   4.681  17.893  0.00  0.00    +0.000 A 
ENDROOT
BRANCH   9  10
ATOM     10  O   UNL     1       6.455   4.961  19.220  0.00  0.00    +0.000 OA
ATOM     11  C   UNL     1       7.629   5.601  19.697  0.00  0.00    +0.000 C 
ENDBRANCH   9  10
BRANCH   1  12
ATOM     12  S   UNL     1       3.870   3.388  17.853  0.00  0.00    +0.000 S 
BRANCH  12  16
ATOM     13  C   UNL     1       2.028   7.057  19.924  0.00  0.00    +0.000 A 
ATOM     14  C   UNL     1       1.981   5.803  20.540  0.00  0.00    +0.000 A 
ATOM     15  C   UNL     1       2.538   4.680  19.916  0.00  0.00    +0.000 A 
ATOM     16  C   UNL     1       3.126   4.799  18.653  0.00  0.00    +0.000 A 
ATOM     17  C   UNL     1       3.156   6.052  18.030  0.00  0.00    +0.000 A 
ATOM     18  C   UNL     1       2.607   7.175  18.661  0.00  0.00    +0.000 A 
BRANCH  13  20
ATOM     19  C   UNL     1       1.101   9.231  19.854  0.00  0.00    +0.000 C 
ATOM     20  O   UNL     1       1.435   8.076  20.616  0.00  0.00    +0.000 OA
ENDBRANCH  13  20
ENDBRANCH  12  16
ENDBRANCH   1  12
TORSDOF 4
ENDMDL
MODEL 3
REMARK VINA RESULT:      -6.5      2.596      4.065
REMARK  Name = 
REMARK  8 active torsions:
REMARK  status: ('A' for Active; 'I' for Inactive)
REMARK    1  A    between atoms: C_1  and  O_2
REMARK    2  A    between atoms: O_2  and  C_3
REMARK    3  A    between atoms: C_6  and  S_7
REMARK    4  A    between atoms: S_7  and  C_8
REMARK    5  A    between atoms: N_11  and  C_12
REMARK    6  A    between atoms: N_11  and  C_13
REMARK    7  A    between atoms: C_16  and  O_17
REMARK    8  A    between atoms: O_17  and  C_18
REMARK                            x       y       z     vdW  Elec       q    Type
REMARK                         _______ _______ _______ _____ _____    ______ ____
ROOT
ATOM      1  C   UNL     1       3.177   4.878  19.048  0.00  0.00    +0.000 A 
ATOM      2  N   UNL     1       4.503   5.151  19.043  0.00  0.00    +0.000 NA
ATOM      3  C   UNL     1       5.295   4.629  18.099  0.00  0.00    +0.000 A 
ATOM      4  N   UNL     1       6.652   4.843  18.174  0.00  0.00    +0.000 N 
ATOM      5  C   UNL     1       7.200   5.720  19.189  0.00  0.00    +0.000 C 
ATOM      6  C   UNL     1       7.516   4.454  17.079  0.00  0.00    +0.000 C 
ATOM      7  N   UNL     1       4.806   3.854  17.127  0.00  0.00    +0.000 NA
ATOM      8  C   UNL     1       3.483   3.592  17.148  0.00  0.00    +0.000 A 
ATOM      9  C   UNL     1       2.591   4.077  18.082  0.00  0.00    +0.000 A 
ENDROOT
BRANCH   9  10
ATOM     10  O   UNL     1       1.321   3.617  17.935  0.00  0.00    +0.000 OA
ATOM     11  C   UNL     1       0.924   2.475  18.679  0.00  0.00    +0.000 C 
ENDBRANCH   9  10
BRANCH   1  12
ATOM     12  S   UNL     1       2.284   5.563  20.446  0.00  0.00    +0.000 S 
BRANCH  12  16
ATOM     13  C   UNL     1       1.224   9.831  19.104  0.00  0.00    +0.000 A 
ATOM     14  C   UNL     1       1.893   8.965  18.234  0.00  0.00    +0.000 A 
ATOM     15  C   UNL     1       2.222   7.664  18.635  0.00  0.00    +0.000 A 
ATOM     16  C   UNL     1       1.904   7.227  19.925  0.00  0.00    +0.000 A 
ATOM     17  C   UNL     1       1.251   8.102  20.800  0.00  0.00    +0.000 A 
ATOM     18  C   UNL     1       0.916   9.399  20.392  0.00  0.00    +0.000 A 
BRANCH  13  20
ATOM     19  C   UNL     1       0.017  11.852  19.332  0.00  0.00    +0.000 C 
ATOM     20  O   UNL     1       0.975  11.082  18.612  0.00  0.00    +0.000 OA
ENDBRANCH  13  20
ENDBRANCH  12  16
ENDBRANCH   1  12
TORSDOF 4
ENDMDL
MODEL 4
REMARK VINA RESULT:      -6.5      2.586      4.150
REMARK  Name = 
REMARK  8 active torsions:
REMARK  status: ('A' for Active; 'I' for Inactive)
REMARK    1  A    between atoms: C_1  and  O_2
REMARK    2  A    between atoms: O_2  and  C_3
REMARK    3  A    between atoms: C_6  and  S_7
REMARK    4  A    between atoms: S_7  and  C_8
REMARK    5  A    between atoms: N_11  and  C_12
REMARK    6  A    between atoms: N_11  and  C_13
REMARK    7  A    between atoms: C_16  and  O_17
REMARK    8  A    between atoms: O_17  and  C_18
REMARK                            x       y       z     vdW  Elec       q    Type
REMARK                         _______ _______ _______ _____ _____    ______ ____
ROOT
ATOM      1  C   UNL     1       3.207   4.915  19.025  0.00  0.00    +0.000 A 
ATOM      2  N   UNL     1       4.536   5.177  19.019  0.00  0.00    +0.000 NA
ATOM      3  C   UNL     1       5.323   4.644  18.078  0.00  0.00    +0.000 A 
ATOM      4  N   UNL     1       6.682   4.847  18.151  0.00  0.00    +0.000 N 
ATOM      5  C   UNL     1       7.237   5.723  19.163  0.00  0.00    +0.000 C 
ATOM      6  C   UNL     1       7.542   4.447  17.058  0.00  0.00    +0.000 C 
ATOM      7  N   UNL     1       4.827   3.870  17.108  0.00  0.00    +0.000 NA
ATOM      8  C   UNL     1       3.502   3.619  17.129  0.00  0.00    +0.000 A 
ATOM      9  C   UNL     1       2.615   4.115  18.061  0.00  0.00    +0.000 A 
ENDROOT
BRANCH   9  10
ATOM     10  O   UNL     1       1.340   3.666  17.916  0.00  0.00    +0.000 OA
ATOM     11  C   UNL     1       0.936   2.525  18.658  0.00  0.00    +0.000 C 
ENDBRANCH   9  10
BRANCH   1  12
ATOM     12  S   UNL     1       2.320   5.613  20.420  0.00  0.00    +0.000 S 
BRANCH  12  16
ATOM     13  C   UNL     1       1.278   9.854  18.982  0.00  0.00    +0.000 A 
ATOM     14  C   UNL     1       0.931   9.443  20.272  0.00  0.00    +0.000 A 
ATOM     15  C   UNL     1       1.243   8.152  20.718  0.00  0.00    +0.000 A 
ATOM     16  C   UNL     1       1.885   7.251  19.863  0.00  0.00    +0.000 A 
ATOM     17  C   UNL     1       2.214   7.659  18.566  0.00  0.00    +0.000 A 
ATOM     18  C   UNL     1       1.909   8.954  18.126  0.00  0.00    +0.000 A 
BRANCH  13  20
ATOM     19  C   UNL     1      -0.439  11.480  18.963  0.00  0.00    +0.000 C 
ATOM     20  O   UNL     1       0.905  11.127  18.650  0.00  0.00    +0.000 OA
ENDBRANCH  13  20
ENDBRANCH  12  16
ENDBRANCH   1  12
TORSDOF 4
ENDMDL
MODEL 5
REMARK VINA RESULT:      -6.4      2.812      6.203
REMARK  Name = 
REMARK  8 active torsions:
REMARK  status: ('A' for Active; 'I' for Inactive)
REMARK    1  A    between atoms: C_1  and  O_2
REMARK    2  A    between atoms: O_2  and  C_3
REMARK    3  A    between atoms: C_6  and  S_7
REMARK    4  A    between atoms: S_7  and  C_8
REMARK    5  A    between atoms: N_11  and  C_12
REMARK    6  A    between atoms: N_11  and  C_13
REMARK    7  A    between atoms: C_16  and  O_17
REMARK    8  A    between atoms: O_17  and  C_18
REMARK                            x       y       z     vdW  Elec       q    Type
REMARK                         _______ _______ _______ _____ _____    ______ ____
ROOT
ATOM      1  C   UNL     1       3.343   4.715  19.830  0.00  0.00    +0.000 A 
ATOM      2  N   UNL     1       3.401   5.778  18.993  0.00  0.00    +0.000 NA
ATOM      3  C   UNL     1       2.566   6.811  19.157  0.00  0.00    +0.000 A 
ATOM      4  N   UNL     1       2.580   7.833  18.237  0.00  0.00    +0.000 N 
ATOM      5  C   UNL     1       3.566   7.848  17.174  0.00  0.00    +0.000 C 
ATOM      6  C   UNL     1       1.830   9.047  18.479  0.00  0.00    +0.000 C 
ATOM      7  N   UNL     1       1.680   6.840  20.157  0.00  0.00    +0.000 NA
ATOM      8  C   UNL     1       1.635   5.773  20.980  0.00  0.00    +0.000 A 
ATOM      9  C   UNL     1       2.447   4.661  20.885  0.00  0.00    +0.000 A 
ENDROOT
BRANCH   9  10
ATOM     10  O   UNL     1       2.168   3.684  21.787  0.00  0.00    +0.000 OA
ATOM     11  C   UNL     1       1.313   2.622  21.391  0.00  0.00    +0.000 C 
ENDBRANCH   9  10
BRANCH   1  12
ATOM     12  S   UNL     1       4.451   3.370  19.397  0.00  0.00    +0.000 S 
BRANCH  12  16
ATOM     13  C   UNL     1       6.787   4.928  15.756  0.00  0.00    +0.000 A 
ATOM     14  C   UNL     1       7.277   5.137  17.048  0.00  0.00    +0.000 A 
ATOM     15  C   UNL     1       6.571   4.667  18.164  0.00  0.00    +0.000 A 
ATOM     16  C   UNL     1       5.351   4.004  17.993  0.00  0.00    +0.000 A 
ATOM     17  C   UNL     1       4.854   3.814  16.700  0.00  0.00    +0.000 A 
ATOM     18  C   UNL     1       5.567   4.277  15.586  0.00  0.00    +0.000 A 
BRANCH  13  20
ATOM     19  C   UNL     1       7.334   4.887  13.456  0.00  0.00    +0.000 C 
ATOM     20  O   UNL     1       7.548   5.449  14.747  0.00  0.00    +0.000 OA
ENDBRANCH  13  20
ENDBRANCH  12  16
ENDBRANCH   1  12
TORSDOF 4
ENDMDL
MODEL 6
REMARK VINA RESULT:      -6.2      2.832      6.181
REMARK  Name = 
REMARK  8 active torsions:
REMARK  status: ('A' for Active; 'I' for Inactive)
REMARK    1  A    between atoms: C_1  and  O_2
REMARK    2  A    between atoms: O_2  and  C_3
REMARK    3  A    between atoms: C_6  and  S_7
REMARK    4  A    between atoms: S_7  and  C_8
REMARK    5  A    between atoms: N_11  and  C_12
REMARK    6  A    between atoms: N_11  and  C_13
REMARK    7  A    between atoms: C_16  and  O_17
REMARK    8  A    between atoms: O_17  and  C_18
REMARK                            x       y       z     vdW  Elec       q    Type
REMARK                         _______ _______ _______ _____ _____    ______ ____
ROOT
ATOM      1  C   UNL     1       3.393   4.724  19.825  0.00  0.00    +0.000 A 
ATOM      2  N   UNL     1       3.434   5.787  18.988  0.00  0.00    +0.000 NA
ATOM      3  C   UNL     1       2.581   6.805  19.150  0.00  0.00    +0.000 A 
ATOM      4  N   UNL     1       2.579   7.827  18.229  0.00  0.00    +0.000 N 
ATOM      5  C   UNL     1       3.567   7.860  17.170  0.00  0.00    +0.000 C 
ATOM      6  C   UNL     1       1.806   9.027  18.469  0.00  0.00    +0.000 C 
ATOM      7  N   UNL     1       1.691   6.819  20.147  0.00  0.00    +0.000 NA
ATOM      8  C   UNL     1       1.663   5.751  20.970  0.00  0.00    +0.000 A 
ATOM      9  C   UNL     1       2.496   4.654  20.877  0.00  0.00    +0.000 A 
ENDROOT
BRANCH   9  10
ATOM     10  O   UNL     1       2.231   3.672  21.779  0.00  0.00    +0.000 OA
ATOM     11  C   UNL     1       1.335   2.636  21.408  0.00  0.00    +0.000 C 
ENDBRANCH   9  10
BRANCH   1  12
ATOM     12  S   UNL     1       4.527   3.399  19.396  0.00  0.00    +0.000 S 
BRANCH  12  16
ATOM     13  C   UNL     1       6.562   5.002  15.597  0.00  0.00    +0.000 A 
ATOM     14  C   UNL     1       5.312   4.382  15.518  0.00  0.00    +0.000 A 
ATOM     15  C   UNL     1       4.685   3.889  16.670  0.00  0.00    +0.000 A 
ATOM     16  C   UNL     1       5.320   3.992  17.912  0.00  0.00    +0.000 A 
ATOM     17  C   UNL     1       6.579   4.596  17.985  0.00  0.00    +0.000 A 
ATOM     18  C   UNL     1       7.199   5.096  16.833  0.00  0.00    +0.000 A 
BRANCH  13  20
ATOM     19  C   UNL     1       7.018   4.491  13.334  0.00  0.00    +0.000 C 
ATOM     20  O   UNL     1       7.085   5.425  14.407  0.00  0.00    +0.000 OA
ENDBRANCH  13  20
ENDBRANCH  12  16
ENDBRANCH   1  12
TORSDOF 4
ENDMDL
MODEL 7
REMARK VINA RESULT:      -6.2      2.974      6.697
REMARK  Name = 
REMARK  8 active torsions:
REMARK  status: ('A' for Active; 'I' for Inactive)
REMARK    1  A    between atoms: C_1  and  O_2
REMARK    2  A    between atoms: O_2  and  C_3
REMARK    3  A    between atoms: C_6  and  S_7
REMARK    4  A    between atoms: S_7  and  C_8
REMARK    5  A    between atoms: N_11  and  C_12
REMARK    6  A    between atoms: N_11  and  C_13
REMARK    7  A    between atoms: C_16  and  O_17
REMARK    8  A    between atoms: O_17  and  C_18
REMARK                            x       y       z     vdW  Elec       q    Type
REMARK                         _______ _______ _______ _____ _____    ______ ____
ROOT
ATOM      1  C   UNL     1       4.552   5.520  18.457  0.00  0.00    +0.000 A 
ATOM      2  N   UNL     1       4.370   4.399  19.195  0.00  0.00    +0.000 NA
ATOM      3  C   UNL     1       3.175   4.136  19.737  0.00  0.00    +0.000 A 
ATOM      4  N   UNL     1       3.043   3.043  20.560  0.00  0.00    +0.000 N 
ATOM      5  C   UNL     1       4.148   2.123  20.741  0.00  0.00    +0.000 C 
ATOM      6  C   UNL     1       1.733   2.622  21.013  0.00  0.00    +0.000 C 
ATOM      7  N   UNL     1       2.129   4.945  19.547  0.00  0.00    +0.000 NA
ATOM      8  C   UNL     1       2.328   6.057  18.811  0.00  0.00    +0.000 A 
ATOM      9  C   UNL     1       3.523   6.416  18.220  0.00  0.00    +0.000 A 
ENDROOT
BRANCH   9  10
ATOM     10  O   UNL     1       3.496   7.617  17.585  0.00  0.00    +0.000 OA
ATOM     11  C   UNL     1       2.421   8.503  17.860  0.00  0.00    +0.000 C 
ENDBRANCH   9  10
BRANCH   1  12
ATOM     12  S   UNL     1       6.241   5.776  17.903  0.00  0.00    +0.000 S 
BRANCH  12  16
ATOM     13  C   UNL     1       6.270   4.010  13.658  0.00  0.00    +0.000 A 
ATOM     14  C   UNL     1       5.241   3.688  14.548  0.00  0.00    +0.000 A 
ATOM     15  C   UNL     1       5.225   4.221  15.844  0.00  0.00    +0.000 A 
ATOM     16  C   UNL     1       6.258   5.062  16.269  0.00  0.00    +0.000 A 
ATOM     17  C   UNL     1       7.296   5.368  15.383  0.00  0.00    +0.000 A 
ATOM     18  C   UNL     1       7.305   4.841  14.084  0.00  0.00    +0.000 A 
BRANCH  13  20
ATOM     19  C   UNL     1       4.883   3.286  11.885  0.00  0.00    +0.000 C 
ATOM     20  O   UNL     1       6.193   3.416  12.430  0.00  0.00    +0.000 OA
ENDBRANCH  13  20
ENDBRANCH  12  16
ENDBRANCH   1  12
TORSDOF 4
ENDMDL
MODEL 8
REMARK VINA RESULT:      -6.1      2.977      6.651
REMARK  Name = 
REMARK  8 active torsions:
REMARK  status: ('A' for Active; 'I' for Inactive)
REMARK    1  A    between atoms: C_1  and  O_2
REMARK    2  A    between atoms: O_2  and  C_3
REMARK    3  A    between atoms: C_6  and  S_7
REMARK    4  A    between atoms: S_7  and  C_8
REMARK    5  A    between atoms: N_11  and  C_12
REMARK    6  A    between atoms: N_11  and  C_13
REMARK    7  A    between atoms: C_16  and  O_17
REMARK    8  A    between atoms: O_17  and  C_18
REMARK                            x       y       z     vdW  Elec       q    Type
REMARK                         _______ _______ _______ _____ _____    ______ ____
ROOT
ATOM      1  C   UNL     1       4.491   5.596  18.581  0.00  0.00    +0.000 A 
ATOM      2  N   UNL     1       4.310   4.456  19.290  0.00  0.00    +0.000 NA
ATOM      3  C   UNL     1       3.118   4.185  19.835  0.00  0.00    +0.000 A 
ATOM      4  N   UNL     1       2.987   3.070  20.630  0.00  0.00    +0.000 N 
ATOM      5  C   UNL     1       4.090   2.140  20.775  0.00  0.00    +0.000 C 
ATOM      6  C   UNL     1       1.680   2.643  21.083  0.00  0.00    +0.000 C 
ATOM      7  N   UNL     1       2.074   5.003  19.676  0.00  0.00    +0.000 NA
ATOM      8  C   UNL     1       2.273   6.134  18.969  0.00  0.00    +0.000 A 
ATOM      9  C   UNL     1       3.464   6.503  18.378  0.00  0.00    +0.000 A 
ENDROOT
BRANCH   9  10
ATOM     10  O   UNL     1       3.438   7.721  17.776  0.00  0.00    +0.000 OA
ATOM     11  C   UNL     1       2.239   8.480  17.838  0.00  0.00    +0.000 C 
ENDBRANCH   9  10
BRANCH   1  12
ATOM     12  S   UNL     1       6.175   5.859  18.019  0.00  0.00    +0.000 S 
BRANCH  12  16
ATOM     13  C   UNL     1       6.192   4.007  13.811  0.00  0.00    +0.000 A 
ATOM     14  C   UNL     1       7.285   4.759  14.254  0.00  0.00    +0.000 A 
ATOM     15  C   UNL     1       7.287   5.328  15.534  0.00  0.00    +0.000 A 
ATOM     16  C   UNL     1       6.180   5.170  16.374  0.00  0.00    +0.000 A 
ATOM     17  C   UNL     1       5.081   4.433  15.921  0.00  0.00    +0.000 A 
ATOM     18  C   UNL     1       5.085   3.857  14.644  0.00  0.00    +0.000 A 
BRANCH  13  20
ATOM     19  C   UNL     1       5.060   3.195  11.900  0.00  0.00    +0.000 C 
ATOM     20  O   UNL     1       6.292   3.519  12.538  0.00  0.00    +0.000 OA
ENDBRANCH  13  20
ENDBRANCH  12  16
ENDBRANCH   1  12
TORSDOF 4
ENDMDL
MODEL 9
REMARK VINA RESULT:      -5.8      2.232      3.685
REMARK  Name = 
REMARK  8 active torsions:
REMARK  status: ('A' for Active; 'I' for Inactive)
REMARK    1  A    between atoms: C_1  and  O_2
REMARK    2  A    between atoms: O_2  and  C_3
REMARK    3  A    between atoms: C_6  and  S_7
REMARK    4  A    between atoms: S_7  and  C_8
REMARK    5  A    between atoms: N_11  and  C_12
REMARK    6  A    between atoms: N_11  and  C_13
REMARK    7  A    between atoms: C_16  and  O_17
REMARK    8  A    between atoms: O_17  and  C_18
REMARK                            x       y       z     vdW  Elec       q    Type
REMARK                         _______ _______ _______ _____ _____    ______ ____
ROOT
ATOM      1  C   UNL     1       3.514   4.581  18.908  0.00  0.00    +0.000 A 
ATOM      2  N   UNL     1       4.511   5.287  18.326  0.00  0.00    +0.000 NA
ATOM      3  C   UNL     1       5.184   4.774  17.289  0.00  0.00    +0.000 A 
ATOM      4  N   UNL     1       6.255   5.470  16.778  0.00  0.00    +0.000 N 
ATOM      5  C   UNL     1       6.574   6.793  17.277  0.00  0.00    +0.000 C 
ATOM      6  C   UNL     1       6.887   5.041  15.549  0.00  0.00    +0.000 C 
ATOM      7  N   UNL     1       4.878   3.576  16.782  0.00  0.00    +0.000 NA
ATOM      8  C   UNL     1       3.883   2.886  17.375  0.00  0.00    +0.000 A 
ATOM      9  C   UNL     1       3.140   3.328  18.451  0.00  0.00    +0.000 A 
ENDROOT
BRANCH   9  10
ATOM     10  O   UNL     1       2.237   2.426  18.917  0.00  0.00    +0.000 OA
ATOM     11  C   UNL     1       0.859   2.655  18.664  0.00  0.00    +0.000 C 
ENDBRANCH   9  10
BRANCH   1  12
ATOM     12  S   UNL     1       2.796   5.366  20.355  0.00  0.00    +0.000 S 
BRANCH  12  16
ATOM     13  C   UNL     1       1.349   9.420  18.739  0.00  0.00    +0.000 A 
ATOM     14  C   UNL     1       1.160   9.090  20.084  0.00  0.00    +0.000 A 
ATOM     15  C   UNL     1       1.597   7.856  20.585  0.00  0.00    +0.000 A 
ATOM     16  C   UNL     1       2.205   6.929  19.732  0.00  0.00    +0.000 A 
ATOM     17  C   UNL     1       2.375   7.255  18.382  0.00  0.00    +0.000 A 
ATOM     18  C   UNL     1       1.946   8.493  17.887  0.00  0.00    +0.000 A 
BRANCH  13  20
ATOM     19  C   UNL     1       0.625  11.568  19.414  0.00  0.00    +0.000 C 
ATOM     20  O   UNL     1       0.864  10.640  18.359  0.00  0.00    +0.000 OA
ENDBRANCH  13  20
ENDBRANCH  12  16
ENDBRANCH   1  12
TORSDOF 4
ENDMDL
