MODEL 1
REMARK VINA RESULT:      -7.8      0.000      0.000
REMARK  Name = 
REMARK  8 active torsions:
REMARK  status: ('A' for Active; 'I' for Inactive)
REMARK    1  A    between atoms: C_1  and  C_2
REMARK    2  A    between atoms: C_2  and  O_3
REMARK    3  A    between atoms: O_3  and  C_4
REMARK    4  A    between atoms: C_7  and  C_8
REMARK    5  A    between atoms: C_8  and  C_9
REMARK    6  A    between atoms: C_9  and  N_10
REMARK    7  A    between atoms: C_11  and  C_13
REMARK    8  A    between atoms: C_14  and  C_15
REMARK                            x       y       z     vdW  Elec       q    Type
REMARK                         _______ _______ _______ _____ _____    ______ ____
ROOT
ATOM      1  N   UNL     1       2.687   6.651  20.076  0.00  0.00    +0.000 N 
ATOM      2  C   UNL     1       2.663   5.738  19.049  0.00  0.00    +0.000 C 
ATOM      3  O   UNL     1       1.997   5.866  18.049  0.00  0.00    +0.000 OA
ATOM      4  H   UNL     1       3.464   6.660  20.714  0.00  0.00    +0.000 HD
ENDROOT
BRANCH   2   5
ATOM      5  C   UNL     1       3.610   4.609  19.217  0.00  0.00    +0.000 C 
ATOM      6  C   UNL     1       3.430   3.589  20.056  0.00  0.00    +0.000 C 
ATOM      7  C   UNL     1       2.354   3.243  21.011  0.00  0.00    +0.000 C 
ATOM      8  C   UNL     1       4.627   2.765  19.937  0.00  0.00    +0.000 C 
ATOM      9  O   UNL     1       4.827   1.740  20.573  0.00  0.00    +0.000 OA
ATOM     10  O   UNL     1       5.481   3.313  19.040  0.00  0.00    +0.000 OA
ATOM     11  C   UNL     1       4.911   4.526  18.498  0.00  0.00    +0.000 C 
ATOM     12  C   UNL     1       5.851   5.688  18.865  0.00  0.00    +0.000 C 
ATOM     13  C   UNL     1       7.205   5.592  18.157  0.00  0.00    +0.000 C 
ATOM     14  C   UNL     1       7.039   5.449  16.647  0.00  0.00    +0.000 C 
ATOM     15  C   UNL     1       6.182   4.236  16.304  0.00  0.00    +0.000 C 
ATOM     16  C   UNL     1       4.810   4.345  16.970  0.00  0.00    +0.000 C 
ENDBRANCH   2   5
BRANCH   1  17
ATOM     17  C   UNL     1       1.834   7.815  20.063  0.00  0.00    +0.000 C 
BRANCH  17  18
ATOM     18  C   UNL     1       0.570   7.670  20.917  0.00  0.00    +0.000 C 
BRANCH  18  22
ATOM     19  C   UNL     1      -1.072  11.497  22.131  0.00  0.00    +0.000 A 
ATOM     20  C   UNL     1      -0.790  11.239  20.789  0.00  0.00    +0.000 A 
ATOM     21  C   UNL     1      -0.276   9.995  20.399  0.00  0.00    +0.000 A 
ATOM     22  C   UNL     1      -0.018   8.997  21.348  0.00  0.00    +0.000 A 
ATOM     23  C   UNL     1      -0.317   9.266  22.692  0.00  0.00    +0.000 A 
ATOM     24  C   UNL     1      -0.836  10.506  23.077  0.00  0.00    +0.000 A 
BRANCH  19  25
ATOM     25  O   UNL     1      -1.582  12.735  22.414  0.00  0.00    +0.000 OA
BRANCH  25  27
ATOM     26  C   UNL     1      -3.950  12.774  22.107  0.00  0.00    +0.000 C 
ATOM     27  C   UNL     1      -2.824  12.730  23.123  0.00  0.00    +0.000 C 
ENDBRANCH  25  27
ENDBRANCH  19  25
ENDBRANCH  18  22
ENDBRANCH  17  18
ENDBRANCH   1  17
TORSDOF 6
ENDMDL
MODEL 2
REMARK VINA RESULT:      -7.8      0.426      1.027
REMARK  Name = 
REMARK  8 active torsions:
REMARK  status: ('A' for Active; 'I' for Inactive)
REMARK    1  A    between atoms: C_1  and  C_2
REMARK    2  A    between atoms: C_2  and  O_3
REMARK    3  A    between atoms: O_3  and  C_4
REMARK    4  A    between atoms: C_7  and  C_8
REMARK    5  A    between atoms: C_8  and  C_9
REMARK    6  A    between atoms: C_9  and  N_10
REMARK    7  A    between atoms: C_11  and  C_13
REMARK    8  A    between atoms: C_14  and  C_15
REMARK                            x       y       z     vdW  Elec       q    Type
REMARK                         _______ _______ _______ _____ _____    ______ ____
ROOT
ATOM      1  N   UNL     1       2.579   6.674  20.214  0.00  0.00    +0.000 N 
ATOM      2  C   UNL     1       2.692   5.943  19.055  0.00  0.00    +0.000 C 
ATOM      3  O   UNL     1       2.164   6.248  18.012  0.00  0.00    +0.000 OA
ATOM      4  H   UNL     1       3.265   6.561  20.940  0.00  0.00    +0.000 HD
ENDROOT
BRANCH   2   5
ATOM      5  C   UNL     1       3.610   4.782  19.156  0.00  0.00    +0.000 C 
ATOM      6  C   UNL     1       3.436   3.751  19.982  0.00  0.00    +0.000 C 
ATOM      7  C   UNL     1       2.395   3.417  20.979  0.00  0.00    +0.000 C 
ATOM      8  C   UNL     1       4.600   2.892  19.790  0.00  0.00    +0.000 C 
ATOM      9  O   UNL     1       4.795   1.848  20.394  0.00  0.00    +0.000 OA
ATOM     10  O   UNL     1       5.428   3.434  18.864  0.00  0.00    +0.000 OA
ATOM     11  C   UNL     1       4.873   4.674  18.374  0.00  0.00    +0.000 C 
ATOM     12  C   UNL     1       5.865   5.799  18.720  0.00  0.00    +0.000 C 
ATOM     13  C   UNL     1       7.181   5.676  17.947  0.00  0.00    +0.000 C 
ATOM     14  C   UNL     1       6.940   5.571  16.444  0.00  0.00    +0.000 C 
ATOM     15  C   UNL     1       6.030   4.393  16.117  0.00  0.00    +0.000 C 
ATOM     16  C   UNL     1       4.695   4.530  16.850  0.00  0.00    +0.000 C 
ENDBRANCH   2   5
BRANCH   1  17
ATOM     17  C   UNL     1       1.735   7.842  20.283  0.00  0.00    +0.000 C 
BRANCH  17  18
ATOM     18  C   UNL     1       1.177   8.125  21.682  0.00  0.00    +0.000 C 
BRANCH  18  22
ATOM     19  C   UNL     1      -1.407  11.604  21.862  0.00  0.00    +0.000 A 
ATOM     20  C   UNL     1      -1.118  10.874  23.016  0.00  0.00    +0.000 A 
ATOM     21  C   UNL     1      -0.268   9.761  22.956  0.00  0.00    +0.000 A 
ATOM     22  C   UNL     1       0.289   9.351  21.738  0.00  0.00    +0.000 A 
ATOM     23  C   UNL     1      -0.002  10.099  20.588  0.00  0.00    +0.000 A 
ATOM     24  C   UNL     1      -0.845  11.214  20.653  0.00  0.00    +0.000 A 
BRANCH  19  25
ATOM     25  O   UNL     1      -2.237  12.681  22.021  0.00  0.00    +0.000 OA
BRANCH  25  27
ATOM     26  C   UNL     1      -4.494  13.075  22.696  0.00  0.00    +0.000 C 
ATOM     27  C   UNL     1      -3.123  12.602  23.141  0.00  0.00    +0.000 C 
ENDBRANCH  25  27
ENDBRANCH  19  25
ENDBRANCH  18  22
ENDBRANCH  17  18
ENDBRANCH   1  17
TORSDOF 6
ENDMDL
MODEL 3
REMARK VINA RESULT:      -7.7      3.589      8.409
REMARK  Name = 
REMARK  8 active torsions:
REMARK  status: ('A' for Active; 'I' for Inactive)
REMARK    1  A    between atoms: C_1  and  C_2
REMARK    2  A    between atoms: C_2  and  O_3
REMARK    3  A    between atoms: O_3  and  C_4
REMARK    4  A    between atoms: C_7  and  C_8
REMARK    5  A    between atoms: C_8  and  C_9
REMARK    6  A    between atoms: C_9  and  N_10
REMARK    7  A    between atoms: C_11  and  C_13
REMARK    8  A    between atoms: C_14  and  C_15
REMARK                            x       y       z     vdW  Elec       q    Type
REMARK                         _______ _______ _______ _____ _____    ______ ____
ROOT
ATOM      1  N   UNL     1       5.392   5.326  19.258  0.00  0.00    +0.000 N 
ATOM      2  C   UNL     1       4.864   4.064  19.385  0.00  0.00    +0.000 C 
ATOM      3  O   UNL     1       5.503   3.098  19.730  0.00  0.00    +0.000 OA
ATOM      4  H   UNL     1       4.781   6.124  19.277  0.00  0.00    +0.000 HD
ENDROOT
BRANCH   2   5
ATOM      5  C   UNL     1       3.400   3.992  19.160  0.00  0.00    +0.000 C 
ATOM      6  C   UNL     1       2.744   2.889  18.800  0.00  0.00    +0.000 C 
ATOM      7  C   UNL     1       3.174   1.499  18.528  0.00  0.00    +0.000 C 
ATOM      8  C   UNL     1       1.353   3.295  18.632  0.00  0.00    +0.000 C 
ATOM      9  O   UNL     1       0.451   2.545  18.290  0.00  0.00    +0.000 OA
ATOM     10  O   UNL     1       1.221   4.618  18.892  0.00  0.00    +0.000 OA
ATOM     11  C   UNL     1       2.503   5.176  19.257  0.00  0.00    +0.000 C 
ATOM     12  C   UNL     1       2.856   6.255  18.216  0.00  0.00    +0.000 C 
ATOM     13  C   UNL     1       1.916   7.462  18.284  0.00  0.00    +0.000 C 
ATOM     14  C   UNL     1       1.843   8.036  19.696  0.00  0.00    +0.000 C 
ATOM     15  C   UNL     1       1.400   6.973  20.695  0.00  0.00    +0.000 C 
ATOM     16  C   UNL     1       2.358   5.781  20.667  0.00  0.00    +0.000 C 
ENDBRANCH   2   5
BRANCH   1  17
ATOM     17  C   UNL     1       6.800   5.572  19.455  0.00  0.00    +0.000 C 
BRANCH  17  18
ATOM     18  C   UNL     1       7.539   6.014  18.187  0.00  0.00    +0.000 C 
BRANCH  18  22
ATOM     19  C   UNL     1       5.707   4.627  14.508  0.00  0.00    +0.000 A 
ATOM     20  C   UNL     1       6.617   3.822  15.195  0.00  0.00    +0.000 A 
ATOM     21  C   UNL     1       7.193   4.268  16.392  0.00  0.00    +0.000 A 
ATOM     22  C   UNL     1       6.882   5.532  16.910  0.00  0.00    +0.000 A 
ATOM     23  C   UNL     1       5.958   6.326  16.215  0.00  0.00    +0.000 A 
ATOM     24  C   UNL     1       5.380   5.876  15.024  0.00  0.00    +0.000 A 
BRANCH  19  25
ATOM     25  O   UNL     1       5.188   4.104  13.354  0.00  0.00    +0.000 OA
BRANCH  25  27
ATOM     26  C   UNL     1       5.435   2.450  11.649  0.00  0.00    +0.000 C 
ATOM     27  C   UNL     1       6.146   3.503  12.479  0.00  0.00    +0.000 C 
ENDBRANCH  25  27
ENDBRANCH  19  25
ENDBRANCH  18  22
ENDBRANCH  17  18
ENDBRANCH   1  17
TORSDOF 6
ENDMDL
MODEL 4
REMARK VINA RESULT:      -7.7      1.150      1.491
REMARK  Name = 
REMARK  8 active torsions:
REMARK  status: ('A' for Active; 'I' for Inactive)
REMARK    1  A    between atoms: C_1  and  C_2
REMARK    2  A    between atoms: C_2  and  O_3
REMARK    3  A    between atoms: O_3  and  C_4
REMARK    4  A    between atoms: C_7  and  C_8
REMARK    5  A    between atoms: C_8  and  C_9
REMARK    6  A    between atoms: C_9  and  N_10
REMARK    7  A    between atoms: C_11  and  C_13
REMARK    8  A    between atoms: C_14  and  C_15
REMARK                            x       y       z     vdW  Elec       q    Type
REMARK                         _______ _______ _______ _____ _____    ______ ____
ROOT
ATOM      1  N   UNL     1       2.442   6.708  20.059  0.00  0.00    +0.000 N 
ATOM      2  C   UNL     1       2.539   6.321  18.744  0.00  0.00    +0.000 C 
ATOM      3  O   UNL     1       2.248   7.030  17.810  0.00  0.00    +0.000 OA
ATOM      4  H   UNL     1       2.973   6.222  20.760  0.00  0.00    +0.000 HD
ENDROOT
BRANCH   2   5
ATOM      5  C   UNL     1       3.132   4.976  18.549  0.00  0.00    +0.000 C 
ATOM      6  C   UNL     1       2.527   3.829  18.859  0.00  0.00    +0.000 C 
ATOM      7  C   UNL     1       1.203   3.509  19.438  0.00  0.00    +0.000 C 
ATOM      8  C   UNL     1       3.495   2.779  18.563  0.00  0.00    +0.000 C 
ATOM      9  O   UNL     1       3.295   1.586  18.736  0.00  0.00    +0.000 OA
ATOM     10  O   UNL     1       4.641   3.325  18.091  0.00  0.00    +0.000 OA
ATOM     11  C   UNL     1       4.513   4.763  18.032  0.00  0.00    +0.000 C 
ATOM     12  C   UNL     1       5.579   5.366  18.966  0.00  0.00    +0.000 C 
ATOM     13  C   UNL     1       7.003   5.122  18.461  0.00  0.00    +0.000 C 
ATOM     14  C   UNL     1       7.175   5.593  17.020  0.00  0.00    +0.000 C 
ATOM     15  C   UNL     1       6.171   4.912  16.098  0.00  0.00    +0.000 C 
ATOM     16  C   UNL     1       4.742   5.187  16.569  0.00  0.00    +0.000 C 
ENDBRANCH   2   5
BRANCH   1  17
ATOM     17  C   UNL     1       1.897   7.993  20.422  0.00  0.00    +0.000 C 
BRANCH  17  18
ATOM     18  C   UNL     1       0.721   7.917  21.403  0.00  0.00    +0.000 C 
BRANCH  18  22
ATOM     19  C   UNL     1      -1.323  11.694  22.010  0.00  0.00    +0.000 A 
ATOM     20  C   UNL     1      -1.065  10.845  23.088  0.00  0.00    +0.000 A 
ATOM     21  C   UNL     1      -0.389   9.634  22.889  0.00  0.00    +0.000 A 
ATOM     22  C   UNL     1       0.022   9.245  21.607  0.00  0.00    +0.000 A 
ATOM     23  C   UNL     1      -0.234  10.112  20.535  0.00  0.00    +0.000 A 
ATOM     24  C   UNL     1      -0.903  11.324  20.738  0.00  0.00    +0.000 A 
BRANCH  19  25
ATOM     25  O   UNL     1      -1.978  12.860  22.303  0.00  0.00    +0.000 OA
BRANCH  25  27
ATOM     26  C   UNL     1      -2.500  14.264  24.163  0.00  0.00    +0.000 C 
ATOM     27  C   UNL     1      -1.385  13.642  23.343  0.00  0.00    +0.000 C 
ENDBRANCH  25  27
ENDBRANCH  19  25
ENDBRANCH  18  22
ENDBRANCH  17  18
ENDBRANCH   1  17
TORSDOF 6
ENDMDL
MODEL 5
REMARK VINA RESULT:      -7.7      2.433      2.884
REMARK  Name = 
REMARK  8 active torsions:
REMARK  status: ('A' for Active; 'I' for Inactive)
REMARK    1  A    between atoms: C_1  and  C_2
REMARK    2  A    between atoms: C_2  and  O_3
REMARK    3  A    between atoms: O_3  and  C_4
REMARK    4  A    between atoms: C_7  and  C_8
REMARK    5  A    between atoms: C_8  and  C_9
REMARK    6  A    between atoms: C_9  and  N_10
REMARK    7  A    between atoms: C_11  and  C_13
REMARK    8  A    between atoms: C_14  and  C_15
REMARK                            x       y       z     vdW  Elec       q    Type
REMARK                         _______ _______ _______ _____ _____    ______ ____
ROOT
ATOM      1  N   UNL     1       2.343   7.358  18.584  0.00  0.00    +0.000 N 
ATOM      2  C   UNL     1       2.443   6.243  19.380  0.00  0.00    +0.000 C 
ATOM      3  O   UNL     1       1.996   6.172  20.500  0.00  0.00    +0.000 OA
ATOM      4  H   UNL     1       2.444   7.268  17.587  0.00  0.00    +0.000 HD
ENDROOT
BRANCH   2   5
ATOM      5  C   UNL     1       3.065   5.073  18.713  0.00  0.00    +0.000 C 
ATOM      6  C   UNL     1       2.496   3.873  18.604  0.00  0.00    +0.000 C 
ATOM      7  C   UNL     1       1.194   3.327  19.049  0.00  0.00    +0.000 C 
ATOM      8  C   UNL     1       3.482   3.027  17.943  0.00  0.00    +0.000 C 
ATOM      9  O   UNL     1       3.316   1.844  17.685  0.00  0.00    +0.000 OA
ATOM     10  O   UNL     1       4.604   3.740  17.681  0.00  0.00    +0.000 OA
ATOM     11  C   UNL     1       4.439   5.101  18.138  0.00  0.00    +0.000 C 
ATOM     12  C   UNL     1       5.510   5.367  19.211  0.00  0.00    +0.000 C 
ATOM     13  C   UNL     1       6.929   5.362  18.634  0.00  0.00    +0.000 C 
ATOM     14  C   UNL     1       7.056   6.318  17.453  0.00  0.00    +0.000 C 
ATOM     15  C   UNL     1       6.048   5.976  16.361  0.00  0.00    +0.000 C 
ATOM     16  C   UNL     1       4.624   6.023  16.917  0.00  0.00    +0.000 C 
ENDBRANCH   2   5
BRANCH   1  17
ATOM     17  C   UNL     1       1.752   8.579  19.076  0.00  0.00    +0.000 C 
BRANCH  17  18
ATOM     18  C   UNL     1       1.310   9.546  17.972  0.00  0.00    +0.000 C 
BRANCH  18  22
ATOM     19  C   UNL     1      -2.576  11.349  18.653  0.00  0.00    +0.000 A 
ATOM     20  C   UNL     1      -2.388  10.441  17.610  0.00  0.00    +0.000 A 
ATOM     21  C   UNL     1      -1.135   9.847  17.405  0.00  0.00    +0.000 A 
ATOM     22  C   UNL     1      -0.047  10.168  18.227  0.00  0.00    +0.000 A 
ATOM     23  C   UNL     1      -0.253  11.074  19.278  0.00  0.00    +0.000 A 
ATOM     24  C   UNL     1      -1.506  11.660  19.484  0.00  0.00    +0.000 A 
BRANCH  19  25
ATOM     25  O   UNL     1      -3.836  11.867  18.783  0.00  0.00    +0.000 OA
BRANCH  25  27
ATOM     26  C   UNL     1      -5.648  12.191  17.261  0.00  0.00    +0.000 C 
ATOM     27  C   UNL     1      -4.854  11.173  18.056  0.00  0.00    +0.000 C 
ENDBRANCH  25  27
ENDBRANCH  19  25
ENDBRANCH  18  22
ENDBRANCH  17  18
ENDBRANCH   1  17
TORSDOF 6
ENDMDL
MODEL 6
REMARK VINA RESULT:      -7.7      1.134      1.141
REMARK  Name = 
REMARK  8 active torsions:
REMARK  status: ('A' for Active; 'I' for Inactive)
REMARK    1  A    between atoms: C_1  and  C_2
REMARK    2  A    between atoms: C_2  and  O_3
REMARK    3  A    between atoms: O_3  and  C_4
REMARK    4  A    between atoms: C_7  and  C_8
REMARK    5  A    between atoms: C_8  and  C_9
REMARK    6  A    between atoms: C_9  and  N_10
REMARK    7  A    between atoms: C_11  and  C_13
REMARK    8  A    between atoms: C_14  and  C_15
REMARK                            x       y       z     vdW  Elec       q    Type
REMARK                         _______ _______ _______ _____ _____    ______ ____
ROOT
ATOM      1  N   UNL     1       2.399   6.808  19.918  0.00  0.00    +0.000 N 
ATOM      2  C   UNL     1       2.682   6.562  18.596  0.00  0.00    +0.000 C 
ATOM      3  O   UNL     1       2.580   7.388  17.720  0.00  0.00    +0.000 OA
ATOM      4  H   UNL     1       2.786   6.211  20.629  0.00  0.00    +0.000 HD
ENDROOT
BRANCH   2   5
ATOM      5  C   UNL     1       3.228   5.208  18.333  0.00  0.00    +0.000 C 
ATOM      6  C   UNL     1       2.573   4.070  18.564  0.00  0.00    +0.000 C 
ATOM      7  C   UNL     1       1.226   3.769  19.097  0.00  0.00    +0.000 C 
ATOM      8  C   UNL     1       3.506   3.002  18.225  0.00  0.00    +0.000 C 
ATOM      9  O   UNL     1       3.257   1.810  18.323  0.00  0.00    +0.000 OA
ATOM     10  O   UNL     1       4.683   3.529  17.808  0.00  0.00    +0.000 OA
ATOM     11  C   UNL     1       4.610   4.972  17.832  0.00  0.00    +0.000 C 
ATOM     12  C   UNL     1       5.678   5.477  18.820  0.00  0.00    +0.000 C 
ATOM     13  C   UNL     1       7.102   5.207  18.328  0.00  0.00    +0.000 C 
ATOM     14  C   UNL     1       7.323   5.755  16.922  0.00  0.00    +0.000 C 
ATOM     15  C   UNL     1       6.314   5.168  15.942  0.00  0.00    +0.000 C 
ATOM     16  C   UNL     1       4.887   5.472  16.400  0.00  0.00    +0.000 C 
ENDBRANCH   2   5
BRANCH   1  17
ATOM     17  C   UNL     1       1.871   8.080  20.347  0.00  0.00    +0.000 C 
BRANCH  17  18
ATOM     18  C   UNL     1       0.807   7.976  21.445  0.00  0.00    +0.000 C 
BRANCH  18  22
ATOM     19  C   UNL     1      -1.340  11.695  22.057  0.00  0.00    +0.000 A 
ATOM     20  C   UNL     1      -0.867  11.348  20.790  0.00  0.00    +0.000 A 
ATOM     21  C   UNL     1      -0.189  10.137  20.594  0.00  0.00    +0.000 A 
ATOM     22  C   UNL     1       0.043   9.264  21.665  0.00  0.00    +0.000 A 
ATOM     23  C   UNL     1      -0.447   9.620  22.931  0.00  0.00    +0.000 A 
ATOM     24  C   UNL     1      -1.129  10.827  23.122  0.00  0.00    +0.000 A 
BRANCH  19  25
ATOM     25  O   UNL     1      -1.999  12.891  22.149  0.00  0.00    +0.000 OA
BRANCH  25  27
ATOM     26  C   UNL     1      -4.255  12.880  22.933  0.00  0.00    +0.000 C 
ATOM     27  C   UNL     1      -2.799  13.051  23.324  0.00  0.00    +0.000 C 
ENDBRANCH  25  27
ENDBRANCH  19  25
ENDBRANCH  18  22
ENDBRANCH  17  18
ENDBRANCH   1  17
TORSDOF 6
ENDMDL
MODEL 7
REMARK VINA RESULT:      -7.7      1.544      3.296
REMARK  Name = 
REMARK  8 active torsions:
REMARK  status: ('A' for Active; 'I' for Inactive)
REMARK    1  A    between atoms: C_1  and  C_2
REMARK    2  A    between atoms: C_2  and  O_3
REMARK    3  A    between atoms: O_3  and  C_4
REMARK    4  A    between atoms: C_7  and  C_8
REMARK    5  A    between atoms: C_8  and  C_9
REMARK    6  A    between atoms: C_9  and  N_10
REMARK    7  A    between atoms: C_11  and  C_13
REMARK    8  A    between atoms: C_14  and  C_15
REMARK                            x       y       z     vdW  Elec       q    Type
REMARK                         _______ _______ _______ _____ _____    ______ ____
ROOT
ATOM      1  N   UNL     1       2.364   7.212  19.496  0.00  0.00    +0.000 N 
ATOM      2  C   UNL     1       2.805   7.074  18.202  0.00  0.00    +0.000 C 
ATOM      3  O   UNL     1       2.782   7.964  17.384  0.00  0.00    +0.000 OA
ATOM      4  H   UNL     1       2.683   6.569  20.200  0.00  0.00    +0.000 HD
ENDROOT
BRANCH   2   5
ATOM      5  C   UNL     1       3.415   5.756  17.904  0.00  0.00    +0.000 C 
ATOM      6  C   UNL     1       4.417   5.562  17.047  0.00  0.00    +0.000 C 
ATOM      7  C   UNL     1       5.199   6.474  16.183  0.00  0.00    +0.000 C 
ATOM      8  C   UNL     1       4.644   4.122  17.024  0.00  0.00    +0.000 C 
ATOM      9  O   UNL     1       5.486   3.566  16.334  0.00  0.00    +0.000 OA
ATOM     10  O   UNL     1       3.776   3.502  17.859  0.00  0.00    +0.000 OA
ATOM     11  C   UNL     1       2.926   4.480  18.497  0.00  0.00    +0.000 C 
ATOM     12  C   UNL     1       1.473   4.173  18.089  0.00  0.00    +0.000 C 
ATOM     13  C   UNL     1       0.972   2.846  18.665  0.00  0.00    +0.000 C 
ATOM     14  C   UNL     1       1.164   2.784  20.177  0.00  0.00    +0.000 C 
ATOM     15  C   UNL     1       2.627   2.997  20.552  0.00  0.00    +0.000 C 
ATOM     16  C   UNL     1       3.124   4.341  20.019  0.00  0.00    +0.000 C 
ENDBRANCH   2   5
BRANCH   1  17
ATOM     17  C   UNL     1       1.755   8.437  19.953  0.00  0.00    +0.000 C 
BRANCH  17  18
ATOM     18  C   UNL     1       1.059   8.317  21.314  0.00  0.00    +0.000 C 
BRANCH  18  22
ATOM     19  C   UNL     1      -1.558  11.669  22.168  0.00  0.00    +0.000 A 
ATOM     20  C   UNL     1      -1.084  11.450  20.873  0.00  0.00    +0.000 A 
ATOM     21  C   UNL     1      -0.252  10.356  20.599  0.00  0.00    +0.000 A 
ATOM     22  C   UNL     1       0.132   9.475  21.619  0.00  0.00    +0.000 A 
ATOM     23  C   UNL     1      -0.360   9.701  22.912  0.00  0.00    +0.000 A 
ATOM     24  C   UNL     1      -1.195  10.790  23.182  0.00  0.00    +0.000 A 
BRANCH  19  25
ATOM     25  O   UNL     1      -2.373  12.756  22.337  0.00  0.00    +0.000 OA
BRANCH  25  27
ATOM     26  C   UNL     1      -4.060  12.862  24.024  0.00  0.00    +0.000 C 
ATOM     27  C   UNL     1      -2.603  13.133  23.697  0.00  0.00    +0.000 C 
ENDBRANCH  25  27
ENDBRANCH  19  25
ENDBRANCH  18  22
ENDBRANCH  17  18
ENDBRANCH   1  17
TORSDOF 6
ENDMDL
MODEL 8
REMARK VINA RESULT:      -7.7      1.682      2.074
REMARK  Name = 
REMARK  8 active torsions:
REMARK  status: ('A' for Active; 'I' for Inactive)
REMARK    1  A    between atoms: C_1  and  C_2
REMARK    2  A    between atoms: C_2  and  O_3
REMARK    3  A    between atoms: O_3  and  C_4
REMARK    4  A    between atoms: C_7  and  C_8
REMARK    5  A    between atoms: C_8  and  C_9
REMARK    6  A    between atoms: C_9  and  N_10
REMARK    7  A    between atoms: C_11  and  C_13
REMARK    8  A    between atoms: C_14  and  C_15
REMARK                            x       y       z     vdW  Elec       q    Type
REMARK                         _______ _______ _______ _____ _____    ______ ____
ROOT
ATOM      1  N   UNL     1       2.745   7.591  17.693  0.00  0.00    +0.000 N 
ATOM      2  C   UNL     1       2.919   6.637  18.666  0.00  0.00    +0.000 C 
ATOM      3  O   UNL     1       2.718   6.830  19.842  0.00  0.00    +0.000 OA
ATOM      4  H   UNL     1       2.621   7.308  16.736  0.00  0.00    +0.000 HD
ENDROOT
BRANCH   2   5
ATOM      5  C   UNL     1       3.281   5.296  18.146  0.00  0.00    +0.000 C 
ATOM      6  C   UNL     1       2.500   4.219  18.223  0.00  0.00    +0.000 C 
ATOM      7  C   UNL     1       1.149   3.987  18.782  0.00  0.00    +0.000 C 
ATOM      8  C   UNL     1       3.278   3.126  17.652  0.00  0.00    +0.000 C 
ATOM      9  O   UNL     1       2.888   1.971  17.565  0.00  0.00    +0.000 OA
ATOM     10  O   UNL     1       4.493   3.578  17.257  0.00  0.00    +0.000 OA
ATOM     11  C   UNL     1       4.601   4.994  17.527  0.00  0.00    +0.000 C 
ATOM     12  C   UNL     1       5.763   5.193  18.516  0.00  0.00    +0.000 C 
ATOM     13  C   UNL     1       7.122   4.850  17.899  0.00  0.00    +0.000 C 
ATOM     14  C   UNL     1       7.350   5.605  16.593  0.00  0.00    +0.000 C 
ATOM     15  C   UNL     1       6.235   5.318  15.594  0.00  0.00    +0.000 C 
ATOM     16  C   UNL     1       4.877   5.699  16.185  0.00  0.00    +0.000 C 
ENDBRANCH   2   5
BRANCH   1  17
ATOM     17  C   UNL     1       2.380   8.946  18.028  0.00  0.00    +0.000 C 
BRANCH  17  18
ATOM     18  C   UNL     1       0.872   9.162  18.191  0.00  0.00    +0.000 C 
BRANCH  18  22
ATOM     19  C   UNL     1      -0.235  11.099  21.912  0.00  0.00    +0.000 A 
ATOM     20  C   UNL     1       0.020   9.727  21.873  0.00  0.00    +0.000 A 
ATOM     21  C   UNL     1       0.394   9.109  20.672  0.00  0.00    +0.000 A 
ATOM     22  C   UNL     1       0.500   9.850  19.488  0.00  0.00    +0.000 A 
ATOM     23  C   UNL     1       0.252  11.229  19.543  0.00  0.00    +0.000 A 
ATOM     24  C   UNL     1      -0.114  11.845  20.745  0.00  0.00    +0.000 A 
BRANCH  19  25
ATOM     25  O   UNL     1      -0.582  11.615  23.131  0.00  0.00    +0.000 OA
BRANCH  25  27
ATOM     26  C   UNL     1      -2.903  12.160  23.279  0.00  0.00    +0.000 C 
ATOM     27  C   UNL     1      -1.502  12.709  23.084  0.00  0.00    +0.000 C 
ENDBRANCH  25  27
ENDBRANCH  19  25
ENDBRANCH  18  22
ENDBRANCH  17  18
ENDBRANCH   1  17
TORSDOF 6
ENDMDL
MODEL 9
REMARK VINA RESULT:      -7.6      1.818      3.638
REMARK  Name = 
REMARK  8 active torsions:
REMARK  status: ('A' for Active; 'I' for Inactive)
REMARK    1  A    between atoms: C_1  and  C_2
REMARK    2  A    between atoms: C_2  and  O_3
REMARK    3  A    between atoms: O_3  and  C_4
REMARK    4  A    between atoms: C_7  and  C_8
REMARK    5  A    between atoms: C_8  and  C_9
REMARK    6  A    between atoms: C_9  and  N_10
REMARK    7  A    between atoms: C_11  and  C_13
REMARK    8  A    between atoms: C_14  and  C_15
REMARK                            x       y       z     vdW  Elec       q    Type
REMARK                         _______ _______ _______ _____ _____    ______ ____
ROOT
ATOM      1  N   UNL     1       2.809   7.921  17.539  0.00  0.00    +0.000 N 
ATOM      2  C   UNL     1       3.007   6.963  18.504  0.00  0.00    +0.000 C 
ATOM      3  O   UNL     1       2.719   7.110  19.668  0.00  0.00    +0.000 OA
ATOM      4  H   UNL     1       2.769   7.650  16.571  0.00  0.00    +0.000 HD
ENDROOT
BRANCH   2   5
ATOM      5  C   UNL     1       3.519   5.672  17.983  0.00  0.00    +0.000 C 
ATOM      6  C   UNL     1       4.433   5.555  17.020  0.00  0.00    +0.000 C 
ATOM      7  C   UNL     1       5.186   6.541  16.214  0.00  0.00    +0.000 C 
ATOM      8  C   UNL     1       4.581   4.122  16.789  0.00  0.00    +0.000 C 
ATOM      9  O   UNL     1       5.331   3.630  15.959  0.00  0.00    +0.000 OA
ATOM     10  O   UNL     1       3.755   3.432  17.612  0.00  0.00    +0.000 OA
ATOM     11  C   UNL     1       3.015   4.350  18.447  0.00  0.00    +0.000 C 
ATOM     12  C   UNL     1       1.519   4.161  18.136  0.00  0.00    +0.000 C 
ATOM     13  C   UNL     1       0.999   2.790  18.579  0.00  0.00    +0.000 C 
ATOM     14  C   UNL     1       1.315   2.518  20.046  0.00  0.00    +0.000 C 
ATOM     15  C   UNL     1       2.813   2.618  20.310  0.00  0.00    +0.000 C 
ATOM     16  C   UNL     1       3.334   4.000  19.913  0.00  0.00    +0.000 C 
ENDBRANCH   2   5
BRANCH   1  17
ATOM     17  C   UNL     1       2.303   9.230  17.875  0.00  0.00    +0.000 C 
BRANCH  17  18
ATOM     18  C   UNL     1       0.796   9.264  18.150  0.00  0.00    +0.000 C 
BRANCH  18  22
ATOM     19  C   UNL     1      -0.274  11.196  21.884  0.00  0.00    +0.000 A 
ATOM     20  C   UNL     1      -0.098   9.812  21.825  0.00  0.00    +0.000 A 
ATOM     21  C   UNL     1       0.265   9.195  20.620  0.00  0.00    +0.000 A 
ATOM     22  C   UNL     1       0.438   9.949  19.452  0.00  0.00    +0.000 A 
ATOM     23  C   UNL     1       0.268  11.339  19.528  0.00  0.00    +0.000 A 
ATOM     24  C   UNL     1      -0.087  11.954  20.733  0.00  0.00    +0.000 A 
BRANCH  19  25
ATOM     25  O   UNL     1      -0.616  11.710  23.105  0.00  0.00    +0.000 OA
BRANCH  25  27
ATOM     26  C   UNL     1      -1.465  13.891  23.581  0.00  0.00    +0.000 C 
ATOM     27  C   UNL     1      -1.815  12.489  23.118  0.00  0.00    +0.000 C 
ENDBRANCH  25  27
ENDBRANCH  19  25
ENDBRANCH  18  22
ENDBRANCH  17  18
ENDBRANCH   1  17
TORSDOF 6
ENDMDL
