MODEL 1
REMARK VINA RESULT:      -8.2      0.000      0.000
REMARK  Name = 
REMARK  3 active torsions:
REMARK  status: ('A' for Active; 'I' for Inactive)
REMARK    1  A    between atoms: C_2  and  C_3
REMARK    2  A    between atoms: C_3  and  C_4
REMARK    3  A    between atoms: C_9  and  O_10
REMARK                            x       y       z     vdW  Elec       q    Type
REMARK                         _______ _______ _______ _____ _____    ______ ____
ROOT
ATOM      1  O   UNL     1       4.098   2.748  18.584  0.00  0.00    +0.000 OA
ATOM      2  C   UNL     1       4.073   3.892  18.117  0.00  0.00    +0.000 C 
ATOM      3  N   UNL     1       3.160   4.842  18.551  0.00  0.00    +0.000 N 
ATOM      4  C   UNL     1       2.224   4.472  19.634  0.00  0.00    +0.000 C 
ATOM      5  C   UNL     1       2.133   5.577  20.709  0.00  0.00    +0.000 C 
ATOM      6  C   UNL     1       1.932   6.892  20.043  0.00  0.00    +0.000 A 
ATOM      7  C   UNL     1       2.268   7.074  18.716  0.00  0.00    +0.000 A 
ATOM      8  N   UNL     1       1.969   8.365  18.380  0.00  0.00    +0.000 N 
ATOM      9  C   UNL     1       1.464   9.031  19.476  0.00  0.00    +0.000 A 
ATOM     10  C   UNL     1       1.036  10.357  19.606  0.00  0.00    +0.000 A 
ATOM     11  C   UNL     1       0.577  10.771  20.860  0.00  0.00    +0.000 A 
ATOM     12  C   UNL     1       0.545   9.891  21.941  0.00  0.00    +0.000 A 
ATOM     13  C   UNL     1       0.970   8.566  21.795  0.00  0.00    +0.000 A 
ATOM     14  C   UNL     1       1.438   8.125  20.541  0.00  0.00    +0.000 A 
ATOM     15  C   UNL     1       2.839   6.061  17.788  0.00  0.00    +0.000 C 
ATOM     16  H   UNL     1       2.101   8.784  17.470  0.00  0.00    +0.000 HD
ENDROOT
BRANCH   2  17
ATOM     17  C   UNL     1       5.091   4.291  17.060  0.00  0.00    +0.000 C 
BRANCH  17  18
ATOM     18  C   UNL     1       6.173   5.231  17.541  0.00  0.00    +0.000 A 
ATOM     19  C   UNL     1       6.894   4.960  18.714  0.00  0.00    +0.000 A 
ATOM     20  C   UNL     1       7.847   5.860  19.194  0.00  0.00    +0.000 A 
ATOM     21  C   UNL     1       8.081   7.055  18.520  0.00  0.00    +0.000 A 
ATOM     22  C   UNL     1       7.359   7.354  17.365  0.00  0.00    +0.000 A 
ATOM     23  C   UNL     1       6.412   6.447  16.887  0.00  0.00    +0.000 A 
BRANCH  23  24
ATOM     24  O   UNL     1       5.698   6.744  15.760  0.00  0.00    +0.000 OA
ATOM     25  H   UNL     1       4.813   7.048  16.026  0.00  0.00    +0.000 HD
ENDBRANCH  23  24
ENDBRANCH  17  18
ENDBRANCH   2  17
TORSDOF 3
ENDMDL
MODEL 2
REMARK VINA RESULT:      -8.2      3.335      5.363
REMARK  Name = 
REMARK  3 active torsions:
REMARK  status: ('A' for Active; 'I' for Inactive)
REMARK    1  A    between atoms: C_2  and  C_3
REMARK    2  A    between atoms: C_3  and  C_4
REMARK    3  A    between atoms: C_9  and  O_10
REMARK                            x       y       z     vdW  Elec       q    Type
REMARK                         _______ _______ _______ _____ _____    ______ ____
ROOT
ATOM      1  O   UNL     1       5.469   7.071  15.236  0.00  0.00    +0.000 OA
ATOM      2  C   UNL     1       5.776   6.086  15.916  0.00  0.00    +0.000 C 
ATOM      3  N   UNL     1       5.112   5.770  17.094  0.00  0.00    +0.000 N 
ATOM      4  C   UNL     1       3.979   6.623  17.510  0.00  0.00    +0.000 C 
ATOM      5  C   UNL     1       2.767   5.779  17.959  0.00  0.00    +0.000 C 
ATOM      6  C   UNL     1       3.226   4.730  18.909  0.00  0.00    +0.000 A 
ATOM      7  C   UNL     1       4.550   4.338  18.947  0.00  0.00    +0.000 A 
ATOM      8  N   UNL     1       4.675   3.376  19.911  0.00  0.00    +0.000 N 
ATOM      9  C   UNL     1       3.448   3.123  20.484  0.00  0.00    +0.000 A 
ATOM     10  C   UNL     1       3.094   2.220  21.493  0.00  0.00    +0.000 A 
ATOM     11  C   UNL     1       1.750   2.165  21.874  0.00  0.00    +0.000 A 
ATOM     12  C   UNL     1       0.797   2.983  21.269  0.00  0.00    +0.000 A 
ATOM     13  C   UNL     1       1.166   3.885  20.265  0.00  0.00    +0.000 A 
ATOM     14  C   UNL     1       2.515   3.959  19.864  0.00  0.00    +0.000 A 
ATOM     15  C   UNL     1       5.665   4.861  18.113  0.00  0.00    +0.000 C 
ATOM     16  H   UNL     1       5.533   2.908  20.169  0.00  0.00    +0.000 HD
ENDROOT
BRANCH   2  17
ATOM     17  C   UNL     1       6.890   5.166  15.441  0.00  0.00    +0.000 C 
BRANCH  17  18
ATOM     18  C   UNL     1       6.734   4.654  14.027  0.00  0.00    +0.000 A 
ATOM     19  C   UNL     1       5.741   3.715  13.706  0.00  0.00    +0.000 A 
ATOM     20  C   UNL     1       5.639   3.193  12.415  0.00  0.00    +0.000 A 
ATOM     21  C   UNL     1       6.540   3.586  11.430  0.00  0.00    +0.000 A 
ATOM     22  C   UNL     1       7.547   4.501  11.734  0.00  0.00    +0.000 A 
ATOM     23  C   UNL     1       7.641   5.024  13.024  0.00  0.00    +0.000 A 
BRANCH  23  24
ATOM     24  O   UNL     1       8.634   5.912  13.326  0.00  0.00    +0.000 OA
ATOM     25  H   UNL     1       9.384   5.422  13.705  0.00  0.00    +0.000 HD
ENDBRANCH  23  24
ENDBRANCH  17  18
ENDBRANCH   2  17
TORSDOF 3
ENDMDL
MODEL 3
REMARK VINA RESULT:      -7.9      1.055      1.449
REMARK  Name = 
REMARK  3 active torsions:
REMARK  status: ('A' for Active; 'I' for Inactive)
REMARK    1  A    between atoms: C_2  and  C_3
REMARK    2  A    between atoms: C_3  and  C_4
REMARK    3  A    between atoms: C_9  and  O_10
REMARK                            x       y       z     vdW  Elec       q    Type
REMARK                         _______ _______ _______ _____ _____    ______ ____
ROOT
ATOM      1  O   UNL     1       3.818   3.336  18.056  0.00  0.00    +0.000 OA
ATOM      2  C   UNL     1       3.805   4.536  17.762  0.00  0.00    +0.000 C 
ATOM      3  N   UNL     1       2.896   5.421  18.324  0.00  0.00    +0.000 N 
ATOM      4  C   UNL     1       1.950   4.904  19.336  0.00  0.00    +0.000 C 
ATOM      5  C   UNL     1       1.858   5.841  20.559  0.00  0.00    +0.000 C 
ATOM      6  C   UNL     1       1.673   7.240  20.092  0.00  0.00    +0.000 A 
ATOM      7  C   UNL     1       2.019   7.612  18.808  0.00  0.00    +0.000 A 
ATOM      8  N   UNL     1       1.732   8.941  18.663  0.00  0.00    +0.000 N 
ATOM      9  C   UNL     1       1.224   9.443  19.841  0.00  0.00    +0.000 A 
ATOM     10  C   UNL     1       0.805  10.739  20.161  0.00  0.00    +0.000 A 
ATOM     11  C   UNL     1       0.339  10.969  21.459  0.00  0.00    +0.000 A 
ATOM     12  C   UNL     1       0.293   9.942  22.399  0.00  0.00    +0.000 A 
ATOM     13  C   UNL     1       0.710   8.648  22.064  0.00  0.00    +0.000 A 
ATOM     14  C   UNL     1       1.184   8.392  20.762  0.00  0.00    +0.000 A 
ATOM     15  C   UNL     1       2.590   6.740  17.746  0.00  0.00    +0.000 C 
ATOM     16  H   UNL     1       1.874   9.487  17.824  0.00  0.00    +0.000 HD
ENDROOT
BRANCH   2  17
ATOM     17  C   UNL     1       4.834   5.078  16.781  0.00  0.00    +0.000 C 
BRANCH  17  18
ATOM     18  C   UNL     1       5.966   5.856  17.411  0.00  0.00    +0.000 A 
ATOM     19  C   UNL     1       6.312   7.133  16.940  0.00  0.00    +0.000 A 
ATOM     20  C   UNL     1       7.399   7.825  17.477  0.00  0.00    +0.000 A 
ATOM     21  C   UNL     1       8.170   7.244  18.481  0.00  0.00    +0.000 A 
ATOM     22  C   UNL     1       7.856   5.968  18.947  0.00  0.00    +0.000 A 
ATOM     23  C   UNL     1       6.765   5.284  18.410  0.00  0.00    +0.000 A 
BRANCH  23  24
ATOM     24  O   UNL     1       6.463   4.029  18.860  0.00  0.00    +0.000 OA
ATOM     25  H   UNL     1       5.783   3.647  18.279  0.00  0.00    +0.000 HD
ENDBRANCH  23  24
ENDBRANCH  17  18
ENDBRANCH   2  17
TORSDOF 3
ENDMDL
MODEL 4
REMARK VINA RESULT:      -7.6      3.569      7.625
REMARK  Name = 
REMARK  3 active torsions:
REMARK  status: ('A' for Active; 'I' for Inactive)
REMARK    1  A    between atoms: C_2  and  C_3
REMARK    2  A    between atoms: C_3  and  C_4
REMARK    3  A    between atoms: C_9  and  O_10
REMARK                            x       y       z     vdW  Elec       q    Type
REMARK                         _______ _______ _______ _____ _____    ______ ____
ROOT
ATOM      1  O   UNL     1       0.219  10.119  20.936  0.00  0.00    +0.000 OA
ATOM      2  C   UNL     1       0.667   9.702  19.862  0.00  0.00    +0.000 C 
ATOM      3  N   UNL     1       1.424   8.541  19.784  0.00  0.00    +0.000 N 
ATOM      4  C   UNL     1       1.657   7.771  21.024  0.00  0.00    +0.000 C 
ATOM      5  C   UNL     1       1.431   6.260  20.804  0.00  0.00    +0.000 C 
ATOM      6  C   UNL     1       2.156   5.829  19.579  0.00  0.00    +0.000 A 
ATOM      7  C   UNL     1       2.522   6.745  18.612  0.00  0.00    +0.000 A 
ATOM      8  N   UNL     1       3.173   6.069  17.618  0.00  0.00    +0.000 N 
ATOM      9  C   UNL     1       3.214   4.724  17.914  0.00  0.00    +0.000 A 
ATOM     10  C   UNL     1       3.764   3.660  17.190  0.00  0.00    +0.000 A 
ATOM     11  C   UNL     1       3.647   2.377  17.733  0.00  0.00    +0.000 A 
ATOM     12  C   UNL     1       3.008   2.168  18.953  0.00  0.00    +0.000 A 
ATOM     13  C   UNL     1       2.468   3.243  19.669  0.00  0.00    +0.000 A 
ATOM     14  C   UNL     1       2.573   4.545  19.142  0.00  0.00    +0.000 A 
ATOM     15  C   UNL     1       2.281   8.214  18.631  0.00  0.00    +0.000 C 
ATOM     16  H   UNL     1       3.562   6.482  16.782  0.00  0.00    +0.000 HD
ENDROOT
BRANCH   2  17
ATOM     17  C   UNL     1       0.356  10.455  18.578  0.00  0.00    +0.000 C 
BRANCH  17  18
ATOM     18  C   UNL     1      -1.113  10.556  18.239  0.00  0.00    +0.000 A 
ATOM     19  C   UNL     1      -1.682   9.741  17.247  0.00  0.00    +0.000 A 
ATOM     20  C   UNL     1      -3.024   9.880  16.888  0.00  0.00    +0.000 A 
ATOM     21  C   UNL     1      -3.814  10.850  17.499  0.00  0.00    +0.000 A 
ATOM     22  C   UNL     1      -3.262  11.685  18.470  0.00  0.00    +0.000 A 
ATOM     23  C   UNL     1      -1.922  11.537  18.830  0.00  0.00    +0.000 A 
BRANCH  23  24
ATOM     24  O   UNL     1      -1.379  12.362  19.774  0.00  0.00    +0.000 OA
ATOM     25  H   UNL     1      -1.527  13.284  19.503  0.00  0.00    +0.000 HD
ENDBRANCH  23  24
ENDBRANCH  17  18
ENDBRANCH   2  17
TORSDOF 3
ENDMDL
MODEL 5
REMARK VINA RESULT:      -7.6      1.376      2.144
REMARK  Name = 
REMARK  3 active torsions:
REMARK  status: ('A' for Active; 'I' for Inactive)
REMARK    1  A    between atoms: C_2  and  C_3
REMARK    2  A    between atoms: C_3  and  C_4
REMARK    3  A    between atoms: C_9  and  O_10
REMARK                            x       y       z     vdW  Elec       q    Type
REMARK                         _______ _______ _______ _____ _____    ______ ____
ROOT
ATOM      1  O   UNL     1       5.083   3.427  19.522  0.00  0.00    +0.000 OA
ATOM      2  C   UNL     1       4.994   4.546  19.005  0.00  0.00    +0.000 C 
ATOM      3  N   UNL     1       3.851   5.324  19.130  0.00  0.00    +0.000 N 
ATOM      4  C   UNL     1       2.734   4.802  19.945  0.00  0.00    +0.000 C 
ATOM      5  C   UNL     1       2.172   5.880  20.896  0.00  0.00    +0.000 C 
ATOM      6  C   UNL     1       1.941   7.135  20.132  0.00  0.00    +0.000 A 
ATOM      7  C   UNL     1       2.587   7.365  18.933  0.00  0.00    +0.000 A 
ATOM      8  N   UNL     1       2.178   8.581  18.462  0.00  0.00    +0.000 N 
ATOM      9  C   UNL     1       1.292   9.154  19.349  0.00  0.00    +0.000 A 
ATOM     10  C   UNL     1       0.629  10.385  19.290  0.00  0.00    +0.000 A 
ATOM     11  C   UNL     1      -0.215  10.720  20.353  0.00  0.00    +0.000 A 
ATOM     12  C   UNL     1      -0.390   9.855  21.432  0.00  0.00    +0.000 A 
ATOM     13  C   UNL     1       0.275   8.624  21.475  0.00  0.00    +0.000 A 
ATOM     14  C   UNL     1       1.131   8.265  20.415  0.00  0.00    +0.000 A 
ATOM     15  C   UNL     1       3.549   6.462  18.246  0.00  0.00    +0.000 C 
ATOM     16  H   UNL     1       2.478   9.011  17.598  0.00  0.00    +0.000 HD
ENDROOT
BRANCH   2  17
ATOM     17  C   UNL     1       6.178   5.112  18.235  0.00  0.00    +0.000 C 
BRANCH  17  18
ATOM     18  C   UNL     1       6.182   4.803  16.756  0.00  0.00    +0.000 A 
ATOM     19  C   UNL     1       5.452   3.719  16.244  0.00  0.00    +0.000 A 
ATOM     20  C   UNL     1       5.508   3.394  14.887  0.00  0.00    +0.000 A 
ATOM     21  C   UNL     1       6.310   4.135  14.024  0.00  0.00    +0.000 A 
ATOM     22  C   UNL     1       7.061   5.201  14.517  0.00  0.00    +0.000 A 
ATOM     23  C   UNL     1       6.996   5.525  15.872  0.00  0.00    +0.000 A 
BRANCH  23  24
ATOM     24  O   UNL     1       7.739   6.564  16.358  0.00  0.00    +0.000 OA
ATOM     25  H   UNL     1       8.221   6.973  15.618  0.00  0.00    +0.000 HD
ENDBRANCH  23  24
ENDBRANCH  17  18
ENDBRANCH   2  17
TORSDOF 3
ENDMDL
MODEL 6
REMARK VINA RESULT:      -7.6      3.787      7.800
REMARK  Name = 
REMARK  3 active torsions:
REMARK  status: ('A' for Active; 'I' for Inactive)
REMARK    1  A    between atoms: C_2  and  C_3
REMARK    2  A    between atoms: C_3  and  C_4
REMARK    3  A    between atoms: C_9  and  O_10
REMARK                            x       y       z     vdW  Elec       q    Type
REMARK                         _______ _______ _______ _____ _____    ______ ____
ROOT
ATOM      1  O   UNL     1      -0.403  10.055  20.955  0.00  0.00    +0.000 OA
ATOM      2  C   UNL     1       0.220   9.931  19.896  0.00  0.00    +0.000 C 
ATOM      3  N   UNL     1       1.198   8.961  19.728  0.00  0.00    +0.000 N 
ATOM      4  C   UNL     1       1.459   8.029  20.846  0.00  0.00    +0.000 C 
ATOM      5  C   UNL     1       1.563   6.569  20.356  0.00  0.00    +0.000 C 
ATOM      6  C   UNL     1       2.473   6.510  19.181  0.00  0.00    +0.000 A 
ATOM      7  C   UNL     1       2.740   7.639  18.433  0.00  0.00    +0.000 A 
ATOM      8  N   UNL     1       3.605   7.286  17.434  0.00  0.00    +0.000 N 
ATOM      9  C   UNL     1       3.886   5.940  17.510  0.00  0.00    +0.000 A 
ATOM     10  C   UNL     1       4.703   5.143  16.700  0.00  0.00    +0.000 A 
ATOM     11  C   UNL     1       4.794   3.783  17.007  0.00  0.00    +0.000 A 
ATOM     12  C   UNL     1       4.095   3.240  18.084  0.00  0.00    +0.000 A 
ATOM     13  C   UNL     1       3.285   4.050  18.889  0.00  0.00    +0.000 A 
ATOM     14  C   UNL     1       3.178   5.425  18.600  0.00  0.00    +0.000 A 
ATOM     15  C   UNL     1       2.209   9.011  18.658  0.00  0.00    +0.000 C 
ATOM     16  H   UNL     1       3.982   7.910  16.734  0.00  0.00    +0.000 HD
ENDROOT
BRANCH   2  17
ATOM     17  C   UNL     1      -0.111  10.840  18.722  0.00  0.00    +0.000 C 
BRANCH  17  18
ATOM     18  C   UNL     1      -1.536  10.751  18.229  0.00  0.00    +0.000 A 
ATOM     19  C   UNL     1      -1.876   9.918  17.151  0.00  0.00    +0.000 A 
ATOM     20  C   UNL     1      -3.180   9.885  16.654  0.00  0.00    +0.000 A 
ATOM     21  C   UNL     1      -4.161  10.700  17.212  0.00  0.00    +0.000 A 
ATOM     22  C   UNL     1      -3.839  11.551  18.268  0.00  0.00    +0.000 A 
ATOM     23  C   UNL     1      -2.536  11.575  18.765  0.00  0.00    +0.000 A 
BRANCH  23  24
ATOM     24  O   UNL     1      -2.218  12.416  19.794  0.00  0.00    +0.000 OA
ATOM     25  H   UNL     1      -1.339  12.796  19.623  0.00  0.00    +0.000 HD
ENDBRANCH  23  24
ENDBRANCH  17  18
ENDBRANCH   2  17
TORSDOF 3
ENDMDL
MODEL 7
REMARK VINA RESULT:      -7.5      2.492      6.689
REMARK  Name = 
REMARK  3 active torsions:
REMARK  status: ('A' for Active; 'I' for Inactive)
REMARK    1  A    between atoms: C_2  and  C_3
REMARK    2  A    between atoms: C_3  and  C_4
REMARK    3  A    between atoms: C_9  and  O_10
REMARK                            x       y       z     vdW  Elec       q    Type
REMARK                         _______ _______ _______ _____ _____    ______ ____
ROOT
ATOM      1  O   UNL     1       0.938   4.516  20.448  0.00  0.00    +0.000 OA
ATOM      2  C   UNL     1       1.952   5.178  20.204  0.00  0.00    +0.000 C 
ATOM      3  N   UNL     1       2.914   4.742  19.304  0.00  0.00    +0.000 N 
ATOM      4  C   UNL     1       2.682   3.468  18.592  0.00  0.00    +0.000 C 
ATOM      5  C   UNL     1       2.991   3.594  17.085  0.00  0.00    +0.000 C 
ATOM      6  C   UNL     1       4.313   4.251  16.909  0.00  0.00    +0.000 A 
ATOM      7  C   UNL     1       4.867   5.013  17.919  0.00  0.00    +0.000 A 
ATOM      8  N   UNL     1       6.076   5.478  17.481  0.00  0.00    +0.000 N 
ATOM      9  C   UNL     1       6.305   5.047  16.192  0.00  0.00    +0.000 A 
ATOM     10  C   UNL     1       7.393   5.283  15.344  0.00  0.00    +0.000 A 
ATOM     11  C   UNL     1       7.352   4.722  14.064  0.00  0.00    +0.000 A 
ATOM     12  C   UNL     1       6.265   3.955  13.649  0.00  0.00    +0.000 A 
ATOM     13  C   UNL     1       5.186   3.723  14.510  0.00  0.00    +0.000 A 
ATOM     14  C   UNL     1       5.205   4.277  15.805  0.00  0.00    +0.000 A 
ATOM     15  C   UNL     1       4.283   5.283  19.261  0.00  0.00    +0.000 C 
ATOM     16  H   UNL     1       6.711   6.058  18.010  0.00  0.00    +0.000 HD
ENDROOT
BRANCH   2  17
ATOM     17  C   UNL     1       2.146   6.527  20.879  0.00  0.00    +0.000 C 
BRANCH  17  18
ATOM     18  C   UNL     1       1.721   7.719  20.054  0.00  0.00    +0.000 A 
ATOM     19  C   UNL     1       2.045   7.804  18.691  0.00  0.00    +0.000 A 
ATOM     20  C   UNL     1       1.710   8.935  17.943  0.00  0.00    +0.000 A 
ATOM     21  C   UNL     1       1.063  10.007  18.551  0.00  0.00    +0.000 A 
ATOM     22  C   UNL     1       0.753   9.952  19.909  0.00  0.00    +0.000 A 
ATOM     23  C   UNL     1       1.085   8.817  20.649  0.00  0.00    +0.000 A 
BRANCH  23  24
ATOM     24  O   UNL     1       0.790   8.767  21.983  0.00  0.00    +0.000 OA
ATOM     25  H   UNL     1      -0.120   8.439  22.087  0.00  0.00    +0.000 HD
ENDBRANCH  23  24
ENDBRANCH  17  18
ENDBRANCH   2  17
TORSDOF 3
ENDMDL
MODEL 8
REMARK VINA RESULT:      -7.4      3.334      8.090
REMARK  Name = 
REMARK  3 active torsions:
REMARK  status: ('A' for Active; 'I' for Inactive)
REMARK    1  A    between atoms: C_2  and  C_3
REMARK    2  A    between atoms: C_3  and  C_4
REMARK    3  A    between atoms: C_9  and  O_10
REMARK                            x       y       z     vdW  Elec       q    Type
REMARK                         _______ _______ _______ _____ _____    ______ ____
ROOT
ATOM      1  O   UNL     1       0.834  11.982  18.680  0.00  0.00    +0.000 OA
ATOM      2  C   UNL     1       0.997  11.149  19.578  0.00  0.00    +0.000 C 
ATOM      3  N   UNL     1       1.213   9.806  19.302  0.00  0.00    +0.000 N 
ATOM      4  C   UNL     1       1.291   9.385  17.887  0.00  0.00    +0.000 C 
ATOM      5  C   UNL     1       2.484   8.436  17.641  0.00  0.00    +0.000 C 
ATOM      6  C   UNL     1       2.485   7.371  18.679  0.00  0.00    +0.000 A 
ATOM      7  C   UNL     1       1.818   7.545  19.876  0.00  0.00    +0.000 A 
ATOM      8  N   UNL     1       1.986   6.411  20.620  0.00  0.00    +0.000 N 
ATOM      9  C   UNL     1       2.770   5.510  19.932  0.00  0.00    +0.000 A 
ATOM     10  C   UNL     1       3.208   4.233  20.301  0.00  0.00    +0.000 A 
ATOM     11  C   UNL     1       4.017   3.538  19.397  0.00  0.00    +0.000 A 
ATOM     12  C   UNL     1       4.372   4.099  18.171  0.00  0.00    +0.000 A 
ATOM     13  C   UNL     1       3.921   5.375  17.813  0.00  0.00    +0.000 A 
ATOM     14  C   UNL     1       3.104   6.095  18.708  0.00  0.00    +0.000 A 
ATOM     15  C   UNL     1       1.036   8.738  20.301  0.00  0.00    +0.000 C 
ATOM     16  H   UNL     1       1.603   6.248  21.541  0.00  0.00    +0.000 HD
ENDROOT
BRANCH   2  17
ATOM     17  C   UNL     1       0.996  11.601  21.030  0.00  0.00    +0.000 C 
BRANCH  17  18
ATOM     18  C   UNL     1      -0.371  11.887  21.607  0.00  0.00    +0.000 A 
ATOM     19  C   UNL     1      -1.185  12.895  21.067  0.00  0.00    +0.000 A 
ATOM     20  C   UNL     1      -2.420  13.203  21.641  0.00  0.00    +0.000 A 
ATOM     21  C   UNL     1      -2.852  12.523  22.776  0.00  0.00    +0.000 A 
ATOM     22  C   UNL     1      -2.048  11.534  23.341  0.00  0.00    +0.000 A 
ATOM     23  C   UNL     1      -0.818  11.226  22.759  0.00  0.00    +0.000 A 
BRANCH  23  24
ATOM     24  O   UNL     1      -0.025  10.263  23.319  0.00  0.00    +0.000 OA
ATOM     25  H   UNL     1       0.860  10.319  22.919  0.00  0.00    +0.000 HD
ENDBRANCH  23  24
ENDBRANCH  17  18
ENDBRANCH   2  17
TORSDOF 3
ENDMDL
MODEL 9
REMARK VINA RESULT:      -7.4      4.116      8.029
REMARK  Name = 
REMARK  3 active torsions:
REMARK  status: ('A' for Active; 'I' for Inactive)
REMARK    1  A    between atoms: C_2  and  C_3
REMARK    2  A    between atoms: C_3  and  C_4
REMARK    3  A    between atoms: C_9  and  O_10
REMARK                            x       y       z     vdW  Elec       q    Type
REMARK                         _______ _______ _______ _____ _____    ______ ____
ROOT
ATOM      1  O   UNL     1      -0.577  11.873  21.057  0.00  0.00    +0.000 OA
ATOM      2  C   UNL     1      -0.155  11.387  20.002  0.00  0.00    +0.000 C 
ATOM      3  N   UNL     1       0.729  10.317  19.989  0.00  0.00    +0.000 N 
ATOM      4  C   UNL     1       1.134   9.726  21.282  0.00  0.00    +0.000 C 
ATOM      5  C   UNL     1       1.076   8.184  21.246  0.00  0.00    +0.000 C 
ATOM      6  C   UNL     1       1.763   7.697  20.020  0.00  0.00    +0.000 A 
ATOM      7  C   UNL     1       1.953   8.530  18.934  0.00  0.00    +0.000 A 
ATOM      8  N   UNL     1       2.611   7.819  17.969  0.00  0.00    +0.000 N 
ATOM      9  C   UNL     1       2.833   6.531  18.404  0.00  0.00    +0.000 A 
ATOM     10  C   UNL     1       3.455   5.457  17.757  0.00  0.00    +0.000 A 
ATOM     11  C   UNL     1       3.530   4.241  18.443  0.00  0.00    +0.000 A 
ATOM     12  C   UNL     1       3.003   4.105  19.727  0.00  0.00    +0.000 A 
ATOM     13  C   UNL     1       2.388   5.190  20.363  0.00  0.00    +0.000 A 
ATOM     14  C   UNL     1       2.301   6.425  19.692  0.00  0.00    +0.000 A 
ATOM     15  C   UNL     1       1.539   9.954  18.814  0.00  0.00    +0.000 C 
ATOM     16  H   UNL     1       2.891   8.172  17.065  0.00  0.00    +0.000 HD
ENDROOT
BRANCH   2  17
ATOM     17  C   UNL     1      -0.639  11.946  18.673  0.00  0.00    +0.000 C 
BRANCH  17  18
ATOM     18  C   UNL     1      -1.945  11.370  18.177  0.00  0.00    +0.000 A 
ATOM     19  C   UNL     1      -1.964  10.384  17.178  0.00  0.00    +0.000 A 
ATOM     20  C   UNL     1      -3.173   9.899  16.673  0.00  0.00    +0.000 A 
ATOM     21  C   UNL     1      -4.380  10.406  17.144  0.00  0.00    +0.000 A 
ATOM     22  C   UNL     1      -4.382  11.402  18.120  0.00  0.00    +0.000 A 
ATOM     23  C   UNL     1      -3.172  11.878  18.626  0.00  0.00    +0.000 A 
BRANCH  23  24
ATOM     24  O   UNL     1      -3.174  12.861  19.575  0.00  0.00    +0.000 OA
ATOM     25  H   UNL     1      -3.771  13.572  19.284  0.00  0.00    +0.000 HD
ENDBRANCH  23  24
ENDBRANCH  17  18
ENDBRANCH   2  17
TORSDOF 3
ENDMDL
