MODEL 1
REMARK VINA RESULT:      -7.3      0.000      0.000
REMARK  Name = 
REMARK  4 active torsions:
REMARK  status: ('A' for Active; 'I' for Inactive)
REMARK    1  A    between atoms: C_1  and  C_2
REMARK    2  A    between atoms: C_2  and  C_3
REMARK    3  A    between atoms: C_3  and  C_4
REMARK    4  A    between atoms: C_10  and  C_11
REMARK                            x       y       z     vdW  Elec       q    Type
REMARK                         _______ _______ _______ _____ _____    ______ ____
ROOT
ATOM      1  C   UNL     1       6.291   3.784  12.615  0.00  0.00    +0.000 C 
ATOM      2  O   UNL     1       5.103   3.488  12.677  0.00  0.00    +0.000 OA
ATOM      3  N   UNL     1       7.036   4.423  13.581  0.00  0.00    +0.000 N 
ATOM      4  C   UNL     1       6.602   4.723  14.851  0.00  0.00    +0.000 A 
ATOM      5  N   UNL     1       7.261   5.509  15.671  0.00  0.00    +0.000 NA
ATOM      6  N   UNL     1       6.604   5.661  16.882  0.00  0.00    +0.000 NA
ATOM      7  C   UNL     1       5.479   4.970  16.933  0.00  0.00    +0.000 A 
ATOM      8  S   UNL     1       5.205   4.027  15.522  0.00  0.00    +0.000 S 
ATOM      9  H   UNL     1       7.935   4.819  13.346  0.00  0.00    +0.000 HD
ENDROOT
BRANCH   7  10
ATOM     10  C   UNL     1       4.544   4.929  18.065  0.00  0.00    +0.000 A 
ATOM     11  C   UNL     1       3.828   6.099  18.421  0.00  0.00    +0.000 A 
ATOM     12  C   UNL     1       2.938   6.108  19.505  0.00  0.00    +0.000 A 
ATOM     13  C   UNL     1       2.776   4.938  20.213  0.00  0.00    +0.000 A 
ATOM     14  C   UNL     1       3.452   3.793  19.870  0.00  0.00    +0.000 A 
ATOM     15  C   UNL     1       4.334   3.756  18.808  0.00  0.00    +0.000 A 
ATOM     16  O   UNL     1       3.152   2.748  20.685  0.00  0.00    +0.000 OA
ATOM     17  C   UNL     1       2.229   3.376  21.600  0.00  0.00    +0.000 C 
ATOM     18  O   UNL     1       1.966   4.757  21.288  0.00  0.00    +0.000 OA
ENDBRANCH   7  10
BRANCH   1  19
ATOM     19  C   UNL     1       7.085   3.455  11.366  0.00  0.00    +0.000 C 
BRANCH  19  21
ATOM     20  C   UNL     1       6.311   1.064  10.976  0.00  0.00    +0.000 C 
ATOM     21  C   UNL     1       7.486   1.985  11.284  0.00  0.00    +0.000 C 
ENDBRANCH  19  21
ENDBRANCH   1  19
TORSDOF 3
ENDMDL
MODEL 2
REMARK VINA RESULT:      -7.0      1.257      1.643
REMARK  Name = 
REMARK  4 active torsions:
REMARK  status: ('A' for Active; 'I' for Inactive)
REMARK    1  A    between atoms: C_1  and  C_2
REMARK    2  A    between atoms: C_2  and  C_3
REMARK    3  A    between atoms: C_3  and  C_4
REMARK    4  A    between atoms: C_10  and  C_11
REMARK                            x       y       z     vdW  Elec       q    Type
REMARK                         _______ _______ _______ _____ _____    ______ ____
ROOT
ATOM      1  C   UNL     1       6.250   3.112  12.346  0.00  0.00    +0.000 C 
ATOM      2  O   UNL     1       5.024   3.128  12.333  0.00  0.00    +0.000 OA
ATOM      3  N   UNL     1       7.077   3.782  13.219  0.00  0.00    +0.000 N 
ATOM      4  C   UNL     1       6.663   4.488  14.323  0.00  0.00    +0.000 A 
ATOM      5  N   UNL     1       7.453   5.280  15.011  0.00  0.00    +0.000 NA
ATOM      6  N   UNL     1       6.788   5.883  16.067  0.00  0.00    +0.000 NA
ATOM      7  C   UNL     1       5.523   5.511  16.143  0.00  0.00    +0.000 A 
ATOM      8  S   UNL     1       5.098   4.332  14.967  0.00  0.00    +0.000 S 
ATOM      9  H   UNL     1       8.059   3.885  13.007  0.00  0.00    +0.000 HD
ENDROOT
BRANCH   7  10
ATOM     10  C   UNL     1       4.546   5.979  17.135  0.00  0.00    +0.000 A 
ATOM     11  C   UNL     1       4.043   7.301  17.050  0.00  0.00    +0.000 A 
ATOM     12  C   UNL     1       3.121   7.793  17.984  0.00  0.00    +0.000 A 
ATOM     13  C   UNL     1       2.713   6.946  18.991  0.00  0.00    +0.000 A 
ATOM     14  C   UNL     1       3.181   5.658  19.079  0.00  0.00    +0.000 A 
ATOM     15  C   UNL     1       4.088   5.148  18.171  0.00  0.00    +0.000 A 
ATOM     16  O   UNL     1       2.655   4.984  20.135  0.00  0.00    +0.000 OA
ATOM     17  C   UNL     1       1.823   6.008  20.721  0.00  0.00    +0.000 C 
ATOM     18  O   UNL     1       1.835   7.245  19.984  0.00  0.00    +0.000 OA
ENDBRANCH   7  10
BRANCH   1  19
ATOM     19  C   UNL     1       7.004   2.300  11.310  0.00  0.00    +0.000 C 
BRANCH  19  21
ATOM     20  C   UNL     1       6.323  -0.146  11.448  0.00  0.00    +0.000 C 
ATOM     21  C   UNL     1       6.165   1.176  10.708  0.00  0.00    +0.000 C 
ENDBRANCH  19  21
ENDBRANCH   1  19
TORSDOF 3
ENDMDL
MODEL 3
REMARK VINA RESULT:      -7.0      3.697      5.044
REMARK  Name = 
REMARK  4 active torsions:
REMARK  status: ('A' for Active; 'I' for Inactive)
REMARK    1  A    between atoms: C_1  and  C_2
REMARK    2  A    between atoms: C_2  and  C_3
REMARK    3  A    between atoms: C_3  and  C_4
REMARK    4  A    between atoms: C_10  and  C_11
REMARK                            x       y       z     vdW  Elec       q    Type
REMARK                         _______ _______ _______ _____ _____    ______ ____
ROOT
ATOM      1  C   UNL     1       5.756   5.271  15.782  0.00  0.00    +0.000 C 
ATOM      2  O   UNL     1       5.796   6.482  15.591  0.00  0.00    +0.000 OA
ATOM      3  N   UNL     1       5.096   4.616  16.797  0.00  0.00    +0.000 N 
ATOM      4  C   UNL     1       4.249   5.204  17.706  0.00  0.00    +0.000 A 
ATOM      5  N   UNL     1       3.803   4.591  18.778  0.00  0.00    +0.000 NA
ATOM      6  N   UNL     1       2.978   5.408  19.535  0.00  0.00    +0.000 NA
ATOM      7  C   UNL     1       2.823   6.604  18.996  0.00  0.00    +0.000 A 
ATOM      8  S   UNL     1       3.619   6.766  17.481  0.00  0.00    +0.000 S 
ATOM      9  H   UNL     1       5.309   3.649  16.996  0.00  0.00    +0.000 HD
ENDROOT
BRANCH   7  10
ATOM     10  C   UNL     1       2.027   7.704  19.556  0.00  0.00    +0.000 A 
ATOM     11  C   UNL     1       1.550   7.613  20.888  0.00  0.00    +0.000 A 
ATOM     12  C   UNL     1       0.775   8.633  21.457  0.00  0.00    +0.000 A 
ATOM     13  C   UNL     1       0.492   9.735  20.678  0.00  0.00    +0.000 A 
ATOM     14  C   UNL     1       0.959   9.843  19.392  0.00  0.00    +0.000 A 
ATOM     15  C   UNL     1       1.726   8.854  18.808  0.00  0.00    +0.000 A 
ATOM     16  O   UNL     1       0.578  11.003  18.796  0.00  0.00    +0.000 OA
ATOM     17  C   UNL     1      -0.208  11.601  19.849  0.00  0.00    +0.000 C 
ATOM     18  O   UNL     1      -0.243  10.813  21.054  0.00  0.00    +0.000 OA
ENDBRANCH   7  10
BRANCH   1  19
ATOM     19  C   UNL     1       6.499   4.336  14.847  0.00  0.00    +0.000 C 
BRANCH  19  21
ATOM     20  C   UNL     1       6.473   3.554  12.428  0.00  0.00    +0.000 C 
ATOM     21  C   UNL     1       5.648   3.869  13.670  0.00  0.00    +0.000 C 
ENDBRANCH  19  21
ENDBRANCH   1  19
TORSDOF 3
ENDMDL
MODEL 4
REMARK VINA RESULT:      -7.0      4.749      9.143
REMARK  Name = 
REMARK  4 active torsions:
REMARK  status: ('A' for Active; 'I' for Inactive)
REMARK    1  A    between atoms: C_1  and  C_2
REMARK    2  A    between atoms: C_2  and  C_3
REMARK    3  A    between atoms: C_3  and  C_4
REMARK    4  A    between atoms: C_10  and  C_11
REMARK                            x       y       z     vdW  Elec       q    Type
REMARK                         _______ _______ _______ _____ _____    ______ ____
ROOT
ATOM      1  C   UNL     1       0.468   9.638  21.758  0.00  0.00    +0.000 C 
ATOM      2  O   UNL     1       1.186   8.830  22.337  0.00  0.00    +0.000 OA
ATOM      3  N   UNL     1       0.472   9.934  20.414  0.00  0.00    +0.000 N 
ATOM      4  C   UNL     1       1.201   9.270  19.455  0.00  0.00    +0.000 A 
ATOM      5  N   UNL     1       1.340   9.706  18.224  0.00  0.00    +0.000 NA
ATOM      6  N   UNL     1       2.133   8.862  17.463  0.00  0.00    +0.000 NA
ATOM      7  C   UNL     1       2.551   7.812  18.148  0.00  0.00    +0.000 A 
ATOM      8  S   UNL     1       1.924   7.761  19.748  0.00  0.00    +0.000 S 
ATOM      9  H   UNL     1       0.007  10.765  20.078  0.00  0.00    +0.000 HD
ENDROOT
BRANCH   7  10
ATOM     10  C   UNL     1       3.418   6.742  17.638  0.00  0.00    +0.000 A 
ATOM     11  C   UNL     1       3.051   5.389  17.842  0.00  0.00    +0.000 A 
ATOM     12  C   UNL     1       3.857   4.337  17.385  0.00  0.00    +0.000 A 
ATOM     13  C   UNL     1       5.022   4.661  16.724  0.00  0.00    +0.000 A 
ATOM     14  C   UNL     1       5.384   5.968  16.506  0.00  0.00    +0.000 A 
ATOM     15  C   UNL     1       4.608   7.022  16.945  0.00  0.00    +0.000 A 
ATOM     16  O   UNL     1       6.559   6.077  15.834  0.00  0.00    +0.000 OA
ATOM     17  C   UNL     1       6.911   4.686  15.678  0.00  0.00    +0.000 C 
ATOM     18  O   UNL     1       5.926   3.784  16.217  0.00  0.00    +0.000 OA
ENDBRANCH   7  10
BRANCH   1  19
ATOM     19  C   UNL     1      -0.548  10.442  22.547  0.00  0.00    +0.000 C 
BRANCH  19  21
ATOM     20  C   UNL     1      -1.940  12.425  21.776  0.00  0.00    +0.000 C 
ATOM     21  C   UNL     1      -0.558  11.921  22.172  0.00  0.00    +0.000 C 
ENDBRANCH  19  21
ENDBRANCH   1  19
TORSDOF 3
ENDMDL
MODEL 5
REMARK VINA RESULT:      -7.0      1.845      2.748
REMARK  Name = 
REMARK  4 active torsions:
REMARK  status: ('A' for Active; 'I' for Inactive)
REMARK    1  A    between atoms: C_1  and  C_2
REMARK    2  A    between atoms: C_2  and  C_3
REMARK    3  A    between atoms: C_3  and  C_4
REMARK    4  A    between atoms: C_10  and  C_11
REMARK                            x       y       z     vdW  Elec       q    Type
REMARK                         _______ _______ _______ _____ _____    ______ ____
ROOT
ATOM      1  C   UNL     1       6.079   3.250  12.431  0.00  0.00    +0.000 C 
ATOM      2  O   UNL     1       4.862   3.396  12.384  0.00  0.00    +0.000 OA
ATOM      3  N   UNL     1       6.944   3.809  13.344  0.00  0.00    +0.000 N 
ATOM      4  C   UNL     1       6.574   4.530  14.454  0.00  0.00    +0.000 A 
ATOM      5  N   UNL     1       7.421   5.219  15.183  0.00  0.00    +0.000 NA
ATOM      6  N   UNL     1       6.792   5.866  16.235  0.00  0.00    +0.000 NA
ATOM      7  C   UNL     1       5.492   5.629  16.265  0.00  0.00    +0.000 A 
ATOM      8  S   UNL     1       4.982   4.528  15.048  0.00  0.00    +0.000 S 
ATOM      9  H   UNL     1       7.938   3.810  13.163  0.00  0.00    +0.000 HD
ENDROOT
BRANCH   7  10
ATOM     10  C   UNL     1       4.540   6.177  17.240  0.00  0.00    +0.000 A 
ATOM     11  C   UNL     1       4.295   5.475  18.447  0.00  0.00    +0.000 A 
ATOM     12  C   UNL     1       3.383   5.955  19.398  0.00  0.00    +0.000 A 
ATOM     13  C   UNL     1       2.733   7.139  19.124  0.00  0.00    +0.000 A 
ATOM     14  C   UNL     1       2.971   7.837  17.965  0.00  0.00    +0.000 A 
ATOM     15  C   UNL     1       3.864   7.387  17.013  0.00  0.00    +0.000 A 
ATOM     16  O   UNL     1       2.238   8.978  17.885  0.00  0.00    +0.000 OA
ATOM     17  C   UNL     1       1.487   8.903  19.117  0.00  0.00    +0.000 C 
ATOM     18  O   UNL     1       1.818   7.752  19.918  0.00  0.00    +0.000 OA
ENDBRANCH   7  10
BRANCH   1  19
ATOM     19  C   UNL     1       6.774   2.385  11.397  0.00  0.00    +0.000 C 
BRANCH  19  21
ATOM     20  C   UNL     1       6.348  -0.122  11.444  0.00  0.00    +0.000 C 
ATOM     21  C   UNL     1       5.905   1.232  10.903  0.00  0.00    +0.000 C 
ENDBRANCH  19  21
ENDBRANCH   1  19
TORSDOF 3
ENDMDL
MODEL 6
REMARK VINA RESULT:      -6.8      4.265      8.728
REMARK  Name = 
REMARK  4 active torsions:
REMARK  status: ('A' for Active; 'I' for Inactive)
REMARK    1  A    between atoms: C_1  and  C_2
REMARK    2  A    between atoms: C_2  and  C_3
REMARK    3  A    between atoms: C_3  and  C_4
REMARK    4  A    between atoms: C_10  and  C_11
REMARK                            x       y       z     vdW  Elec       q    Type
REMARK                         _______ _______ _______ _____ _____    ______ ____
ROOT
ATOM      1  C   UNL     1       0.667   9.856  19.931  0.00  0.00    +0.000 C 
ATOM      2  O   UNL     1       0.831  10.088  18.738  0.00  0.00    +0.000 OA
ATOM      3  N   UNL     1       1.010   8.705  20.604  0.00  0.00    +0.000 N 
ATOM      4  C   UNL     1       1.724   7.656  20.075  0.00  0.00    +0.000 A 
ATOM      5  N   UNL     1       1.854   6.495  20.675  0.00  0.00    +0.000 NA
ATOM      6  N   UNL     1       2.609   5.607  19.926  0.00  0.00    +0.000 NA
ATOM      7  C   UNL     1       3.032   6.138  18.793  0.00  0.00    +0.000 A 
ATOM      8  S   UNL     1       2.593   7.791  18.621  0.00  0.00    +0.000 S 
ATOM      9  H   UNL     1       0.631   8.526  21.523  0.00  0.00    +0.000 HD
ENDROOT
BRANCH   7  10
ATOM     10  C   UNL     1       3.838   5.457  17.772  0.00  0.00    +0.000 A 
ATOM     11  C   UNL     1       3.812   4.043  17.691  0.00  0.00    +0.000 A 
ATOM     12  C   UNL     1       4.578   3.352  16.741  0.00  0.00    +0.000 A 
ATOM     13  C   UNL     1       5.356   4.095  15.880  0.00  0.00    +0.000 A 
ATOM     14  C   UNL     1       5.380   5.466  15.937  0.00  0.00    +0.000 A 
ATOM     15  C   UNL     1       4.635   6.171  16.862  0.00  0.00    +0.000 A 
ATOM     16  O   UNL     1       6.202   6.012  15.003  0.00  0.00    +0.000 OA
ATOM     17  C   UNL     1       6.717   4.821  14.369  0.00  0.00    +0.000 C 
ATOM     18  O   UNL     1       6.162   3.604  14.904  0.00  0.00    +0.000 OA
ENDBRANCH   7  10
BRANCH   1  19
ATOM     19  C   UNL     1       0.011  10.897  20.818  0.00  0.00    +0.000 C 
BRANCH  19  21
ATOM     20  C   UNL     1      -1.349  11.181  22.947  0.00  0.00    +0.000 C 
ATOM     21  C   UNL     1      -0.261  10.391  22.231  0.00  0.00    +0.000 C 
ENDBRANCH  19  21
ENDBRANCH   1  19
TORSDOF 3
ENDMDL
MODEL 7
REMARK VINA RESULT:      -6.8      0.908      1.758
REMARK  Name = 
REMARK  4 active torsions:
REMARK  status: ('A' for Active; 'I' for Inactive)
REMARK    1  A    between atoms: C_1  and  C_2
REMARK    2  A    between atoms: C_2  and  C_3
REMARK    3  A    between atoms: C_3  and  C_4
REMARK    4  A    between atoms: C_10  and  C_11
REMARK                            x       y       z     vdW  Elec       q    Type
REMARK                         _______ _______ _______ _____ _____    ______ ____
ROOT
ATOM      1  C   UNL     1       6.378   3.680  12.465  0.00  0.00    +0.000 C 
ATOM      2  O   UNL     1       5.178   3.432  12.529  0.00  0.00    +0.000 OA
ATOM      3  N   UNL     1       7.136   4.343  13.403  0.00  0.00    +0.000 N 
ATOM      4  C   UNL     1       6.702   4.731  14.649  0.00  0.00    +0.000 A 
ATOM      5  N   UNL     1       7.382   5.536  15.432  0.00  0.00    +0.000 NA
ATOM      6  N   UNL     1       6.719   5.780  16.624  0.00  0.00    +0.000 NA
ATOM      7  C   UNL     1       5.568   5.135  16.700  0.00  0.00    +0.000 A 
ATOM      8  S   UNL     1       5.273   4.126  15.340  0.00  0.00    +0.000 S 
ATOM      9  H   UNL     1       8.052   4.692  13.157  0.00  0.00    +0.000 HD
ENDROOT
BRANCH   7  10
ATOM     10  C   UNL     1       4.622   5.193  17.822  0.00  0.00    +0.000 A 
ATOM     11  C   UNL     1       4.417   4.043  18.623  0.00  0.00    +0.000 A 
ATOM     12  C   UNL     1       3.511   4.051  19.694  0.00  0.00    +0.000 A 
ATOM     13  C   UNL     1       2.827   5.219  19.947  0.00  0.00    +0.000 A 
ATOM     14  C   UNL     1       3.026   6.346  19.189  0.00  0.00    +0.000 A 
ATOM     15  C   UNL     1       3.912   6.366  18.130  0.00  0.00    +0.000 A 
ATOM     16  O   UNL     1       2.264   7.393  19.602  0.00  0.00    +0.000 OA
ATOM     17  C   UNL     1       1.539   6.784  20.692  0.00  0.00    +0.000 C 
ATOM     18  O   UNL     1       1.913   5.414  20.933  0.00  0.00    +0.000 OA
ENDBRANCH   7  10
BRANCH   1  19
ATOM     19  C   UNL     1       7.171   3.252  11.245  0.00  0.00    +0.000 C 
BRANCH  19  21
ATOM     20  C   UNL     1       6.177   0.925  10.990  0.00  0.00    +0.000 C 
ATOM     21  C   UNL     1       7.440   1.750  11.206  0.00  0.00    +0.000 C 
ENDBRANCH  19  21
ENDBRANCH   1  19
TORSDOF 3
ENDMDL
MODEL 8
REMARK VINA RESULT:      -6.7      3.788      5.102
REMARK  Name = 
REMARK  4 active torsions:
REMARK  status: ('A' for Active; 'I' for Inactive)
REMARK    1  A    between atoms: C_1  and  C_2
REMARK    2  A    between atoms: C_2  and  C_3
REMARK    3  A    between atoms: C_3  and  C_4
REMARK    4  A    between atoms: C_10  and  C_11
REMARK                            x       y       z     vdW  Elec       q    Type
REMARK                         _______ _______ _______ _____ _____    ______ ____
ROOT
ATOM      1  C   UNL     1       6.193   5.618  16.385  0.00  0.00    +0.000 C 
ATOM      2  O   UNL     1       6.471   6.804  16.526  0.00  0.00    +0.000 OA
ATOM      3  N   UNL     1       5.148   4.939  16.970  0.00  0.00    +0.000 N 
ATOM      4  C   UNL     1       4.146   5.510  17.717  0.00  0.00    +0.000 A 
ATOM      5  N   UNL     1       3.288   4.814  18.427  0.00  0.00    +0.000 NA
ATOM      6  N   UNL     1       2.390   5.629  19.097  0.00  0.00    +0.000 NA
ATOM      7  C   UNL     1       2.598   6.911  18.856  0.00  0.00    +0.000 A 
ATOM      8  S   UNL     1       3.862   7.185  17.724  0.00  0.00    +0.000 S 
ATOM      9  H   UNL     1       5.140   3.928  16.971  0.00  0.00    +0.000 HD
ENDROOT
BRANCH   7  10
ATOM     10  C   UNL     1       1.833   8.029  19.424  0.00  0.00    +0.000 A 
ATOM     11  C   UNL     1       1.490   9.130  18.602  0.00  0.00    +0.000 A 
ATOM     12  C   UNL     1       0.774  10.225  19.108  0.00  0.00    +0.000 A 
ATOM     13  C   UNL     1       0.407  10.193  20.435  0.00  0.00    +0.000 A 
ATOM     14  C   UNL     1       0.719   9.126  21.241  0.00  0.00    +0.000 A 
ATOM     15  C   UNL     1       1.423   8.036  20.768  0.00  0.00    +0.000 A 
ATOM     16  O   UNL     1       0.265   9.284  22.512  0.00  0.00    +0.000 OA
ATOM     17  C   UNL     1      -0.345  10.589  22.420  0.00  0.00    +0.000 C 
ATOM     18  O   UNL     1      -0.282  11.158  21.099  0.00  0.00    +0.000 OA
ENDBRANCH   7  10
BRANCH   1  19
ATOM     19  C   UNL     1       7.057   4.742  15.497  0.00  0.00    +0.000 C 
BRANCH  19  21
ATOM     20  C   UNL     1       5.940   3.912  13.369  0.00  0.00    +0.000 C 
ATOM     21  C   UNL     1       6.273   3.617  14.826  0.00  0.00    +0.000 C 
ENDBRANCH  19  21
ENDBRANCH   1  19
TORSDOF 3
ENDMDL
MODEL 9
REMARK VINA RESULT:      -6.7      4.596      6.257
REMARK  Name = 
REMARK  4 active torsions:
REMARK  status: ('A' for Active; 'I' for Inactive)
REMARK    1  A    between atoms: C_1  and  C_2
REMARK    2  A    between atoms: C_2  and  C_3
REMARK    3  A    between atoms: C_3  and  C_4
REMARK    4  A    between atoms: C_10  and  C_11
REMARK                            x       y       z     vdW  Elec       q    Type
REMARK                         _______ _______ _______ _____ _____    ______ ____
ROOT
ATOM      1  C   UNL     1       4.776   5.557  16.747  0.00  0.00    +0.000 C 
ATOM      2  O   UNL     1       4.882   6.723  16.382  0.00  0.00    +0.000 OA
ATOM      3  N   UNL     1       4.092   5.095  17.848  0.00  0.00    +0.000 N 
ATOM      4  C   UNL     1       3.289   5.856  18.664  0.00  0.00    +0.000 A 
ATOM      5  N   UNL     1       2.820   5.432  19.815  0.00  0.00    +0.000 NA
ATOM      6  N   UNL     1       2.051   6.395  20.447  0.00  0.00    +0.000 NA
ATOM      7  C   UNL     1       1.957   7.507  19.740  0.00  0.00    +0.000 A 
ATOM      8  S   UNL     1       2.745   7.402  18.216  0.00  0.00    +0.000 S 
ATOM      9  H   UNL     1       4.252   4.156  18.185  0.00  0.00    +0.000 HD
ENDROOT
BRANCH   7  10
ATOM     10  C   UNL     1       1.230   8.720  20.136  0.00  0.00    +0.000 A 
ATOM     11  C   UNL     1       0.855   9.663  19.147  0.00  0.00    +0.000 A 
ATOM     12  C   UNL     1       0.173  10.842  19.484  0.00  0.00    +0.000 A 
ATOM     13  C   UNL     1      -0.126  11.053  20.812  0.00  0.00    +0.000 A 
ATOM     14  C   UNL     1       0.219  10.141  21.779  0.00  0.00    +0.000 A 
ATOM     15  C   UNL     1       0.889   8.973  21.476  0.00  0.00    +0.000 A 
ATOM     16  O   UNL     1      -0.170  10.530  23.023  0.00  0.00    +0.000 OA
ATOM     17  C   UNL     1      -0.774  11.807  22.729  0.00  0.00    +0.000 C 
ATOM     18  O   UNL     1      -0.773  12.131  21.326  0.00  0.00    +0.000 OA
ENDBRANCH   7  10
BRANCH   1  19
ATOM     19  C   UNL     1       5.456   4.456  15.956  0.00  0.00    +0.000 C 
BRANCH  19  21
ATOM     20  C   UNL     1       7.461   4.624  17.511  0.00  0.00    +0.000 C 
ATOM     21  C   UNL     1       6.978   4.491  16.072  0.00  0.00    +0.000 C 
ENDBRANCH  19  21
ENDBRANCH   1  19
TORSDOF 3
ENDMDL
