MODEL 1
REMARK VINA RESULT:      -7.7      0.000      0.000
REMARK  Name = 
REMARK  3 active torsions:
REMARK  status: ('A' for Active; 'I' for Inactive)
REMARK    1  A    between atoms: C_1  and  C_2
REMARK    2  A    between atoms: N_4  and  C_5
REMARK    3  A    between atoms: N_4  and  C_12
REMARK                            x       y       z     vdW  Elec       q    Type
REMARK                         _______ _______ _______ _____ _____    ______ ____
ROOT
ATOM      1  C   UNL     1       1.093   3.648  18.927  0.00  0.00    +0.000 C 
ATOM      2  C   UNL     1       2.598   3.584  19.077  0.00  0.00    +0.000 C 
ATOM      3  O   UNL     1       3.126   2.491  19.298  0.00  0.00    +0.000 OA
ATOM      4  N   UNL     1       3.281   4.795  18.893  0.00  0.00    +0.000 N 
ENDROOT
BRANCH   4   5
ATOM      5  C   UNL     1       4.634   4.805  18.486  0.00  0.00    +0.000 A 
ATOM      6  C   UNL     1       5.697   4.950  19.357  0.00  0.00    +0.000 A 
ATOM      7  N   UNL     1       6.866   4.878  18.650  0.00  0.00    +0.000 N 
ATOM      8  C   UNL     1       6.604   4.711  17.314  0.00  0.00    +0.000 A 
ATOM      9  C   UNL     1       7.497   4.606  16.241  0.00  0.00    +0.000 A 
ATOM     10  C   UNL     1       6.961   4.478  14.958  0.00  0.00    +0.000 A 
ATOM     11  C   UNL     1       5.585   4.466  14.759  0.00  0.00    +0.000 A 
ATOM     12  C   UNL     1       4.710   4.570  15.845  0.00  0.00    +0.000 A 
ATOM     13  C   UNL     1       5.214   4.677  17.165  0.00  0.00    +0.000 A 
ATOM     14  H   UNL     1       7.791   4.957  19.052  0.00  0.00    +0.000 HD
ENDBRANCH   4   5
BRANCH   4  15
ATOM     15  C   UNL     1       2.666   6.051  19.135  0.00  0.00    +0.000 A 
ATOM     16  C   UNL     1       2.122   6.336  20.396  0.00  0.00    +0.000 A 
ATOM     17  C   UNL     1       1.555   7.588  20.650  0.00  0.00    +0.000 A 
ATOM     18  C   UNL     1       1.503   8.544  19.636  0.00  0.00    +0.000 A 
ATOM     19 CL   UNL     1       0.802  10.084  19.950  0.00  0.00    +0.000 Cl
ATOM     20  C   UNL     1       2.021   8.265  18.373  0.00  0.00    +0.000 A 
ATOM     21  C   UNL     1       2.611   7.023  18.124  0.00  0.00    +0.000 A 
ENDBRANCH   4  15
TORSDOF 2
ENDMDL
MODEL 2
REMARK VINA RESULT:      -7.7      0.118      1.090
REMARK  Name = 
REMARK  3 active torsions:
REMARK  status: ('A' for Active; 'I' for Inactive)
REMARK    1  A    between atoms: C_1  and  C_2
REMARK    2  A    between atoms: N_4  and  C_5
REMARK    3  A    between atoms: N_4  and  C_12
REMARK                            x       y       z     vdW  Elec       q    Type
REMARK                         _______ _______ _______ _____ _____    ______ ____
ROOT
ATOM      1  C   UNL     1       1.186   3.600  19.074  0.00  0.00    +0.000 C 
ATOM      2  C   UNL     1       2.696   3.546  19.159  0.00  0.00    +0.000 C 
ATOM      3  O   UNL     1       3.240   2.458  19.370  0.00  0.00    +0.000 OA
ATOM      4  N   UNL     1       3.365   4.757  18.931  0.00  0.00    +0.000 N 
ENDROOT
BRANCH   4   5
ATOM      5  C   UNL     1       4.699   4.768  18.465  0.00  0.00    +0.000 A 
ATOM      6  C   UNL     1       5.798   4.929  19.288  0.00  0.00    +0.000 A 
ATOM      7  N   UNL     1       6.935   4.854  18.531  0.00  0.00    +0.000 N 
ATOM      8  C   UNL     1       6.616   4.670  17.209  0.00  0.00    +0.000 A 
ATOM      9  C   UNL     1       7.462   4.556  16.100  0.00  0.00    +0.000 A 
ATOM     10  C   UNL     1       6.871   4.411  14.843  0.00  0.00    +0.000 A 
ATOM     11  C   UNL     1       5.488   4.390  14.705  0.00  0.00    +0.000 A 
ATOM     12  C   UNL     1       4.661   4.504  15.827  0.00  0.00    +0.000 A 
ATOM     13  C   UNL     1       5.221   4.628  17.122  0.00  0.00    +0.000 A 
ATOM     14  H   UNL     1       7.876   4.941  18.892  0.00  0.00    +0.000 HD
ENDBRANCH   4   5
BRANCH   4  15
ATOM     15  C   UNL     1       2.754   6.013  19.184  0.00  0.00    +0.000 A 
ATOM     16  C   UNL     1       2.679   6.975  18.166  0.00  0.00    +0.000 A 
ATOM     17  C   UNL     1       2.039   8.195  18.399  0.00  0.00    +0.000 A 
ATOM     18  C   UNL     1       1.503   8.469  19.657  0.00  0.00    +0.000 A 
ATOM     19 CL   UNL     1       0.718   9.974  19.942  0.00  0.00    +0.000 Cl
ATOM     20  C   UNL     1       1.591   7.530  20.682  0.00  0.00    +0.000 A 
ATOM     21  C   UNL     1       2.208   6.299  20.445  0.00  0.00    +0.000 A 
ENDBRANCH   4  15
TORSDOF 2
ENDMDL
MODEL 3
REMARK VINA RESULT:      -7.2      3.097      5.897
REMARK  Name = 
REMARK  3 active torsions:
REMARK  status: ('A' for Active; 'I' for Inactive)
REMARK    1  A    between atoms: C_1  and  C_2
REMARK    2  A    between atoms: N_4  and  C_5
REMARK    3  A    between atoms: N_4  and  C_12
REMARK                            x       y       z     vdW  Elec       q    Type
REMARK                         _______ _______ _______ _____ _____    ______ ____
ROOT
ATOM      1  C   UNL     1       7.846   6.063  18.200  0.00  0.00    +0.000 C 
ATOM      2  C   UNL     1       6.673   5.541  19.003  0.00  0.00    +0.000 C 
ATOM      3  O   UNL     1       6.794   5.431  20.226  0.00  0.00    +0.000 OA
ATOM      4  N   UNL     1       5.506   5.272  18.274  0.00  0.00    +0.000 N 
ENDROOT
BRANCH   4   5
ATOM      5  C   UNL     1       4.241   5.298  18.903  0.00  0.00    +0.000 A 
ATOM      6  C   UNL     1       3.658   6.445  19.408  0.00  0.00    +0.000 A 
ATOM      7  N   UNL     1       2.425   6.134  19.912  0.00  0.00    +0.000 N 
ATOM      8  C   UNL     1       2.181   4.790  19.776  0.00  0.00    +0.000 A 
ATOM      9  C   UNL     1       1.060   4.048  20.167  0.00  0.00    +0.000 A 
ATOM     10  C   UNL     1       1.082   2.670  19.944  0.00  0.00    +0.000 A 
ATOM     11  C   UNL     1       2.188   2.060  19.361  0.00  0.00    +0.000 A 
ATOM     12  C   UNL     1       3.296   2.821  18.976  0.00  0.00    +0.000 A 
ATOM     13  C   UNL     1       3.303   4.225  19.163  0.00  0.00    +0.000 A 
ATOM     14  H   UNL     1       1.792   6.796  20.341  0.00  0.00    +0.000 HD
ENDBRANCH   4   5
BRANCH   4  15
ATOM     15  C   UNL     1       5.539   4.934  16.896  0.00  0.00    +0.000 A 
ATOM     16  C   UNL     1       5.263   5.910  15.927  0.00  0.00    +0.000 A 
ATOM     17  C   UNL     1       5.339   5.592  14.568  0.00  0.00    +0.000 A 
ATOM     18  C   UNL     1       5.659   4.292  14.177  0.00  0.00    +0.000 A 
ATOM     19 CL   UNL     1       5.748   3.902  12.503  0.00  0.00    +0.000 Cl
ATOM     20  C   UNL     1       5.914   3.309  15.131  0.00  0.00    +0.000 A 
ATOM     21  C   UNL     1       5.864   3.630  16.489  0.00  0.00    +0.000 A 
ENDBRANCH   4  15
TORSDOF 2
ENDMDL
MODEL 4
REMARK VINA RESULT:      -7.2      3.082      5.856
REMARK  Name = 
REMARK  3 active torsions:
REMARK  status: ('A' for Active; 'I' for Inactive)
REMARK    1  A    between atoms: C_1  and  C_2
REMARK    2  A    between atoms: N_4  and  C_5
REMARK    3  A    between atoms: N_4  and  C_12
REMARK                            x       y       z     vdW  Elec       q    Type
REMARK                         _______ _______ _______ _____ _____    ______ ____
ROOT
ATOM      1  C   UNL     1       7.802   6.078  18.232  0.00  0.00    +0.000 C 
ATOM      2  C   UNL     1       6.605   5.528  18.979  0.00  0.00    +0.000 C 
ATOM      3  O   UNL     1       6.678   5.402  20.205  0.00  0.00    +0.000 OA
ATOM      4  N   UNL     1       5.472   5.256  18.200  0.00  0.00    +0.000 N 
ENDROOT
BRANCH   4   5
ATOM      5  C   UNL     1       4.182   5.256  18.778  0.00  0.00    +0.000 A 
ATOM      6  C   UNL     1       3.549   6.394  19.242  0.00  0.00    +0.000 A 
ATOM      7  N   UNL     1       2.306   6.056  19.701  0.00  0.00    +0.000 N 
ATOM      8  C   UNL     1       2.103   4.704  19.575  0.00  0.00    +0.000 A 
ATOM      9  C   UNL     1       0.987   3.938  19.931  0.00  0.00    +0.000 A 
ATOM     10  C   UNL     1       1.055   2.558  19.729  0.00  0.00    +0.000 A 
ATOM     11  C   UNL     1       2.199   1.971  19.200  0.00  0.00    +0.000 A 
ATOM     12  C   UNL     1       3.301   2.756  18.849  0.00  0.00    +0.000 A 
ATOM     13  C   UNL     1       3.263   4.162  19.015  0.00  0.00    +0.000 A 
ATOM     14  H   UNL     1       1.638   6.706  20.095  0.00  0.00    +0.000 HD
ENDBRANCH   4   5
BRANCH   4  15
ATOM     15  C   UNL     1       5.565   4.940  16.819  0.00  0.00    +0.000 A 
ATOM     16  C   UNL     1       5.942   3.650  16.419  0.00  0.00    +0.000 A 
ATOM     17  C   UNL     1       5.992   3.323  15.060  0.00  0.00    +0.000 A 
ATOM     18  C   UNL     1       5.697   4.292  14.102  0.00  0.00    +0.000 A 
ATOM     19 CL   UNL     1       5.762   3.888  12.431  0.00  0.00    +0.000 Cl
ATOM     20  C   UNL     1       5.343   5.583  14.488  0.00  0.00    +0.000 A 
ATOM     21  C   UNL     1       5.267   5.906  15.846  0.00  0.00    +0.000 A 
ENDBRANCH   4  15
TORSDOF 2
ENDMDL
MODEL 5
REMARK VINA RESULT:      -7.2      3.013      6.060
REMARK  Name = 
REMARK  3 active torsions:
REMARK  status: ('A' for Active; 'I' for Inactive)
REMARK    1  A    between atoms: C_1  and  C_2
REMARK    2  A    between atoms: N_4  and  C_5
REMARK    3  A    between atoms: N_4  and  C_12
REMARK                            x       y       z     vdW  Elec       q    Type
REMARK                         _______ _______ _______ _____ _____    ______ ____
ROOT
ATOM      1  C   UNL     1       7.730   6.615  18.186  0.00  0.00    +0.000 C 
ATOM      2  C   UNL     1       6.987   5.586  19.012  0.00  0.00    +0.000 C 
ATOM      3  O   UNL     1       7.271   5.469  20.208  0.00  0.00    +0.000 OA
ATOM      4  N   UNL     1       5.980   4.877  18.343  0.00  0.00    +0.000 N 
ENDROOT
BRANCH   4   5
ATOM      5  C   UNL     1       4.900   4.310  19.057  0.00  0.00    +0.000 A 
ATOM      6  C   UNL     1       4.833   2.977  19.415  0.00  0.00    +0.000 A 
ATOM      7  N   UNL     1       3.684   2.764  20.127  0.00  0.00    +0.000 N 
ATOM      8  C   UNL     1       2.967   3.929  20.231  0.00  0.00    +0.000 A 
ATOM      9  C   UNL     1       1.736   4.160  20.857  0.00  0.00    +0.000 A 
ATOM     10  C   UNL     1       1.200   5.447  20.784  0.00  0.00    +0.000 A 
ATOM     11  C   UNL     1       1.869   6.459  20.104  0.00  0.00    +0.000 A 
ATOM     12  C   UNL     1       3.098   6.207  19.487  0.00  0.00    +0.000 A 
ATOM     13  C   UNL     1       3.687   4.921  19.559  0.00  0.00    +0.000 A 
ATOM     14  H   UNL     1       3.395   1.871  20.505  0.00  0.00    +0.000 HD
ENDBRANCH   4   5
BRANCH   4  15
ATOM     15  C   UNL     1       6.011   4.669  16.939  0.00  0.00    +0.000 A 
ATOM     16  C   UNL     1       7.239   4.527  16.277  0.00  0.00    +0.000 A 
ATOM     17  C   UNL     1       7.270   4.278  14.902  0.00  0.00    +0.000 A 
ATOM     18  C   UNL     1       6.078   4.203  14.183  0.00  0.00    +0.000 A 
ATOM     19 CL   UNL     1       6.120   3.899  12.489  0.00  0.00    +0.000 Cl
ATOM     20  C   UNL     1       4.853   4.365  14.826  0.00  0.00    +0.000 A 
ATOM     21  C   UNL     1       4.817   4.588  16.205  0.00  0.00    +0.000 A 
ENDBRANCH   4  15
TORSDOF 2
ENDMDL
MODEL 6
REMARK VINA RESULT:      -7.2      2.561      5.321
REMARK  Name = 
REMARK  3 active torsions:
REMARK  status: ('A' for Active; 'I' for Inactive)
REMARK    1  A    between atoms: C_1  and  C_2
REMARK    2  A    between atoms: N_4  and  C_5
REMARK    3  A    between atoms: N_4  and  C_12
REMARK                            x       y       z     vdW  Elec       q    Type
REMARK                         _______ _______ _______ _____ _____    ______ ____
ROOT
ATOM      1  C   UNL     1       3.717   1.366  18.490  0.00  0.00    +0.000 C 
ATOM      2  C   UNL     1       2.771   2.493  18.848  0.00  0.00    +0.000 C 
ATOM      3  O   UNL     1       1.644   2.211  19.264  0.00  0.00    +0.000 OA
ATOM      4  N   UNL     1       3.290   3.789  18.723  0.00  0.00    +0.000 N 
ENDROOT
BRANCH   4   5
ATOM      5  C   UNL     1       2.759   4.855  19.484  0.00  0.00    +0.000 A 
ATOM      6  C   UNL     1       2.423   4.751  20.821  0.00  0.00    +0.000 A 
ATOM      7  N   UNL     1       1.977   5.966  21.264  0.00  0.00    +0.000 N 
ATOM      8  C   UNL     1       1.985   6.878  20.239  0.00  0.00    +0.000 A 
ATOM      9  C   UNL     1       1.598   8.224  20.246  0.00  0.00    +0.000 A 
ATOM     10  C   UNL     1       1.670   8.928  19.043  0.00  0.00    +0.000 A 
ATOM     11  C   UNL     1       2.104   8.304  17.878  0.00  0.00    +0.000 A 
ATOM     12  C   UNL     1       2.488   6.960  17.894  0.00  0.00    +0.000 A 
ATOM     13  C   UNL     1       2.453   6.217  19.100  0.00  0.00    +0.000 A 
ATOM     14  H   UNL     1       1.667   6.159  22.208  0.00  0.00    +0.000 HD
ENDBRANCH   4   5
BRANCH   4  15
ATOM     15  C   UNL     1       4.338   4.097  17.817  0.00  0.00    +0.000 A 
ATOM     16  C   UNL     1       5.609   4.437  18.303  0.00  0.00    +0.000 A 
ATOM     17  C   UNL     1       6.654   4.697  17.412  0.00  0.00    +0.000 A 
ATOM     18  C   UNL     1       6.423   4.650  16.038  0.00  0.00    +0.000 A 
ATOM     19 CL   UNL     1       7.711   4.973  14.943  0.00  0.00    +0.000 Cl
ATOM     20  C   UNL     1       5.159   4.334  15.544  0.00  0.00    +0.000 A 
ATOM     21  C   UNL     1       4.118   4.049  16.431  0.00  0.00    +0.000 A 
ENDBRANCH   4  15
TORSDOF 2
ENDMDL
MODEL 7
REMARK VINA RESULT:      -7.1      3.014      6.052
REMARK  Name = 
REMARK  3 active torsions:
REMARK  status: ('A' for Active; 'I' for Inactive)
REMARK    1  A    between atoms: C_1  and  C_2
REMARK    2  A    between atoms: N_4  and  C_5
REMARK    3  A    between atoms: N_4  and  C_12
REMARK                            x       y       z     vdW  Elec       q    Type
REMARK                         _______ _______ _______ _____ _____    ______ ____
ROOT
ATOM      1  C   UNL     1       7.705   6.663  18.099  0.00  0.00    +0.000 C 
ATOM      2  C   UNL     1       6.979   5.645  18.953  0.00  0.00    +0.000 C 
ATOM      3  O   UNL     1       7.261   5.568  20.152  0.00  0.00    +0.000 OA
ATOM      4  N   UNL     1       5.987   4.898  18.302  0.00  0.00    +0.000 N 
ENDROOT
BRANCH   4   5
ATOM      5  C   UNL     1       4.916   4.333  19.030  0.00  0.00    +0.000 A 
ATOM      6  C   UNL     1       4.854   3.000  19.393  0.00  0.00    +0.000 A 
ATOM      7  N   UNL     1       3.713   2.789  20.118  0.00  0.00    +0.000 N 
ATOM      8  C   UNL     1       2.995   3.953  20.225  0.00  0.00    +0.000 A 
ATOM      9  C   UNL     1       1.770   4.185  20.863  0.00  0.00    +0.000 A 
ATOM     10  C   UNL     1       1.232   5.471  20.790  0.00  0.00    +0.000 A 
ATOM     11  C   UNL     1       1.891   6.481  20.098  0.00  0.00    +0.000 A 
ATOM     12  C   UNL     1       3.115   6.229  19.471  0.00  0.00    +0.000 A 
ATOM     13  C   UNL     1       3.707   4.943  19.542  0.00  0.00    +0.000 A 
ATOM     14  H   UNL     1       3.429   1.897  20.502  0.00  0.00    +0.000 HD
ENDBRANCH   4   5
BRANCH   4  15
ATOM     15  C   UNL     1       6.026   4.651  16.905  0.00  0.00    +0.000 A 
ATOM     16  C   UNL     1       4.834   4.612  16.166  0.00  0.00    +0.000 A 
ATOM     17  C   UNL     1       4.873   4.412  14.783  0.00  0.00    +0.000 A 
ATOM     18  C   UNL     1       6.096   4.220  14.142  0.00  0.00    +0.000 A 
ATOM     19 CL   UNL     1       6.141   3.972  12.440  0.00  0.00    +0.000 Cl
ATOM     20  C   UNL     1       7.285   4.236  14.870  0.00  0.00    +0.000 A 
ATOM     21  C   UNL     1       7.252   4.460  16.249  0.00  0.00    +0.000 A 
ENDBRANCH   4  15
TORSDOF 2
ENDMDL
MODEL 8
REMARK VINA RESULT:      -7.1      1.243      2.276
REMARK  Name = 
REMARK  3 active torsions:
REMARK  status: ('A' for Active; 'I' for Inactive)
REMARK    1  A    between atoms: C_1  and  C_2
REMARK    2  A    between atoms: N_4  and  C_5
REMARK    3  A    between atoms: N_4  and  C_12
REMARK                            x       y       z     vdW  Elec       q    Type
REMARK                         _______ _______ _______ _____ _____    ______ ____
ROOT
ATOM      1  C   UNL     1       0.740   3.695  20.116  0.00  0.00    +0.000 C 
ATOM      2  C   UNL     1       2.200   3.481  19.774  0.00  0.00    +0.000 C 
ATOM      3  O   UNL     1       2.711   2.385  20.017  0.00  0.00    +0.000 OA
ATOM      4  N   UNL     1       2.844   4.556  19.146  0.00  0.00    +0.000 N 
ENDROOT
BRANCH   4   5
ATOM      5  C   UNL     1       3.973   4.341  18.324  0.00  0.00    +0.000 A 
ATOM      6  C   UNL     1       3.933   3.642  17.132  0.00  0.00    +0.000 A 
ATOM      7  N   UNL     1       5.179   3.650  16.569  0.00  0.00    +0.000 N 
ATOM      8  C   UNL     1       6.061   4.322  17.376  0.00  0.00    +0.000 A 
ATOM      9  C   UNL     1       7.430   4.555  17.194  0.00  0.00    +0.000 A 
ATOM     10  C   UNL     1       8.112   5.243  18.198  0.00  0.00    +0.000 A 
ATOM     11  C   UNL     1       7.450   5.673  19.344  0.00  0.00    +0.000 A 
ATOM     12  C   UNL     1       6.082   5.432  19.504  0.00  0.00    +0.000 A 
ATOM     13  C   UNL     1       5.349   4.758  18.497  0.00  0.00    +0.000 A 
ATOM     14  H   UNL     1       5.420   3.206  15.692  0.00  0.00    +0.000 HD
ENDBRANCH   4   5
BRANCH   4  15
ATOM     15  C   UNL     1       2.418   5.899  19.326  0.00  0.00    +0.000 A 
ATOM     16  C   UNL     1       2.406   6.784  18.239  0.00  0.00    +0.000 A 
ATOM     17  C   UNL     1       1.947   8.093  18.404  0.00  0.00    +0.000 A 
ATOM     18  C   UNL     1       1.529   8.529  19.661  0.00  0.00    +0.000 A 
ATOM     19 CL   UNL     1       0.966  10.142  19.863  0.00  0.00    +0.000 Cl
ATOM     20  C   UNL     1       1.557   7.664  20.754  0.00  0.00    +0.000 A 
ATOM     21  C   UNL     1       1.992   6.347  20.586  0.00  0.00    +0.000 A 
ENDBRANCH   4  15
TORSDOF 2
ENDMDL
MODEL 9
REMARK VINA RESULT:      -7.0      1.249      1.998
REMARK  Name = 
REMARK  3 active torsions:
REMARK  status: ('A' for Active; 'I' for Inactive)
REMARK    1  A    between atoms: C_1  and  C_2
REMARK    2  A    between atoms: N_4  and  C_5
REMARK    3  A    between atoms: N_4  and  C_12
REMARK                            x       y       z     vdW  Elec       q    Type
REMARK                         _______ _______ _______ _____ _____    ______ ____
ROOT
ATOM      1  C   UNL     1       0.761   3.579  20.087  0.00  0.00    +0.000 C 
ATOM      2  C   UNL     1       2.226   3.388  19.757  0.00  0.00    +0.000 C 
ATOM      3  O   UNL     1       2.757   2.305  20.021  0.00  0.00    +0.000 OA
ATOM      4  N   UNL     1       2.853   4.465  19.115  0.00  0.00    +0.000 N 
ENDROOT
BRANCH   4   5
ATOM      5  C   UNL     1       3.991   4.258  18.303  0.00  0.00    +0.000 A 
ATOM      6  C   UNL     1       3.974   3.531  17.128  0.00  0.00    +0.000 A 
ATOM      7  N   UNL     1       5.222   3.556  16.570  0.00  0.00    +0.000 N 
ATOM      8  C   UNL     1       6.084   4.268  17.365  0.00  0.00    +0.000 A 
ATOM      9  C   UNL     1       7.448   4.529  17.183  0.00  0.00    +0.000 A 
ATOM     10  C   UNL     1       8.108   5.257  18.175  0.00  0.00    +0.000 A 
ATOM     11  C   UNL     1       7.431   5.697  19.307  0.00  0.00    +0.000 A 
ATOM     12  C   UNL     1       6.068   5.426  19.467  0.00  0.00    +0.000 A 
ATOM     13  C   UNL     1       5.356   4.712  18.472  0.00  0.00    +0.000 A 
ATOM     14  H   UNL     1       5.478   3.098  15.705  0.00  0.00    +0.000 HD
ENDBRANCH   4   5
BRANCH   4  15
ATOM     15  C   UNL     1       2.401   5.802  19.271  0.00  0.00    +0.000 A 
ATOM     16  C   UNL     1       1.954   6.249  20.523  0.00  0.00    +0.000 A 
ATOM     17  C   UNL     1       1.550   7.577  20.690  0.00  0.00    +0.000 A 
ATOM     18  C   UNL     1       1.563   8.449  19.602  0.00  0.00    +0.000 A 
ATOM     19 CL   UNL     1       1.064  10.082  19.810  0.00  0.00    +0.000 Cl
ATOM     20  C   UNL     1       1.986   8.009  18.349  0.00  0.00    +0.000 A 
ATOM     21  C   UNL     1       2.414   6.689  18.184  0.00  0.00    +0.000 A 
ENDBRANCH   4  15
TORSDOF 2
ENDMDL
