MODEL 1
REMARK VINA RESULT:      -7.0      0.000      0.000
REMARK  Name = 
REMARK  9 active torsions:
REMARK  status: ('A' for Active; 'I' for Inactive)
REMARK    1  A    between atoms: C_1  and  C_2
REMARK    2  A    between atoms: C_2  and  C_3
REMARK    3  A    between atoms: C_3  and  C_4
REMARK    4  A    between atoms: N_6  and  C_7
REMARK    5  A    between atoms: C_7  and  C_8
REMARK    6  A    between atoms: C_8  and  C_9
REMARK    7  A    between atoms: C_8  and  S_14
REMARK    8  A    between atoms: S_14  and  C_17
REMARK    9  A    between atoms: C_20  and  C_21
REMARK                            x       y       z     vdW  Elec       q    Type
REMARK                         _______ _______ _______ _____ _____    ______ ____
ROOT
ATOM      1  C   UNL     1       4.491   4.654  17.021  0.00  0.00    +0.000 C 
ENDROOT
BRANCH   1   2
ATOM      2  C   UNL     1       3.360   3.811  17.594  0.00  0.00    +0.000 A 
ATOM      3  C   UNL     1       2.026   4.172  17.701  0.00  0.00    +0.000 A 
ATOM      4  C   UNL     1       1.221   3.152  18.287  0.00  0.00    +0.000 A 
ATOM      5  C   UNL     1       1.957   2.031  18.593  0.00  0.00    +0.000 A 
ATOM      6  S   UNL     1       3.604   2.218  18.190  0.00  0.00    +0.000 S 
ENDBRANCH   1   2
BRANCH   1   7
ATOM      7  S   UNL     1       5.043   5.808  18.291  0.00  0.00    +0.000 S 
ATOM      8  O   UNL     1       5.184   5.115  19.559  0.00  0.00    +0.000 OA
ATOM      9  O   UNL     1       6.139   6.599  17.755  0.00  0.00    +0.000 OA
BRANCH   7  10
ATOM     10  C   UNL     1       3.668   6.929  18.524  0.00  0.00    +0.000 A 
ATOM     11  C   UNL     1       3.318   7.820  17.503  0.00  0.00    +0.000 A 
ATOM     12  C   UNL     1       2.242   8.692  17.693  0.00  0.00    +0.000 A 
ATOM     13  C   UNL     1       1.506   8.673  18.884  0.00  0.00    +0.000 A 
ATOM     14  C   UNL     1       0.350   9.609  19.097  0.00  0.00    +0.000 C 
ATOM     15  C   UNL     1       1.858   7.761  19.889  0.00  0.00    +0.000 A 
ATOM     16  C   UNL     1       2.934   6.888  19.711  0.00  0.00    +0.000 A 
ENDBRANCH   7  10
ENDBRANCH   1   7
BRANCH   1  17
ATOM     17  C   UNL     1       5.687   3.858  16.472  0.00  0.00    +0.000 C 
BRANCH  17  20
ATOM     18  C   UNL     1       6.577   4.370  14.225  0.00  0.00    +0.000 C 
ATOM     19  O   UNL     1       7.447   5.107  14.680  0.00  0.00    +0.000 OA
ATOM     20  N   UNL     1       5.683   3.695  15.024  0.00  0.00    +0.000 N 
ATOM     21  H   UNL     1       5.063   3.010  14.613  0.00  0.00    +0.000 HD
BRANCH  18  22
ATOM     22  C   UNL     1       6.402   4.145  12.739  0.00  0.00    +0.000 C 
BRANCH  22  24
ATOM     23  C   UNL     1       4.331   3.409  11.464  0.00  0.00    +0.000 C 
ATOM     24  C   UNL     1       5.453   2.996  12.408  0.00  0.00    +0.000 C 
ENDBRANCH  22  24
ENDBRANCH  18  22
ENDBRANCH  17  20
ENDBRANCH   1  17
TORSDOF 7
ENDMDL
MODEL 2
REMARK VINA RESULT:      -7.0      0.688      1.268
REMARK  Name = 
REMARK  9 active torsions:
REMARK  status: ('A' for Active; 'I' for Inactive)
REMARK    1  A    between atoms: C_1  and  C_2
REMARK    2  A    between atoms: C_2  and  C_3
REMARK    3  A    between atoms: C_3  and  C_4
REMARK    4  A    between atoms: N_6  and  C_7
REMARK    5  A    between atoms: C_7  and  C_8
REMARK    6  A    between atoms: C_8  and  C_9
REMARK    7  A    between atoms: C_8  and  S_14
REMARK    8  A    between atoms: S_14  and  C_17
REMARK    9  A    between atoms: C_20  and  C_21
REMARK                            x       y       z     vdW  Elec       q    Type
REMARK                         _______ _______ _______ _____ _____    ______ ____
ROOT
ATOM      1  C   UNL     1       4.031   4.496  17.336  0.00  0.00    +0.000 C 
ENDROOT
BRANCH   1   2
ATOM      2  C   UNL     1       2.907   3.662  17.938  0.00  0.00    +0.000 A 
ATOM      3  C   UNL     1       1.570   4.015  18.035  0.00  0.00    +0.000 A 
ATOM      4  C   UNL     1       0.775   3.009  18.655  0.00  0.00    +0.000 A 
ATOM      5  C   UNL     1       1.521   1.906  18.999  0.00  0.00    +0.000 A 
ATOM      6  S   UNL     1       3.166   2.093  18.588  0.00  0.00    +0.000 S 
ENDBRANCH   1   2
BRANCH   1   7
ATOM      7  S   UNL     1       4.615   5.656  18.586  0.00  0.00    +0.000 S 
ATOM      8  O   UNL     1       4.587   5.027  19.894  0.00  0.00    +0.000 OA
ATOM      9  O   UNL     1       5.826   6.294  18.097  0.00  0.00    +0.000 OA
BRANCH   7  10
ATOM     10  C   UNL     1       3.358   6.928  18.656  0.00  0.00    +0.000 A 
ATOM     11  C   UNL     1       2.556   7.050  19.796  0.00  0.00    +0.000 A 
ATOM     12  C   UNL     1       1.576   8.046  19.844  0.00  0.00    +0.000 A 
ATOM     13  C   UNL     1       1.400   8.929  18.770  0.00  0.00    +0.000 A 
ATOM     14  C   UNL     1       0.349  10.000  18.811  0.00  0.00    +0.000 C 
ATOM     15  C   UNL     1       2.225   8.805  17.643  0.00  0.00    +0.000 A 
ATOM     16  C   UNL     1       3.204   7.810  17.585  0.00  0.00    +0.000 A 
ENDBRANCH   7  10
ENDBRANCH   1   7
BRANCH   1  17
ATOM     17  C   UNL     1       5.211   3.690  16.769  0.00  0.00    +0.000 C 
BRANCH  17  20
ATOM     18  C   UNL     1       6.617   4.390  14.862  0.00  0.00    +0.000 C 
ATOM     19  O   UNL     1       7.561   4.675  15.594  0.00  0.00    +0.000 OA
ATOM     20  N   UNL     1       5.433   3.880  15.341  0.00  0.00    +0.000 N 
ATOM     21  H   UNL     1       4.731   3.551  14.691  0.00  0.00    +0.000 HD
BRANCH  18  22
ATOM     22  C   UNL     1       6.668   4.588  13.363  0.00  0.00    +0.000 C 
BRANCH  22  24
ATOM     23  C   UNL     1       6.792   2.713  11.652  0.00  0.00    +0.000 C 
ATOM     24  C   UNL     1       5.900   3.522  12.585  0.00  0.00    +0.000 C 
ENDBRANCH  22  24
ENDBRANCH  18  22
ENDBRANCH  17  20
ENDBRANCH   1  17
TORSDOF 7
ENDMDL
MODEL 3
REMARK VINA RESULT:      -6.9      2.081      2.913
REMARK  Name = 
REMARK  9 active torsions:
REMARK  status: ('A' for Active; 'I' for Inactive)
REMARK    1  A    between atoms: C_1  and  C_2
REMARK    2  A    between atoms: C_2  and  C_3
REMARK    3  A    between atoms: C_3  and  C_4
REMARK    4  A    between atoms: N_6  and  C_7
REMARK    5  A    between atoms: C_7  and  C_8
REMARK    6  A    between atoms: C_8  and  C_9
REMARK    7  A    between atoms: C_8  and  S_14
REMARK    8  A    between atoms: S_14  and  C_17
REMARK    9  A    between atoms: C_20  and  C_21
REMARK                            x       y       z     vdW  Elec       q    Type
REMARK                         _______ _______ _______ _____ _____    ______ ____
ROOT
ATOM      1  C   UNL     1       2.766   4.590  18.069  0.00  0.00    +0.000 C 
ENDROOT
BRANCH   1   2
ATOM      2  C   UNL     1       2.423   3.874  19.369  0.00  0.00    +0.000 A 
ATOM      3  C   UNL     1       3.316   3.321  20.274  0.00  0.00    +0.000 A 
ATOM      4  C   UNL     1       2.670   2.720  21.393  0.00  0.00    +0.000 A 
ATOM      5  C   UNL     1       1.302   2.846  21.324  0.00  0.00    +0.000 A 
ATOM      6  S   UNL     1       0.807   3.670  19.915  0.00  0.00    +0.000 S 
ENDBRANCH   1   2
BRANCH   1   7
ATOM      7  S   UNL     1       3.744   6.052  18.462  0.00  0.00    +0.000 S 
ATOM      8  O   UNL     1       4.661   5.754  19.548  0.00  0.00    +0.000 OA
ATOM      9  O   UNL     1       4.230   6.633  17.221  0.00  0.00    +0.000 OA
BRANCH   7  10
ATOM     10  C   UNL     1       2.573   7.218  19.148  0.00  0.00    +0.000 A 
ATOM     11  C   UNL     1       2.130   8.295  18.372  0.00  0.00    +0.000 A 
ATOM     12  C   UNL     1       1.215   9.202  18.916  0.00  0.00    +0.000 A 
ATOM     13  C   UNL     1       0.730   9.036  20.220  0.00  0.00    +0.000 A 
ATOM     14  C   UNL     1      -0.250  10.007  20.812  0.00  0.00    +0.000 C 
ATOM     15  C   UNL     1       1.170   7.941  20.976  0.00  0.00    +0.000 A 
ATOM     16  C   UNL     1       2.087   7.032  20.444  0.00  0.00    +0.000 A 
ENDBRANCH   7  10
ENDBRANCH   1   7
BRANCH   1  17
ATOM     17  C   UNL     1       3.494   3.731  17.021  0.00  0.00    +0.000 C 
BRANCH  17  20
ATOM     18  C   UNL     1       5.685   4.173  15.971  0.00  0.00    +0.000 C 
ATOM     19  O   UNL     1       5.170   4.463  14.894  0.00  0.00    +0.000 OA
ATOM     20  N   UNL     1       4.948   3.825  17.078  0.00  0.00    +0.000 N 
ATOM     21  H   UNL     1       5.408   3.710  17.971  0.00  0.00    +0.000 HD
BRANCH  18  22
ATOM     22  C   UNL     1       7.185   4.163  16.173  0.00  0.00    +0.000 C 
BRANCH  22  24
ATOM     23  C   UNL     1       7.569   6.172  17.680  0.00  0.00    +0.000 C 
ATOM     24  C   UNL     1       7.613   4.655  17.554  0.00  0.00    +0.000 C 
ENDBRANCH  22  24
ENDBRANCH  18  22
ENDBRANCH  17  20
ENDBRANCH   1  17
TORSDOF 7
ENDMDL
MODEL 4
REMARK VINA RESULT:      -6.8      2.251      5.955
REMARK  Name = 
REMARK  9 active torsions:
REMARK  status: ('A' for Active; 'I' for Inactive)
REMARK    1  A    between atoms: C_1  and  C_2
REMARK    2  A    between atoms: C_2  and  C_3
REMARK    3  A    between atoms: C_3  and  C_4
REMARK    4  A    between atoms: N_6  and  C_7
REMARK    5  A    between atoms: C_7  and  C_8
REMARK    6  A    between atoms: C_8  and  C_9
REMARK    7  A    between atoms: C_8  and  S_14
REMARK    8  A    between atoms: S_14  and  C_17
REMARK    9  A    between atoms: C_20  and  C_21
REMARK                            x       y       z     vdW  Elec       q    Type
REMARK                         _______ _______ _______ _____ _____    ______ ____
ROOT
ATOM      1  C   UNL     1       3.798   5.389  19.488  0.00  0.00    +0.000 C 
ENDROOT
BRANCH   1   2
ATOM      2  C   UNL     1       2.696   4.362  19.713  0.00  0.00    +0.000 A 
ATOM      3  C   UNL     1       1.978   3.685  18.740  0.00  0.00    +0.000 A 
ATOM      4  C   UNL     1       1.012   2.791  19.285  0.00  0.00    +0.000 A 
ATOM      5  C   UNL     1       1.031   2.792  20.660  0.00  0.00    +0.000 A 
ATOM      6  S   UNL     1       2.194   3.874  21.282  0.00  0.00    +0.000 S 
ENDBRANCH   1   2
BRANCH   1   7
ATOM      7  S   UNL     1       5.366   4.516  19.311  0.00  0.00    +0.000 S 
ATOM      8  O   UNL     1       6.440   5.314  19.875  0.00  0.00    +0.000 OA
ATOM      9  O   UNL     1       5.176   3.134  19.722  0.00  0.00    +0.000 OA
BRANCH   7  10
ATOM     10  C   UNL     1       5.682   4.488  17.551  0.00  0.00    +0.000 A 
ATOM     11  C   UNL     1       6.797   5.158  17.035  0.00  0.00    +0.000 A 
ATOM     12  C   UNL     1       7.038   5.132  15.658  0.00  0.00    +0.000 A 
ATOM     13  C   UNL     1       6.184   4.432  14.795  0.00  0.00    +0.000 A 
ATOM     14  C   UNL     1       6.433   4.401  13.314  0.00  0.00    +0.000 C 
ATOM     15  C   UNL     1       5.082   3.751  15.330  0.00  0.00    +0.000 A 
ATOM     16  C   UNL     1       4.831   3.775  16.704  0.00  0.00    +0.000 A 
ENDBRANCH   7  10
ENDBRANCH   1   7
BRANCH   1  17
ATOM     17  C   UNL     1       3.580   6.331  18.292  0.00  0.00    +0.000 C 
BRANCH  17  20
ATOM     18  C   UNL     1       2.346   8.401  17.743  0.00  0.00    +0.000 C 
ATOM     19  O   UNL     1       3.213   8.772  16.957  0.00  0.00    +0.000 OA
ATOM     20  N   UNL     1       2.424   7.210  18.428  0.00  0.00    +0.000 N 
ATOM     21  H   UNL     1       1.633   6.893  18.973  0.00  0.00    +0.000 HD
BRANCH  18  22
ATOM     22  C   UNL     1       1.115   9.229  18.040  0.00  0.00    +0.000 C 
BRANCH  22  24
ATOM     23  C   UNL     1      -0.388   9.997  19.939  0.00  0.00    +0.000 C 
ATOM     24  C   UNL     1       1.036   9.698  19.491  0.00  0.00    +0.000 C 
ENDBRANCH  22  24
ENDBRANCH  18  22
ENDBRANCH  17  20
ENDBRANCH   1  17
TORSDOF 7
ENDMDL
MODEL 5
REMARK VINA RESULT:      -6.8      2.069      5.139
REMARK  Name = 
REMARK  9 active torsions:
REMARK  status: ('A' for Active; 'I' for Inactive)
REMARK    1  A    between atoms: C_1  and  C_2
REMARK    2  A    between atoms: C_2  and  C_3
REMARK    3  A    between atoms: C_3  and  C_4
REMARK    4  A    between atoms: N_6  and  C_7
REMARK    5  A    between atoms: C_7  and  C_8
REMARK    6  A    between atoms: C_8  and  C_9
REMARK    7  A    between atoms: C_8  and  S_14
REMARK    8  A    between atoms: S_14  and  C_17
REMARK    9  A    between atoms: C_20  and  C_21
REMARK                            x       y       z     vdW  Elec       q    Type
REMARK                         _______ _______ _______ _____ _____    ______ ____
ROOT
ATOM      1  C   UNL     1       5.057   3.388  17.136  0.00  0.00    +0.000 C 
ENDROOT
BRANCH   1   2
ATOM      2  C   UNL     1       5.927   4.030  16.063  0.00  0.00    +0.000 A 
ATOM      3  C   UNL     1       7.174   4.608  16.240  0.00  0.00    +0.000 A 
ATOM      4  C   UNL     1       7.724   5.121  15.030  0.00  0.00    +0.000 A 
ATOM      5  C   UNL     1       6.892   4.904  13.956  0.00  0.00    +0.000 A 
ATOM      6  S   UNL     1       5.457   4.101  14.412  0.00  0.00    +0.000 S 
ENDBRANCH   1   2
BRANCH   1   7
ATOM      7  S   UNL     1       5.296   4.288  18.679  0.00  0.00    +0.000 S 
ATOM      8  O   UNL     1       4.787   3.504  19.791  0.00  0.00    +0.000 OA
ATOM      9  O   UNL     1       6.651   4.815  18.705  0.00  0.00    +0.000 OA
BRANCH   7  10
ATOM     10  C   UNL     1       4.200   5.698  18.565  0.00  0.00    +0.000 A 
ATOM     11  C   UNL     1       3.220   5.896  19.544  0.00  0.00    +0.000 A 
ATOM     12  C   UNL     1       2.367   7.000  19.448  0.00  0.00    +0.000 A 
ATOM     13  C   UNL     1       2.494   7.914  18.394  0.00  0.00    +0.000 A 
ATOM     14  C   UNL     1       1.581   9.100  18.282  0.00  0.00    +0.000 C 
ATOM     15  C   UNL     1       3.495   7.711  17.432  0.00  0.00    +0.000 A 
ATOM     16  C   UNL     1       4.348   6.608  17.517  0.00  0.00    +0.000 A 
ENDBRANCH   7  10
ENDBRANCH   1   7
BRANCH   1  17
ATOM     17  C   UNL     1       3.559   3.304  16.799  0.00  0.00    +0.000 C 
BRANCH  17  20
ATOM     18  C   UNL     1       1.483   3.196  18.134  0.00  0.00    +0.000 C 
ATOM     19  O   UNL     1       0.963   4.108  17.498  0.00  0.00    +0.000 OA
ATOM     20  N   UNL     1       2.741   2.716  17.853  0.00  0.00    +0.000 N 
ATOM     21  H   UNL     1       3.079   1.888  18.326  0.00  0.00    +0.000 HD
BRANCH  18  22
ATOM     22  C   UNL     1       0.788   2.523  19.298  0.00  0.00    +0.000 C 
BRANCH  22  24
ATOM     23  C   UNL     1       1.883   2.731  21.581  0.00  0.00    +0.000 C 
ATOM     24  C   UNL     1       0.878   3.318  20.599  0.00  0.00    +0.000 C 
ENDBRANCH  22  24
ENDBRANCH  18  22
ENDBRANCH  17  20
ENDBRANCH   1  17
TORSDOF 7
ENDMDL
MODEL 6
REMARK VINA RESULT:      -6.8      1.898      2.880
REMARK  Name = 
REMARK  9 active torsions:
REMARK  status: ('A' for Active; 'I' for Inactive)
REMARK    1  A    between atoms: C_1  and  C_2
REMARK    2  A    between atoms: C_2  and  C_3
REMARK    3  A    between atoms: C_3  and  C_4
REMARK    4  A    between atoms: N_6  and  C_7
REMARK    5  A    between atoms: C_7  and  C_8
REMARK    6  A    between atoms: C_8  and  C_9
REMARK    7  A    between atoms: C_8  and  S_14
REMARK    8  A    between atoms: S_14  and  C_17
REMARK    9  A    between atoms: C_20  and  C_21
REMARK                            x       y       z     vdW  Elec       q    Type
REMARK                         _______ _______ _______ _____ _____    ______ ____
ROOT
ATOM      1  C   UNL     1       2.667   4.728  17.875  0.00  0.00    +0.000 C 
ENDROOT
BRANCH   1   2
ATOM      2  C   UNL     1       2.339   4.010  19.177  0.00  0.00    +0.000 A 
ATOM      3  C   UNL     1       1.183   4.140  19.930  0.00  0.00    +0.000 A 
ATOM      4  C   UNL     1       1.190   3.327  21.101  0.00  0.00    +0.000 A 
ATOM      5  C   UNL     1       2.341   2.583  21.201  0.00  0.00    +0.000 A 
ATOM      6  S   UNL     1       3.407   2.875  19.901  0.00  0.00    +0.000 S 
ENDBRANCH   1   2
BRANCH   1   7
ATOM      7  S   UNL     1       3.671   6.176  18.257  0.00  0.00    +0.000 S 
ATOM      8  O   UNL     1       4.523   5.896  19.399  0.00  0.00    +0.000 OA
ATOM      9  O   UNL     1       4.236   6.689  17.020  0.00  0.00    +0.000 OA
BRANCH   7  10
ATOM     10  C   UNL     1       2.506   7.404  18.836  0.00  0.00    +0.000 A 
ATOM     11  C   UNL     1       2.121   7.415  20.182  0.00  0.00    +0.000 A 
ATOM     12  C   UNL     1       1.210   8.378  20.627  0.00  0.00    +0.000 A 
ATOM     13  C   UNL     1       0.692   9.336  19.745  0.00  0.00    +0.000 A 
ATOM     14  C   UNL     1      -0.289  10.372  20.214  0.00  0.00    +0.000 C 
ATOM     15  C   UNL     1       1.103   9.322  18.405  0.00  0.00    +0.000 A 
ATOM     16  C   UNL     1       2.009   8.361  17.950  0.00  0.00    +0.000 A 
ENDBRANCH   7  10
ENDBRANCH   1   7
BRANCH   1  17
ATOM     17  C   UNL     1       3.365   3.866  16.810  0.00  0.00    +0.000 C 
BRANCH  17  20
ATOM     18  C   UNL     1       5.518   4.179  15.639  0.00  0.00    +0.000 C 
ATOM     19  O   UNL     1       4.967   4.311  14.549  0.00  0.00    +0.000 OA
ATOM     20  N   UNL     1       4.819   3.980  16.806  0.00  0.00    +0.000 N 
ATOM     21  H   UNL     1       5.307   3.996  17.692  0.00  0.00    +0.000 HD
BRANCH  18  22
ATOM     22  C   UNL     1       7.023   4.211  15.793  0.00  0.00    +0.000 C 
BRANCH  22  24
ATOM     23  C   UNL     1       7.750   4.772  18.162  0.00  0.00    +0.000 C 
ATOM     24  C   UNL     1       7.510   5.295  16.752  0.00  0.00    +0.000 C 
ENDBRANCH  22  24
ENDBRANCH  18  22
ENDBRANCH  17  20
ENDBRANCH   1  17
TORSDOF 7
ENDMDL
MODEL 7
REMARK VINA RESULT:      -6.8      2.220      5.995
REMARK  Name = 
REMARK  9 active torsions:
REMARK  status: ('A' for Active; 'I' for Inactive)
REMARK    1  A    between atoms: C_1  and  C_2
REMARK    2  A    between atoms: C_2  and  C_3
REMARK    3  A    between atoms: C_3  and  C_4
REMARK    4  A    between atoms: N_6  and  C_7
REMARK    5  A    between atoms: C_7  and  C_8
REMARK    6  A    between atoms: C_8  and  C_9
REMARK    7  A    between atoms: C_8  and  S_14
REMARK    8  A    between atoms: S_14  and  C_17
REMARK    9  A    between atoms: C_20  and  C_21
REMARK                            x       y       z     vdW  Elec       q    Type
REMARK                         _______ _______ _______ _____ _____    ______ ____
ROOT
ATOM      1  C   UNL     1       3.831   5.457  19.350  0.00  0.00    +0.000 C 
ENDROOT
BRANCH   1   2
ATOM      2  C   UNL     1       2.711   4.453  19.591  0.00  0.00    +0.000 A 
ATOM      3  C   UNL     1       2.015   3.737  18.630  0.00  0.00    +0.000 A 
ATOM      4  C   UNL     1       1.023   2.879  19.188  0.00  0.00    +0.000 A 
ATOM      5  C   UNL     1       1.000   2.948  20.562  0.00  0.00    +0.000 A 
ATOM      6  S   UNL     1       2.156   4.047  21.166  0.00  0.00    +0.000 S 
ENDBRANCH   1   2
BRANCH   1   7
ATOM      7  S   UNL     1       5.387   4.556  19.221  0.00  0.00    +0.000 S 
ATOM      8  O   UNL     1       6.462   5.347  19.793  0.00  0.00    +0.000 OA
ATOM      9  O   UNL     1       5.167   3.185  19.650  0.00  0.00    +0.000 OA
BRANCH   7  10
ATOM     10  C   UNL     1       5.739   4.494  17.468  0.00  0.00    +0.000 A 
ATOM     11  C   UNL     1       4.878   3.798  16.611  0.00  0.00    +0.000 A 
ATOM     12  C   UNL     1       5.159   3.754  15.242  0.00  0.00    +0.000 A 
ATOM     13  C   UNL     1       6.283   4.409  14.721  0.00  0.00    +0.000 A 
ATOM     14  C   UNL     1       6.594   4.364  13.252  0.00  0.00    +0.000 C 
ATOM     15  C   UNL     1       7.124   5.117  15.590  0.00  0.00    +0.000 A 
ATOM     16  C   UNL     1       6.854   5.163  16.960  0.00  0.00    +0.000 A 
ENDBRANCH   7  10
ENDBRANCH   1   7
BRANCH   1  17
ATOM     17  C   UNL     1       3.641   6.366  18.124  0.00  0.00    +0.000 C 
BRANCH  17  20
ATOM     18  C   UNL     1       2.370   8.461  17.810  0.00  0.00    +0.000 C 
ATOM     19  O   UNL     1       3.373   9.080  17.466  0.00  0.00    +0.000 OA
ATOM     20  N   UNL     1       2.396   7.123  18.129  0.00  0.00    +0.000 N 
ATOM     21  H   UNL     1       1.527   6.630  18.290  0.00  0.00    +0.000 HD
BRANCH  18  22
ATOM     22  C   UNL     1       1.012   9.119  17.923  0.00  0.00    +0.000 C 
BRANCH  22  24
ATOM     23  C   UNL     1      -0.607  10.243  19.526  0.00  0.00    +0.000 C 
ATOM     24  C   UNL     1       0.850   9.958  19.189  0.00  0.00    +0.000 C 
ENDBRANCH  22  24
ENDBRANCH  18  22
ENDBRANCH  17  20
ENDBRANCH   1  17
TORSDOF 7
ENDMDL
MODEL 8
REMARK VINA RESULT:      -6.7      1.247      1.723
REMARK  Name = 
REMARK  9 active torsions:
REMARK  status: ('A' for Active; 'I' for Inactive)
REMARK    1  A    between atoms: C_1  and  C_2
REMARK    2  A    between atoms: C_2  and  C_3
REMARK    3  A    between atoms: C_3  and  C_4
REMARK    4  A    between atoms: N_6  and  C_7
REMARK    5  A    between atoms: C_7  and  C_8
REMARK    6  A    between atoms: C_8  and  C_9
REMARK    7  A    between atoms: C_8  and  S_14
REMARK    8  A    between atoms: S_14  and  C_17
REMARK    9  A    between atoms: C_20  and  C_21
REMARK                            x       y       z     vdW  Elec       q    Type
REMARK                         _______ _______ _______ _____ _____    ______ ____
ROOT
ATOM      1  C   UNL     1       3.270   4.540  17.874  0.00  0.00    +0.000 C 
ENDROOT
BRANCH   1   2
ATOM      2  C   UNL     1       2.537   3.857  19.021  0.00  0.00    +0.000 A 
ATOM      3  C   UNL     1       1.229   4.079  19.422  0.00  0.00    +0.000 A 
ATOM      4  C   UNL     1       0.847   3.276  20.535  0.00  0.00    +0.000 A 
ATOM      5  C   UNL     1       1.866   2.447  20.943  0.00  0.00    +0.000 A 
ATOM      6  S   UNL     1       3.272   2.650  19.998  0.00  0.00    +0.000 S 
ENDBRANCH   1   2
BRANCH   1   7
ATOM      7  S   UNL     1       4.167   5.959  18.532  0.00  0.00    +0.000 S 
ATOM      8  O   UNL     1       4.630   5.668  19.877  0.00  0.00    +0.000 OA
ATOM      9  O   UNL     1       5.093   6.434  17.517  0.00  0.00    +0.000 OA
BRANCH   7  10
ATOM     10  C   UNL     1       2.928   7.234  18.732  0.00  0.00    +0.000 A 
ATOM     11  C   UNL     1       2.308   7.411  19.974  0.00  0.00    +0.000 A 
ATOM     12  C   UNL     1       1.341   8.410  20.123  0.00  0.00    +0.000 A 
ATOM     13  C   UNL     1       0.999   9.241  19.048  0.00  0.00    +0.000 A 
ATOM     14  C   UNL     1      -0.041  10.314  19.198  0.00  0.00    +0.000 C 
ATOM     15  C   UNL     1       1.643   9.063  17.816  0.00  0.00    +0.000 A 
ATOM     16  C   UNL     1       2.608   8.065  17.656  0.00  0.00    +0.000 A 
ENDBRANCH   7  10
ENDBRANCH   1   7
BRANCH   1  17
ATOM     17  C   UNL     1       4.222   3.636  17.074  0.00  0.00    +0.000 C 
BRANCH  17  20
ATOM     18  C   UNL     1       5.809   4.130  15.246  0.00  0.00    +0.000 C 
ATOM     19  O   UNL     1       6.763   3.699  15.887  0.00  0.00    +0.000 OA
ATOM     20  N   UNL     1       4.522   4.121  15.733  0.00  0.00    +0.000 N 
ATOM     21  H   UNL     1       3.755   4.376  15.125  0.00  0.00    +0.000 HD
BRANCH  18  22
ATOM     22  C   UNL     1       5.964   4.724  13.863  0.00  0.00    +0.000 C 
BRANCH  22  24
ATOM     23  C   UNL     1       5.248   3.163  11.990  0.00  0.00    +0.000 C 
ATOM     24  C   UNL     1       6.408   3.707  12.814  0.00  0.00    +0.000 C 
ENDBRANCH  22  24
ENDBRANCH  18  22
ENDBRANCH  17  20
ENDBRANCH   1  17
TORSDOF 7
ENDMDL
MODEL 9
REMARK VINA RESULT:      -6.5      1.992      5.019
REMARK  Name = 
REMARK  9 active torsions:
REMARK  status: ('A' for Active; 'I' for Inactive)
REMARK    1  A    between atoms: C_1  and  C_2
REMARK    2  A    between atoms: C_2  and  C_3
REMARK    3  A    between atoms: C_3  and  C_4
REMARK    4  A    between atoms: N_6  and  C_7
REMARK    5  A    between atoms: C_7  and  C_8
REMARK    6  A    between atoms: C_8  and  C_9
REMARK    7  A    between atoms: C_8  and  S_14
REMARK    8  A    between atoms: S_14  and  C_17
REMARK    9  A    between atoms: C_20  and  C_21
REMARK                            x       y       z     vdW  Elec       q    Type
REMARK                         _______ _______ _______ _____ _____    ______ ____
ROOT
ATOM      1  C   UNL     1       4.986   3.455  17.071  0.00  0.00    +0.000 C 
ENDROOT
BRANCH   1   2
ATOM      2  C   UNL     1       5.773   4.017  15.895  0.00  0.00    +0.000 A 
ATOM      3  C   UNL     1       5.356   4.093  14.575  0.00  0.00    +0.000 A 
ATOM      4  C   UNL     1       6.335   4.672  13.717  0.00  0.00    +0.000 A 
ATOM      5  C   UNL     1       7.466   5.042  14.406  0.00  0.00    +0.000 A 
ATOM      6  S   UNL     1       7.349   4.679  16.069  0.00  0.00    +0.000 S 
ENDBRANCH   1   2
BRANCH   1   7
ATOM      7  S   UNL     1       5.367   4.436  18.535  0.00  0.00    +0.000 S 
ATOM      8  O   UNL     1       4.996   3.701  19.731  0.00  0.00    +0.000 OA
ATOM      9  O   UNL     1       6.705   4.986  18.390  0.00  0.00    +0.000 OA
BRANCH   7  10
ATOM     10  C   UNL     1       4.234   5.820  18.469  0.00  0.00    +0.000 A 
ATOM     11  C   UNL     1       4.319   6.737  17.415  0.00  0.00    +0.000 A 
ATOM     12  C   UNL     1       3.430   7.815  17.371  0.00  0.00    +0.000 A 
ATOM     13  C   UNL     1       2.451   7.978  18.360  0.00  0.00    +0.000 A 
ATOM     14  C   UNL     1       1.495   9.135  18.322  0.00  0.00    +0.000 C 
ATOM     15  C   UNL     1       2.369   7.040  19.398  0.00  0.00    +0.000 A 
ATOM     16  C   UNL     1       3.255   5.961  19.454  0.00  0.00    +0.000 A 
ENDBRANCH   7  10
ENDBRANCH   1   7
BRANCH   1  17
ATOM     17  C   UNL     1       3.464   3.382  16.864  0.00  0.00    +0.000 C 
BRANCH  17  20
ATOM     18  C   UNL     1       1.444   3.164  18.271  0.00  0.00    +0.000 C 
ATOM     19  O   UNL     1       0.819   3.973  17.591  0.00  0.00    +0.000 OA
ATOM     20  N   UNL     1       2.736   2.791  17.982  0.00  0.00    +0.000 N 
ATOM     21  H   UNL     1       3.168   2.036  18.498  0.00  0.00    +0.000 HD
BRANCH  18  22
ATOM     22  C   UNL     1       0.851   2.509  19.499  0.00  0.00    +0.000 C 
BRANCH  22  24
ATOM     23  C   UNL     1       2.231   2.804  21.611  0.00  0.00    +0.000 C 
ATOM     24  C   UNL     1       1.063   3.315  20.778  0.00  0.00    +0.000 C 
ENDBRANCH  22  24
ENDBRANCH  18  22
ENDBRANCH  17  20
ENDBRANCH   1  17
TORSDOF 7
ENDMDL
