MODEL 1
REMARK VINA RESULT:      -7.8      0.000      0.000
REMARK  Name = 
REMARK  12 active torsions:
REMARK  status: ('A' for Active; 'I' for Inactive)
REMARK    1  A    between atoms: C_1  and  C_2
REMARK    2  A    between atoms: C_2  and  O_4
REMARK    3  A    between atoms: O_4  and  C_5
REMARK    4  A    between atoms: C_5  and  C_6
REMARK    5  A    between atoms: C_5  and  C_13
REMARK    6  A    between atoms: C_6  and  C_7
REMARK    7  A    between atoms: C_13  and  N_14
REMARK    8  A    between atoms: N_17  and  C_18
REMARK    9  A    between atoms: C_18  and  C_19
REMARK   10  A    between atoms: C_19  and  C_20
REMARK   11  A    between atoms: C_20  and  C_21
REMARK   12  A    between atoms: C_21  and  N_22
REMARK                            x       y       z     vdW  Elec       q    Type
REMARK                         _______ _______ _______ _____ _____    ______ ____
ROOT
ATOM      1  N   UNL     1      -0.961  12.327  19.076  0.00  0.00    +0.000 NA
ATOM      2  C   UNL     1       0.459  12.402  18.672  0.00  0.00    +0.000 C 
ATOM      3  C   UNL     1       1.383  11.463  19.479  0.00  0.00    +0.000 C 
ATOM      4  N   UNL     1       0.992  10.040  19.374  0.00  0.00    +0.000 NA
ATOM      5  C   UNL     1      -0.427   9.921  19.782  0.00  0.00    +0.000 C 
ATOM      6  C   UNL     1      -1.391  10.907  19.069  0.00  0.00    +0.000 C 
ENDROOT
BRANCH   1   7
ATOM      7  C   UNL     1      -1.200  12.939  20.407  0.00  0.00    +0.000 C 
BRANCH   7   8
ATOM      8  C   UNL     1      -2.610  12.663  20.984  0.00  0.00    +0.000 C 
BRANCH   8   9
ATOM      9  O   UNL     1      -2.611  13.104  22.362  0.00  0.00    +0.000 OA
BRANCH   9  11
ATOM     10  C   UNL     1      -3.854  12.387  24.223  0.00  0.00    +0.000 C 
ATOM     11  C   UNL     1      -2.703  12.125  23.298  0.00  0.00    +0.000 C 
ATOM     12  O   UNL     1      -1.942  11.175  23.407  0.00  0.00    +0.000 OA
ENDBRANCH   9  11
ENDBRANCH   8   9
BRANCH   8  13
ATOM     13  C   UNL     1      -3.706  13.433  20.227  0.00  0.00    +0.000 C 
BRANCH  13  14
ATOM     14  C   UNL     1      -5.102  13.197  20.748  0.00  0.00    +0.000 A 
ATOM     15  C   UNL     1      -5.784  12.000  20.481  0.00  0.00    +0.000 A 
ATOM     16  C   UNL     1      -7.071  11.795  20.978  0.00  0.00    +0.000 A 
ATOM     17  C   UNL     1      -7.687  12.777  21.751  0.00  0.00    +0.000 A 
ATOM     18  C   UNL     1      -7.017  13.969  22.024  0.00  0.00    +0.000 A 
ATOM     19  C   UNL     1      -5.731  14.178  21.524  0.00  0.00    +0.000 A 
ENDBRANCH  13  14
ENDBRANCH   8  13
ENDBRANCH   7   8
ENDBRANCH   1   7
BRANCH   4  20
ATOM     20  C   UNL     1       1.201   9.521  18.012  0.00  0.00    +0.000 C 
BRANCH  20  21
ATOM     21  C   UNL     1       1.955   8.175  18.005  0.00  0.00    +0.000 C 
BRANCH  21  22
ATOM     22  C   UNL     1       2.278   7.638  19.410  0.00  0.00    +0.000 C 
BRANCH  22  23
ATOM     23  C   UNL     1       3.118   6.387  19.254  0.00  0.00    +0.000 C 
BRANCH  23  24
ATOM     24  N   UNL     1       3.169   5.758  17.937  0.00  0.00    +0.000 N 
ATOM     25  C   UNL     1       4.374   5.731  17.249  0.00  0.00    +0.000 A 
ATOM     26  C   UNL     1       5.251   6.769  16.879  0.00  0.00    +0.000 A 
ATOM     27  C   UNL     1       6.478   6.402  16.321  0.00  0.00    +0.000 A 
ATOM     28  C   UNL     1       6.827   5.062  16.165  0.00  0.00    +0.000 A 
ATOM     29  C   UNL     1       5.966   4.044  16.593  0.00  0.00    +0.000 A 
ATOM     30  C   UNL     1       4.718   4.380  17.137  0.00  0.00    +0.000 A 
ATOM     31  C   UNL     1       3.636   3.631  17.709  0.00  0.00    +0.000 A 
ATOM     32  C   UNL     1       3.453   2.308  18.150  0.00  0.00    +0.000 A 
ATOM     33  C   UNL     1       2.183   1.911  18.589  0.00  0.00    +0.000 A 
ATOM     34  C   UNL     1       1.089   2.773  18.493  0.00  0.00    +0.000 A 
ATOM     35  C   UNL     1       1.254   4.102  18.101  0.00  0.00    +0.000 A 
ATOM     36  C   UNL     1       2.562   4.510  17.814  0.00  0.00    +0.000 A 
ENDBRANCH  23  24
ENDBRANCH  22  23
ENDBRANCH  21  22
ENDBRANCH  20  21
ENDBRANCH   4  20
TORSDOF 11
ENDMDL
MODEL 2
REMARK VINA RESULT:      -7.6      1.331      3.118
REMARK  Name = 
REMARK  12 active torsions:
REMARK  status: ('A' for Active; 'I' for Inactive)
REMARK    1  A    between atoms: C_1  and  C_2
REMARK    2  A    between atoms: C_2  and  O_4
REMARK    3  A    between atoms: O_4  and  C_5
REMARK    4  A    between atoms: C_5  and  C_6
REMARK    5  A    between atoms: C_5  and  C_13
REMARK    6  A    between atoms: C_6  and  C_7
REMARK    7  A    between atoms: C_13  and  N_14
REMARK    8  A    between atoms: N_17  and  C_18
REMARK    9  A    between atoms: C_18  and  C_19
REMARK   10  A    between atoms: C_19  and  C_20
REMARK   11  A    between atoms: C_20  and  C_21
REMARK   12  A    between atoms: C_21  and  N_22
REMARK                            x       y       z     vdW  Elec       q    Type
REMARK                         _______ _______ _______ _____ _____    ______ ____
ROOT
ATOM      1  N   UNL     1      -1.026  10.283  19.379  0.00  0.00    +0.000 NA
ATOM      2  C   UNL     1      -0.232   9.951  18.177  0.00  0.00    +0.000 C 
ATOM      3  C   UNL     1       1.293  10.078  18.388  0.00  0.00    +0.000 C 
ATOM      4  N   UNL     1       1.799   9.212  19.475  0.00  0.00    +0.000 NA
ATOM      5  C   UNL     1       1.033   9.523  20.705  0.00  0.00    +0.000 C 
ATOM      6  C   UNL     1      -0.509   9.501  20.530  0.00  0.00    +0.000 C 
ENDROOT
BRANCH   1   7
ATOM      7  C   UNL     1      -1.005  11.736  19.683  0.00  0.00    +0.000 C 
BRANCH   7   8
ATOM      8  C   UNL     1      -2.041  12.172  20.749  0.00  0.00    +0.000 C 
BRANCH   8   9
ATOM      9  O   UNL     1      -1.321  12.862  21.798  0.00  0.00    +0.000 OA
BRANCH   9  11
ATOM     10  C   UNL     1      -1.477  14.071  23.807  0.00  0.00    +0.000 C 
ATOM     11  C   UNL     1      -1.918  12.876  23.016  0.00  0.00    +0.000 C 
ATOM     12  O   UNL     1      -2.684  12.023  23.440  0.00  0.00    +0.000 OA
ENDBRANCH   9  11
ENDBRANCH   8   9
BRANCH   8  13
ATOM     13  C   UNL     1      -3.097  13.130  20.172  0.00  0.00    +0.000 C 
BRANCH  13  14
ATOM     14  C   UNL     1      -4.480  12.538  20.067  0.00  0.00    +0.000 A 
ATOM     15  C   UNL     1      -4.925  11.940  18.878  0.00  0.00    +0.000 A 
ATOM     16  C   UNL     1      -6.205  11.388  18.801  0.00  0.00    +0.000 A 
ATOM     17  C   UNL     1      -7.048  11.422  19.910  0.00  0.00    +0.000 A 
ATOM     18  C   UNL     1      -6.614  12.013  21.097  0.00  0.00    +0.000 A 
ATOM     19  C   UNL     1      -5.337  12.568  21.174  0.00  0.00    +0.000 A 
ENDBRANCH  13  14
ENDBRANCH   8  13
ENDBRANCH   7   8
ENDBRANCH   1   7
BRANCH   4  20
ATOM     20  C   UNL     1       1.691   7.785  19.125  0.00  0.00    +0.000 C 
BRANCH  20  21
ATOM     21  C   UNL     1       2.354   7.461  17.771  0.00  0.00    +0.000 C 
BRANCH  21  22
ATOM     22  C   UNL     1       3.841   7.082  17.882  0.00  0.00    +0.000 C 
BRANCH  22  23
ATOM     23  C   UNL     1       4.062   6.439  19.236  0.00  0.00    +0.000 C 
BRANCH  23  24
ATOM     24  N   UNL     1       4.257   4.993  19.282  0.00  0.00    +0.000 N 
ATOM     25  C   UNL     1       3.145   4.163  19.313  0.00  0.00    +0.000 A 
ATOM     26  C   UNL     1       2.043   4.126  20.190  0.00  0.00    +0.000 A 
ATOM     27  C   UNL     1       0.994   3.264  19.862  0.00  0.00    +0.000 A 
ATOM     28  C   UNL     1       1.029   2.494  18.701  0.00  0.00    +0.000 A 
ATOM     29  C   UNL     1       2.107   2.588  17.813  0.00  0.00    +0.000 A 
ATOM     30  C   UNL     1       3.184   3.429  18.123  0.00  0.00    +0.000 A 
ATOM     31  C   UNL     1       4.395   3.804  17.448  0.00  0.00    +0.000 A 
ATOM     32  C   UNL     1       4.902   3.663  16.144  0.00  0.00    +0.000 A 
ATOM     33  C   UNL     1       6.205   4.102  15.875  0.00  0.00    +0.000 A 
ATOM     34  C   UNL     1       7.029   4.572  16.898  0.00  0.00    +0.000 A 
ATOM     35  C   UNL     1       6.535   4.762  18.189  0.00  0.00    +0.000 A 
ATOM     36  C   UNL     1       5.184   4.456  18.391  0.00  0.00    +0.000 A 
ENDBRANCH  23  24
ENDBRANCH  22  23
ENDBRANCH  21  22
ENDBRANCH  20  21
ENDBRANCH   4  20
TORSDOF 11
ENDMDL
MODEL 3
REMARK VINA RESULT:      -7.6      0.987      2.838
REMARK  Name = 
REMARK  12 active torsions:
REMARK  status: ('A' for Active; 'I' for Inactive)
REMARK    1  A    between atoms: C_1  and  C_2
REMARK    2  A    between atoms: C_2  and  O_4
REMARK    3  A    between atoms: O_4  and  C_5
REMARK    4  A    between atoms: C_5  and  C_6
REMARK    5  A    between atoms: C_5  and  C_13
REMARK    6  A    between atoms: C_6  and  C_7
REMARK    7  A    between atoms: C_13  and  N_14
REMARK    8  A    between atoms: N_17  and  C_18
REMARK    9  A    between atoms: C_18  and  C_19
REMARK   10  A    between atoms: C_19  and  C_20
REMARK   11  A    between atoms: C_20  and  C_21
REMARK   12  A    between atoms: C_21  and  N_22
REMARK                            x       y       z     vdW  Elec       q    Type
REMARK                         _______ _______ _______ _____ _____    ______ ____
ROOT
ATOM      1  N   UNL     1      -1.034  13.117  18.939  0.00  0.00    +0.000 NA
ATOM      2  C   UNL     1       0.363  12.877  18.520  0.00  0.00    +0.000 C 
ATOM      3  C   UNL     1       1.122  11.888  19.433  0.00  0.00    +0.000 C 
ATOM      4  N   UNL     1       0.475  10.561  19.511  0.00  0.00    +0.000 NA
ATOM      5  C   UNL     1      -0.930  10.759  19.939  0.00  0.00    +0.000 C 
ATOM      6  C   UNL     1      -1.717  11.811  19.113  0.00  0.00    +0.000 C 
ENDROOT
BRANCH   1   7
ATOM      7  C   UNL     1      -1.117  13.921  20.184  0.00  0.00    +0.000 C 
BRANCH   7   8
ATOM      8  C   UNL     1      -2.375  13.630  21.039  0.00  0.00    +0.000 C 
BRANCH   8   9
ATOM      9  O   UNL     1      -1.990  13.740  22.430  0.00  0.00    +0.000 OA
BRANCH   9  11
ATOM     10  C   UNL     1      -3.026  12.038  23.675  0.00  0.00    +0.000 C 
ATOM     11  C   UNL     1      -1.759  12.568  23.075  0.00  0.00    +0.000 C 
ATOM     12  O   UNL     1      -0.670  12.026  23.190  0.00  0.00    +0.000 OA
ENDBRANCH   9  11
ENDBRANCH   8   9
BRANCH   8  13
ATOM     13  C   UNL     1      -3.506  14.637  20.766  0.00  0.00    +0.000 C 
BRANCH  13  14
ATOM     14  C   UNL     1      -4.867  14.010  20.597  0.00  0.00    +0.000 A 
ATOM     15  C   UNL     1      -5.086  12.659  20.905  0.00  0.00    +0.000 A 
ATOM     16  C   UNL     1      -6.354  12.096  20.752  0.00  0.00    +0.000 A 
ATOM     17  C   UNL     1      -7.414  12.876  20.296  0.00  0.00    +0.000 A 
ATOM     18  C   UNL     1      -7.207  14.221  19.988  0.00  0.00    +0.000 A 
ATOM     19  C   UNL     1      -5.939  14.784  20.137  0.00  0.00    +0.000 A 
ENDBRANCH  13  14
ENDBRANCH   8  13
ENDBRANCH   7   8
ENDBRANCH   1   7
BRANCH   4  20
ATOM     20  C   UNL     1       0.545   9.849  18.224  0.00  0.00    +0.000 C 
BRANCH  20  21
ATOM     21  C   UNL     1       1.947   9.269  17.949  0.00  0.00    +0.000 C 
BRANCH  21  22
ATOM     22  C   UNL     1       2.270   8.010  18.771  0.00  0.00    +0.000 C 
BRANCH  22  23
ATOM     23  C   UNL     1       2.813   6.957  17.826  0.00  0.00    +0.000 C 
BRANCH  23  24
ATOM     24  N   UNL     1       3.510   5.812  18.405  0.00  0.00    +0.000 N 
ATOM     25  C   UNL     1       2.795   4.656  18.681  0.00  0.00    +0.000 A 
ATOM     26  C   UNL     1       1.638   4.447  19.456  0.00  0.00    +0.000 A 
ATOM     27  C   UNL     1       1.060   3.176  19.414  0.00  0.00    +0.000 A 
ATOM     28  C   UNL     1       1.594   2.167  18.616  0.00  0.00    +0.000 A 
ATOM     29  C   UNL     1       2.711   2.411  17.808  0.00  0.00    +0.000 A 
ATOM     30  C   UNL     1       3.326   3.670  17.843  0.00  0.00    +0.000 A 
ATOM     31  C   UNL     1       4.421   4.275  17.138  0.00  0.00    +0.000 A 
ATOM     32  C   UNL     1       5.183   3.953  16.001  0.00  0.00    +0.000 A 
ATOM     33  C   UNL     1       6.261   4.779  15.654  0.00  0.00    +0.000 A 
ATOM     34  C   UNL     1       6.644   5.840  16.475  0.00  0.00    +0.000 A 
ATOM     35  C   UNL     1       5.879   6.205  17.583  0.00  0.00    +0.000 A 
ATOM     36  C   UNL     1       4.721   5.453  17.816  0.00  0.00    +0.000 A 
ENDBRANCH  23  24
ENDBRANCH  22  23
ENDBRANCH  21  22
ENDBRANCH  20  21
ENDBRANCH   4  20
TORSDOF 11
ENDMDL
MODEL 4
REMARK VINA RESULT:      -7.6      1.792      4.015
REMARK  Name = 
REMARK  12 active torsions:
REMARK  status: ('A' for Active; 'I' for Inactive)
REMARK    1  A    between atoms: C_1  and  C_2
REMARK    2  A    between atoms: C_2  and  O_4
REMARK    3  A    between atoms: O_4  and  C_5
REMARK    4  A    between atoms: C_5  and  C_6
REMARK    5  A    between atoms: C_5  and  C_13
REMARK    6  A    between atoms: C_6  and  C_7
REMARK    7  A    between atoms: C_13  and  N_14
REMARK    8  A    between atoms: N_17  and  C_18
REMARK    9  A    between atoms: C_18  and  C_19
REMARK   10  A    between atoms: C_19  and  C_20
REMARK   11  A    between atoms: C_20  and  C_21
REMARK   12  A    between atoms: C_21  and  N_22
REMARK                            x       y       z     vdW  Elec       q    Type
REMARK                         _______ _______ _______ _____ _____    ______ ____
ROOT
ATOM      1  N   UNL     1      -1.210  11.238  20.450  0.00  0.00    +0.000 NA
ATOM      2  C   UNL     1      -1.350  10.337  19.287  0.00  0.00    +0.000 C 
ATOM      3  C   UNL     1      -0.366  10.651  18.137  0.00  0.00    +0.000 C 
ATOM      4  N   UNL     1       1.051  10.578  18.555  0.00  0.00    +0.000 NA
ATOM      5  C   UNL     1       1.235  11.480  19.716  0.00  0.00    +0.000 C 
ATOM      6  C   UNL     1       0.214  11.271  20.867  0.00  0.00    +0.000 C 
ENDROOT
BRANCH   1   7
ATOM      7  C   UNL     1      -1.702  12.608  20.161  0.00  0.00    +0.000 C 
BRANCH   7   8
ATOM      8  C   UNL     1      -2.947  13.018  20.986  0.00  0.00    +0.000 C 
BRANCH   8   9
ATOM      9  O   UNL     1      -4.099  12.386  20.379  0.00  0.00    +0.000 OA
BRANCH   9  11
ATOM     10  C   UNL     1      -6.206  12.536  21.406  0.00  0.00    +0.000 C 
ATOM     11  C   UNL     1      -5.250  13.104  20.402  0.00  0.00    +0.000 C 
ATOM     12  O   UNL     1      -5.502  14.061  19.685  0.00  0.00    +0.000 OA
ENDBRANCH   9  11
ENDBRANCH   8   9
BRANCH   8  13
ATOM     13  C   UNL     1      -2.851  12.552  22.449  0.00  0.00    +0.000 C 
BRANCH  13  14
ATOM     14  C   UNL     1      -2.664  13.670  23.445  0.00  0.00    +0.000 A 
ATOM     15  C   UNL     1      -1.382  14.093  23.828  0.00  0.00    +0.000 A 
ATOM     16  C   UNL     1      -1.227  15.136  24.743  0.00  0.00    +0.000 A 
ATOM     17  C   UNL     1      -2.346  15.768  25.278  0.00  0.00    +0.000 A 
ATOM     18  C   UNL     1      -3.625  15.356  24.902  0.00  0.00    +0.000 A 
ATOM     19  C   UNL     1      -3.782  14.312  23.991  0.00  0.00    +0.000 A 
ENDBRANCH  13  14
ENDBRANCH   8  13
ENDBRANCH   7   8
ENDBRANCH   1   7
BRANCH   4  20
ATOM     20  C   UNL     1       1.449   9.199  18.882  0.00  0.00    +0.000 C 
BRANCH  20  21
ATOM     21  C   UNL     1       2.266   8.540  17.752  0.00  0.00    +0.000 C 
BRANCH  21  22
ATOM     22  C   UNL     1       2.444   7.022  17.919  0.00  0.00    +0.000 C 
BRANCH  22  23
ATOM     23  C   UNL     1       3.139   6.772  19.242  0.00  0.00    +0.000 C 
BRANCH  23  24
ATOM     24  N   UNL     1       3.574   5.410  19.540  0.00  0.00    +0.000 N 
ATOM     25  C   UNL     1       2.646   4.381  19.494  0.00  0.00    +0.000 A 
ATOM     26  C   UNL     1       1.412   4.218  20.153  0.00  0.00    +0.000 A 
ATOM     27  C   UNL     1       0.624   3.128  19.776  0.00  0.00    +0.000 A 
ATOM     28  C   UNL     1       1.033   2.256  18.769  0.00  0.00    +0.000 A 
ATOM     29  C   UNL     1       2.237   2.467  18.087  0.00  0.00    +0.000 A 
ATOM     30  C   UNL     1       3.060   3.540  18.455  0.00  0.00    +0.000 A 
ATOM     31  C   UNL     1       4.297   4.076  17.962  0.00  0.00    +0.000 A 
ATOM     32  C   UNL     1       5.079   3.895  16.807  0.00  0.00    +0.000 A 
ATOM     33  C   UNL     1       6.310   4.558  16.714  0.00  0.00    +0.000 A 
ATOM     34  C   UNL     1       6.809   5.299  17.787  0.00  0.00    +0.000 A 
ATOM     35  C   UNL     1       6.033   5.528  18.924  0.00  0.00    +0.000 A 
ATOM     36  C   UNL     1       4.746   4.977  18.922  0.00  0.00    +0.000 A 
ENDBRANCH  23  24
ENDBRANCH  22  23
ENDBRANCH  21  22
ENDBRANCH  20  21
ENDBRANCH   4  20
TORSDOF 11
ENDMDL
MODEL 5
REMARK VINA RESULT:      -7.6      2.869     10.904
REMARK  Name = 
REMARK  12 active torsions:
REMARK  status: ('A' for Active; 'I' for Inactive)
REMARK    1  A    between atoms: C_1  and  C_2
REMARK    2  A    between atoms: C_2  and  O_4
REMARK    3  A    between atoms: O_4  and  C_5
REMARK    4  A    between atoms: C_5  and  C_6
REMARK    5  A    between atoms: C_5  and  C_13
REMARK    6  A    between atoms: C_6  and  C_7
REMARK    7  A    between atoms: C_13  and  N_14
REMARK    8  A    between atoms: N_17  and  C_18
REMARK    9  A    between atoms: C_18  and  C_19
REMARK   10  A    between atoms: C_19  and  C_20
REMARK   11  A    between atoms: C_20  and  C_21
REMARK   12  A    between atoms: C_21  and  N_22
REMARK                            x       y       z     vdW  Elec       q    Type
REMARK                         _______ _______ _______ _____ _____    ______ ____
ROOT
ATOM      1  N   UNL     1      -0.061   8.615  21.160  0.00  0.00    +0.000 NA
ATOM      2  C   UNL     1      -0.488   8.579  22.574  0.00  0.00    +0.000 C 
ATOM      3  C   UNL     1       0.060   9.750  23.418  0.00  0.00    +0.000 C 
ATOM      4  N   UNL     1      -0.339  11.075  22.895  0.00  0.00    +0.000 NA
ATOM      5  C   UNL     1       0.083  11.155  21.477  0.00  0.00    +0.000 C 
ATOM      6  C   UNL     1      -0.363   9.955  20.599  0.00  0.00    +0.000 C 
ENDROOT
BRANCH   1   7
ATOM      7  C   UNL     1       1.380   8.294  21.000  0.00  0.00    +0.000 C 
BRANCH   7   8
ATOM      8  C   UNL     1       1.766   7.822  19.576  0.00  0.00    +0.000 C 
BRANCH   8   9
ATOM      9  O   UNL     1       2.409   8.933  18.909  0.00  0.00    +0.000 OA
BRANCH   9  11
ATOM     10  C   UNL     1       2.127  11.012  17.851  0.00  0.00    +0.000 C 
ATOM     11  C   UNL     1       1.652   9.598  18.001  0.00  0.00    +0.000 C 
ATOM     12  O   UNL     1       0.690   9.135  17.405  0.00  0.00    +0.000 OA
ENDBRANCH   9  11
ENDBRANCH   8   9
BRANCH   8  13
ATOM     13  C   UNL     1       2.748   6.638  19.606  0.00  0.00    +0.000 C 
BRANCH  13  14
ATOM     14  C   UNL     1       2.094   5.287  19.451  0.00  0.00    +0.000 A 
ATOM     15  C   UNL     1       1.954   4.690  18.189  0.00  0.00    +0.000 A 
ATOM     16  C   UNL     1       1.356   3.435  18.064  0.00  0.00    +0.000 A 
ATOM     17  C   UNL     1       0.898   2.764  19.195  0.00  0.00    +0.000 A 
ATOM     18  C   UNL     1       1.034   3.348  20.454  0.00  0.00    +0.000 A 
ATOM     19  C   UNL     1       1.628   4.604  20.581  0.00  0.00    +0.000 A 
ENDBRANCH  13  14
ENDBRANCH   8  13
ENDBRANCH   7   8
ENDBRANCH   1   7
BRANCH   4  20
ATOM     20  C   UNL     1      -1.788  11.297  23.033  0.00  0.00    +0.000 C 
BRANCH  20  21
ATOM     21  C   UNL     1      -2.333  12.291  21.988  0.00  0.00    +0.000 C 
BRANCH  21  22
ATOM     22  C   UNL     1      -3.620  13.010  22.426  0.00  0.00    +0.000 C 
BRANCH  22  23
ATOM     23  C   UNL     1      -4.079  13.892  21.283  0.00  0.00    +0.000 C 
BRANCH  23  24
ATOM     24  N   UNL     1      -5.462  13.762  20.831  0.00  0.00    +0.000 N 
ATOM     25  C   UNL     1      -5.814  12.681  20.037  0.00  0.00    +0.000 A 
ATOM     26  C   UNL     1      -5.286  12.221  18.815  0.00  0.00    +0.000 A 
ATOM     27  C   UNL     1      -5.758  10.997  18.334  0.00  0.00    +0.000 A 
ATOM     28  C   UNL     1      -6.694  10.253  19.051  0.00  0.00    +0.000 A 
ATOM     29  C   UNL     1      -7.164  10.701  20.291  0.00  0.00    +0.000 A 
ATOM     30  C   UNL     1      -6.724  11.934  20.792  0.00  0.00    +0.000 A 
ATOM     31  C   UNL     1      -6.945  12.662  22.009  0.00  0.00    +0.000 A 
ATOM     32  C   UNL     1      -7.503  12.370  23.266  0.00  0.00    +0.000 A 
ATOM     33  C   UNL     1      -7.621  13.401  24.209  0.00  0.00    +0.000 A 
ATOM     34  C   UNL     1      -7.295  14.717  23.877  0.00  0.00    +0.000 A 
ATOM     35  C   UNL     1      -6.699  15.023  22.654  0.00  0.00    +0.000 A 
ATOM     36  C   UNL     1      -6.455  13.947  21.792  0.00  0.00    +0.000 A 
ENDBRANCH  23  24
ENDBRANCH  22  23
ENDBRANCH  21  22
ENDBRANCH  20  21
ENDBRANCH   4  20
TORSDOF 11
ENDMDL
MODEL 6
REMARK VINA RESULT:      -7.6      2.717     11.181
REMARK  Name = 
REMARK  12 active torsions:
REMARK  status: ('A' for Active; 'I' for Inactive)
REMARK    1  A    between atoms: C_1  and  C_2
REMARK    2  A    between atoms: C_2  and  O_4
REMARK    3  A    between atoms: O_4  and  C_5
REMARK    4  A    between atoms: C_5  and  C_6
REMARK    5  A    between atoms: C_5  and  C_13
REMARK    6  A    between atoms: C_6  and  C_7
REMARK    7  A    between atoms: C_13  and  N_14
REMARK    8  A    between atoms: N_17  and  C_18
REMARK    9  A    between atoms: C_18  and  C_19
REMARK   10  A    between atoms: C_19  and  C_20
REMARK   11  A    between atoms: C_20  and  C_21
REMARK   12  A    between atoms: C_21  and  N_22
REMARK                            x       y       z     vdW  Elec       q    Type
REMARK                         _______ _______ _______ _____ _____    ______ ____
ROOT
ATOM      1  N   UNL     1       0.226   8.630  20.743  0.00  0.00    +0.000 NA
ATOM      2  C   UNL     1      -0.609   8.848  21.942  0.00  0.00    +0.000 C 
ATOM      3  C   UNL     1      -0.055   9.930  22.896  0.00  0.00    +0.000 C 
ATOM      4  N   UNL     1       0.095  11.249  22.246  0.00  0.00    +0.000 NA
ATOM      5  C   UNL     1       0.939  11.075  21.041  0.00  0.00    +0.000 C 
ATOM      6  C   UNL     1       0.482   9.938  20.089  0.00  0.00    +0.000 C 
ENDROOT
BRANCH   1   7
ATOM      7  C   UNL     1       1.505   7.948  21.065  0.00  0.00    +0.000 C 
BRANCH   7   8
ATOM      8  C   UNL     1       1.848   6.771  20.119  0.00  0.00    +0.000 C 
BRANCH   8   9
ATOM      9  O   UNL     1       3.076   7.108  19.432  0.00  0.00    +0.000 OA
BRANCH   9  11
ATOM     10  C   UNL     1       3.980   6.537  17.340  0.00  0.00    +0.000 C 
ATOM     11  C   UNL     1       2.965   7.338  18.099  0.00  0.00    +0.000 C 
ATOM     12  O   UNL     1       2.178   8.113  17.577  0.00  0.00    +0.000 OA
ENDBRANCH   9  11
ENDBRANCH   8   9
BRANCH   8  13
ATOM     13  C   UNL     1       2.065   5.456  20.888  0.00  0.00    +0.000 C 
BRANCH  13  14
ATOM     14  C   UNL     1       2.118   4.228  20.012  0.00  0.00    +0.000 A 
ATOM     15  C   UNL     1       0.943   3.615  19.551  0.00  0.00    +0.000 A 
ATOM     16  C   UNL     1       1.010   2.486  18.734  0.00  0.00    +0.000 A 
ATOM     17  C   UNL     1       2.248   1.962  18.366  0.00  0.00    +0.000 A 
ATOM     18  C   UNL     1       3.421   2.565  18.819  0.00  0.00    +0.000 A 
ATOM     19  C   UNL     1       3.356   3.692  19.638  0.00  0.00    +0.000 A 
ENDBRANCH  13  14
ENDBRANCH   8  13
ENDBRANCH   7   8
ENDBRANCH   1   7
BRANCH   4  20
ATOM     20  C   UNL     1      -1.211  11.836  21.903  0.00  0.00    +0.000 C 
BRANCH  20  21
ATOM     21  C   UNL     1      -1.295  13.333  22.261  0.00  0.00    +0.000 C 
BRANCH  21  22
ATOM     22  C   UNL     1      -2.709  13.801  22.648  0.00  0.00    +0.000 C 
BRANCH  22  23
ATOM     23  C   UNL     1      -3.699  12.770  22.144  0.00  0.00    +0.000 C 
BRANCH  23  24
ATOM     24  N   UNL     1      -4.836  13.242  21.358  0.00  0.00    +0.000 N 
ATOM     25  C   UNL     1      -5.268  12.487  20.277  0.00  0.00    +0.000 A 
ATOM     26  C   UNL     1      -4.577  12.014  19.145  0.00  0.00    +0.000 A 
ATOM     27  C   UNL     1      -5.260  11.137  18.299  0.00  0.00    +0.000 A 
ATOM     28  C   UNL     1      -6.562  10.729  18.581  0.00  0.00    +0.000 A 
ATOM     29  C   UNL     1      -7.211  11.166  19.742  0.00  0.00    +0.000 A 
ATOM     30  C   UNL     1      -6.561  12.062  20.602  0.00  0.00    +0.000 A 
ATOM     31  C   UNL     1      -6.886  12.662  21.864  0.00  0.00    +0.000 A 
ATOM     32  C   UNL     1      -7.867  12.455  22.850  0.00  0.00    +0.000 A 
ATOM     33  C   UNL     1      -7.916  13.326  23.947  0.00  0.00    +0.000 A 
ATOM     34  C   UNL     1      -7.083  14.444  24.013  0.00  0.00    +0.000 A 
ATOM     35  C   UNL     1      -6.075  14.646  23.071  0.00  0.00    +0.000 A 
ATOM     36  C   UNL     1      -5.953  13.674  22.070  0.00  0.00    +0.000 A 
ENDBRANCH  23  24
ENDBRANCH  22  23
ENDBRANCH  21  22
ENDBRANCH  20  21
ENDBRANCH   4  20
TORSDOF 11
ENDMDL
MODEL 7
REMARK VINA RESULT:      -7.5      1.630      3.316
REMARK  Name = 
REMARK  12 active torsions:
REMARK  status: ('A' for Active; 'I' for Inactive)
REMARK    1  A    between atoms: C_1  and  C_2
REMARK    2  A    between atoms: C_2  and  O_4
REMARK    3  A    between atoms: O_4  and  C_5
REMARK    4  A    between atoms: C_5  and  C_6
REMARK    5  A    between atoms: C_5  and  C_13
REMARK    6  A    between atoms: C_6  and  C_7
REMARK    7  A    between atoms: C_13  and  N_14
REMARK    8  A    between atoms: N_17  and  C_18
REMARK    9  A    between atoms: C_18  and  C_19
REMARK   10  A    between atoms: C_19  and  C_20
REMARK   11  A    between atoms: C_20  and  C_21
REMARK   12  A    between atoms: C_21  and  N_22
REMARK                            x       y       z     vdW  Elec       q    Type
REMARK                         _______ _______ _______ _____ _____    ______ ____
ROOT
ATOM      1  N   UNL     1      -0.751  10.899  20.221  0.00  0.00    +0.000 NA
ATOM      2  C   UNL     1      -0.026  11.468  19.065  0.00  0.00    +0.000 C 
ATOM      3  C   UNL     1       1.497  11.209  19.101  0.00  0.00    +0.000 C 
ATOM      4  N   UNL     1       1.837   9.771  19.141  0.00  0.00    +0.000 NA
ATOM      5  C   UNL     1       1.136   9.165  20.298  0.00  0.00    +0.000 C 
ATOM      6  C   UNL     1      -0.385   9.468  20.365  0.00  0.00    +0.000 C 
ENDROOT
BRANCH   1   7
ATOM      7  C   UNL     1      -0.471  11.639  21.478  0.00  0.00    +0.000 C 
BRANCH   7   8
ATOM      8  C   UNL     1      -1.494  12.759  21.791  0.00  0.00    +0.000 C 
BRANCH   8   9
ATOM      9  O   UNL     1      -0.874  14.021  21.450  0.00  0.00    +0.000 OA
BRANCH   9  11
ATOM     10  C   UNL     1      -0.873  15.095  23.539  0.00  0.00    +0.000 C 
ATOM     11  C   UNL     1      -0.065  14.559  22.396  0.00  0.00    +0.000 C 
ATOM     12  O   UNL     1       1.153  14.636  22.327  0.00  0.00    +0.000 OA
ENDBRANCH   9  11
ENDBRANCH   8   9
BRANCH   8  13
ATOM     13  C   UNL     1      -2.784  12.611  20.966  0.00  0.00    +0.000 C 
BRANCH  13  14
ATOM     14  C   UNL     1      -4.053  12.696  21.779  0.00  0.00    +0.000 A 
ATOM     15  C   UNL     1      -4.012  12.878  23.170  0.00  0.00    +0.000 A 
ATOM     16  C   UNL     1      -5.194  12.964  23.906  0.00  0.00    +0.000 A 
ATOM     17  C   UNL     1      -6.426  12.875  23.261  0.00  0.00    +0.000 A 
ATOM     18  C   UNL     1      -6.477  12.696  21.879  0.00  0.00    +0.000 A 
ATOM     19  C   UNL     1      -5.296  12.606  21.142  0.00  0.00    +0.000 A 
ENDBRANCH  13  14
ENDBRANCH   8  13
ENDBRANCH   7   8
ENDBRANCH   1   7
BRANCH   4  20
ATOM     20  C   UNL     1       1.477   9.093  17.884  0.00  0.00    +0.000 C 
BRANCH  20  21
ATOM     21  C   UNL     1       1.703   7.569  17.953  0.00  0.00    +0.000 C 
BRANCH  21  22
ATOM     22  C   UNL     1       3.184   7.159  17.903  0.00  0.00    +0.000 C 
BRANCH  22  23
ATOM     23  C   UNL     1       3.583   6.666  19.279  0.00  0.00    +0.000 C 
BRANCH  23  24
ATOM     24  N   UNL     1       3.900   5.250  19.434  0.00  0.00    +0.000 N 
ATOM     25  C   UNL     1       2.868   4.322  19.417  0.00  0.00    +0.000 A 
ATOM     26  C   UNL     1       1.695   4.229  20.191  0.00  0.00    +0.000 A 
ATOM     27  C   UNL     1       0.763   3.255  19.826  0.00  0.00    +0.000 A 
ATOM     28  C   UNL     1       0.976   2.430  18.724  0.00  0.00    +0.000 A 
ATOM     29  C   UNL     1       2.121   2.577  17.932  0.00  0.00    +0.000 A 
ATOM     30  C   UNL     1       3.085   3.531  18.283  0.00  0.00    +0.000 A 
ATOM     31  C   UNL     1       4.317   3.981  17.698  0.00  0.00    +0.000 A 
ATOM     32  C   UNL     1       4.956   3.817  16.456  0.00  0.00    +0.000 A 
ATOM     33  C   UNL     1       6.235   4.362  16.278  0.00  0.00    +0.000 A 
ATOM     34  C   UNL     1       6.913   4.963  17.340  0.00  0.00    +0.000 A 
ATOM     35  C   UNL     1       6.283   5.175  18.566  0.00  0.00    +0.000 A 
ATOM     36  C   UNL     1       4.951   4.755  18.665  0.00  0.00    +0.000 A 
ENDBRANCH  23  24
ENDBRANCH  22  23
ENDBRANCH  21  22
ENDBRANCH  20  21
ENDBRANCH   4  20
TORSDOF 11
ENDMDL
MODEL 8
REMARK VINA RESULT:      -7.5      2.833     10.656
REMARK  Name = 
REMARK  12 active torsions:
REMARK  status: ('A' for Active; 'I' for Inactive)
REMARK    1  A    between atoms: C_1  and  C_2
REMARK    2  A    between atoms: C_2  and  O_4
REMARK    3  A    between atoms: O_4  and  C_5
REMARK    4  A    between atoms: C_5  and  C_6
REMARK    5  A    between atoms: C_5  and  C_13
REMARK    6  A    between atoms: C_6  and  C_7
REMARK    7  A    between atoms: C_13  and  N_14
REMARK    8  A    between atoms: N_17  and  C_18
REMARK    9  A    between atoms: C_18  and  C_19
REMARK   10  A    between atoms: C_19  and  C_20
REMARK   11  A    between atoms: C_20  and  C_21
REMARK   12  A    between atoms: C_21  and  N_22
REMARK                            x       y       z     vdW  Elec       q    Type
REMARK                         _______ _______ _______ _____ _____    ______ ____
ROOT
ATOM      1  N   UNL     1       2.902   7.297  18.711  0.00  0.00    +0.000 NA
ATOM      2  C   UNL     1       2.824   8.505  17.862  0.00  0.00    +0.000 C 
ATOM      3  C   UNL     1       1.393   9.069  17.717  0.00  0.00    +0.000 C 
ATOM      4  N   UNL     1       0.780   9.429  19.014  0.00  0.00    +0.000 NA
ATOM      5  C   UNL     1       0.830   8.237  19.893  0.00  0.00    +0.000 C 
ATOM      6  C   UNL     1       2.228   7.572  20.004  0.00  0.00    +0.000 C 
ENDROOT
BRANCH   1   7
ATOM      7  C   UNL     1       2.306   6.108  18.052  0.00  0.00    +0.000 C 
BRANCH   7   8
ATOM      8  C   UNL     1       2.464   4.795  18.859  0.00  0.00    +0.000 C 
BRANCH   8   9
ATOM      9  O   UNL     1       1.136   4.333  19.202  0.00  0.00    +0.000 OA
BRANCH   9  11
ATOM     10  C   UNL     1       1.440   2.965  21.088  0.00  0.00    +0.000 C 
ATOM     11  C   UNL     1       1.050   3.053  19.643  0.00  0.00    +0.000 C 
ATOM     12  O   UNL     1       0.734   2.088  18.962  0.00  0.00    +0.000 OA
ENDBRANCH   9  11
ENDBRANCH   8   9
BRANCH   8  13
ATOM     13  C   UNL     1       3.166   3.697  18.043  0.00  0.00    +0.000 C 
BRANCH  13  14
ATOM     14  C   UNL     1       4.562   4.054  17.594  0.00  0.00    +0.000 A 
ATOM     15  C   UNL     1       5.552   4.414  18.521  0.00  0.00    +0.000 A 
ATOM     16  C   UNL     1       6.840   4.733  18.090  0.00  0.00    +0.000 A 
ATOM     17  C   UNL     1       7.153   4.690  16.733  0.00  0.00    +0.000 A 
ATOM     18  C   UNL     1       6.177   4.332  15.804  0.00  0.00    +0.000 A 
ATOM     19  C   UNL     1       4.887   4.017  16.233  0.00  0.00    +0.000 A 
ENDBRANCH  13  14
ENDBRANCH   8  13
ENDBRANCH   7   8
ENDBRANCH   1   7
BRANCH   4  20
ATOM     20  C   UNL     1       1.462  10.578  19.634  0.00  0.00    +0.000 C 
BRANCH  20  21
ATOM     21  C   UNL     1       0.473  11.663  20.106  0.00  0.00    +0.000 C 
BRANCH  21  22
ATOM     22  C   UNL     1       0.374  12.868  19.156  0.00  0.00    +0.000 C 
BRANCH  22  23
ATOM     23  C   UNL     1      -0.946  12.777  18.417  0.00  0.00    +0.000 C 
BRANCH  23  24
ATOM     24  N   UNL     1      -1.942  11.830  18.909  0.00  0.00    +0.000 N 
ATOM     25  C   UNL     1      -2.918  12.274  19.790  0.00  0.00    +0.000 A 
ATOM     26  C   UNL     1      -2.814  12.936  21.029  0.00  0.00    +0.000 A 
ATOM     27  C   UNL     1      -3.997  13.397  21.609  0.00  0.00    +0.000 A 
ATOM     28  C   UNL     1      -5.226  13.231  20.973  0.00  0.00    +0.000 A 
ATOM     29  C   UNL     1      -5.302  12.623  19.714  0.00  0.00    +0.000 A 
ATOM     30  C   UNL     1      -4.134  12.131  19.114  0.00  0.00    +0.000 A 
ATOM     31  C   UNL     1      -3.834  11.516  17.852  0.00  0.00    +0.000 A 
ATOM     32  C   UNL     1      -4.514  11.341  16.634  0.00  0.00    +0.000 A 
ATOM     33  C   UNL     1      -3.903  10.589  15.621  0.00  0.00    +0.000 A 
ATOM     34  C   UNL     1      -2.692   9.932  15.847  0.00  0.00    +0.000 A 
ATOM     35  C   UNL     1      -1.979  10.125  17.030  0.00  0.00    +0.000 A 
ATOM     36  C   UNL     1      -2.544  11.004  17.962  0.00  0.00    +0.000 A 
ENDBRANCH  23  24
ENDBRANCH  22  23
ENDBRANCH  21  22
ENDBRANCH  20  21
ENDBRANCH   4  20
TORSDOF 11
ENDMDL
MODEL 9
REMARK VINA RESULT:      -7.5      1.421      1.863
REMARK  Name = 
REMARK  12 active torsions:
REMARK  status: ('A' for Active; 'I' for Inactive)
REMARK    1  A    between atoms: C_1  and  C_2
REMARK    2  A    between atoms: C_2  and  O_4
REMARK    3  A    between atoms: O_4  and  C_5
REMARK    4  A    between atoms: C_5  and  C_6
REMARK    5  A    between atoms: C_5  and  C_13
REMARK    6  A    between atoms: C_6  and  C_7
REMARK    7  A    between atoms: C_13  and  N_14
REMARK    8  A    between atoms: N_17  and  C_18
REMARK    9  A    between atoms: C_18  and  C_19
REMARK   10  A    between atoms: C_19  and  C_20
REMARK   11  A    between atoms: C_20  and  C_21
REMARK   12  A    between atoms: C_21  and  N_22
REMARK                            x       y       z     vdW  Elec       q    Type
REMARK                         _______ _______ _______ _____ _____    ______ ____
ROOT
ATOM      1  N   UNL     1      -0.789  12.810  20.922  0.00  0.00    +0.000 NA
ATOM      2  C   UNL     1      -1.067  11.365  20.783  0.00  0.00    +0.000 C 
ATOM      3  C   UNL     1      -1.130  10.883  19.316  0.00  0.00    +0.000 C 
ATOM      4  N   UNL     1       0.120  11.142  18.570  0.00  0.00    +0.000 NA
ATOM      5  C   UNL     1       0.429  12.587  18.676  0.00  0.00    +0.000 C 
ATOM      6  C   UNL     1       0.416  13.148  20.124  0.00  0.00    +0.000 C 
ENDROOT
BRANCH   1   7
ATOM      7  C   UNL     1      -1.943  13.646  20.507  0.00  0.00    +0.000 C 
BRANCH   7   8
ATOM      8  C   UNL     1      -3.282  13.248  21.176  0.00  0.00    +0.000 C 
BRANCH   8   9
ATOM      9  O   UNL     1      -3.175  13.562  22.584  0.00  0.00    +0.000 OA
BRANCH   9  11
ATOM     10  C   UNL     1      -4.925  13.005  24.049  0.00  0.00    +0.000 C 
ATOM     11  C   UNL     1      -3.616  12.605  23.440  0.00  0.00    +0.000 C 
ATOM     12  O   UNL     1      -3.023  11.572  23.713  0.00  0.00    +0.000 OA
ENDBRANCH   9  11
ENDBRANCH   8   9
BRANCH   8  13
ATOM     13  C   UNL     1      -4.473  14.028  20.593  0.00  0.00    +0.000 C 
BRANCH  13  14
ATOM     14  C   UNL     1      -5.357  13.216  19.678  0.00  0.00    +0.000 A 
ATOM     15  C   UNL     1      -5.007  11.910  19.303  0.00  0.00    +0.000 A 
ATOM     16  C   UNL     1      -5.841  11.169  18.464  0.00  0.00    +0.000 A 
ATOM     17  C   UNL     1      -7.032  11.722  17.998  0.00  0.00    +0.000 A 
ATOM     18  C   UNL     1      -7.390  13.018  18.367  0.00  0.00    +0.000 A 
ATOM     19  C   UNL     1      -6.556  13.762  19.202  0.00  0.00    +0.000 A 
ENDBRANCH  13  14
ENDBRANCH   8  13
ENDBRANCH   7   8
ENDBRANCH   1   7
BRANCH   4  20
ATOM     20  C   UNL     1       1.232  10.321  19.076  0.00  0.00    +0.000 C 
BRANCH  20  21
ATOM     21  C   UNL     1       2.052   9.677  17.939  0.00  0.00    +0.000 C 
BRANCH  21  22
ATOM     22  C   UNL     1       1.768   8.178  17.742  0.00  0.00    +0.000 C 
BRANCH  22  23
ATOM     23  C   UNL     1       2.888   7.396  18.398  0.00  0.00    +0.000 C 
BRANCH  23  24
ATOM     24  N   UNL     1       3.485   6.296  17.646  0.00  0.00    +0.000 N 
ATOM     25  C   UNL     1       4.867   6.197  17.579  0.00  0.00    +0.000 A 
ATOM     26  C   UNL     1       5.841   7.122  17.157  0.00  0.00    +0.000 A 
ATOM     27  C   UNL     1       7.180   6.778  17.357  0.00  0.00    +0.000 A 
ATOM     28  C   UNL     1       7.532   5.579  17.974  0.00  0.00    +0.000 A 
ATOM     29  C   UNL     1       6.548   4.699  18.439  0.00  0.00    +0.000 A 
ATOM     30  C   UNL     1       5.196   5.006  18.235  0.00  0.00    +0.000 A 
ATOM     31  C   UNL     1       3.956   4.386  18.608  0.00  0.00    +0.000 A 
ATOM     32  C   UNL     1       3.573   3.357  19.487  0.00  0.00    +0.000 A 
ATOM     33  C   UNL     1       2.228   2.963  19.521  0.00  0.00    +0.000 A 
ATOM     34  C   UNL     1       1.301   3.500  18.626  0.00  0.00    +0.000 A 
ATOM     35  C   UNL     1       1.647   4.550  17.776  0.00  0.00    +0.000 A 
ATOM     36  C   UNL     1       2.961   5.024  17.874  0.00  0.00    +0.000 A 
ENDBRANCH  23  24
ENDBRANCH  22  23
ENDBRANCH  21  22
ENDBRANCH  20  21
ENDBRANCH   4  20
TORSDOF 11
ENDMDL
