MODEL 1
REMARK VINA RESULT:      -4.7      0.000      0.000
REMARK  Name = 
REMARK  17 active torsions:
REMARK  status: ('A' for Active; 'I' for Inactive)
REMARK    1  A    between atoms: C_1  and  O_2
REMARK    2  A    between atoms: O_2  and  C_3
REMARK    3  A    between atoms: C_3  and  C_4
REMARK    4  A    between atoms: C_4  and  O_5
REMARK    5  A    between atoms: O_5  and  C_6
REMARK    6  A    between atoms: C_6  and  C_7
REMARK    7  A    between atoms: C_7  and  O_8
REMARK    8  A    between atoms: O_8  and  C_9
REMARK    9  A    between atoms: C_9  and  C_10
REMARK   10  A    between atoms: C_10  and  O_11
REMARK   11  A    between atoms: O_11  and  C_12
REMARK   12  A    between atoms: N_14  and  C_15
REMARK   13  A    between atoms: C_15  and  C_16
REMARK   14  A    between atoms: C_16  and  N_17
REMARK   15  A    between atoms: N_17  and  C_18
REMARK   16  A    between atoms: N_17  and  C_19
REMARK   17  A    between atoms: N_17  and  C_20
REMARK                            x       y       z     vdW  Elec       q    Type
REMARK                         _______ _______ _______ _____ _____    ______ ____
ROOT
ATOM      1  O   UNL     1       3.783   2.330  17.754  0.00  0.00    +0.000 OA
ENDROOT
BRANCH   1   2
ATOM      2  C   UNL     1       3.037   3.408  17.292  0.00  0.00    +0.000 C 
ATOM      3  O   UNL     1       1.866   3.257  17.037  0.00  0.00    +0.000 OA
ATOM      4  N   UNL     1       3.633   4.607  17.221  0.00  0.00    +0.000 N 
ATOM      5  H   UNL     1       3.099   5.431  17.583  0.00  0.00    +0.000 HD
BRANCH   4   6
ATOM      6  C   UNL     1       4.825   4.832  16.467  0.00  0.00    +0.000 C 
BRANCH   6   7
ATOM      7  C   UNL     1       5.648   6.061  17.002  0.00  0.00    +0.000 C 
BRANCH   7   8
ATOM      8  N   UNL     1       6.730   5.710  17.983  0.00  0.00    +0.000 N 
ATOM      9  C   UNL     1       7.675   6.836  18.169  0.00  0.00    +0.000 C 
ATOM     10  C   UNL     1       6.163   5.318  19.290  0.00  0.00    +0.000 C 
ATOM     11  C   UNL     1       7.506   4.552  17.453  0.00  0.00    +0.000 C 
ENDBRANCH   7   8
ENDBRANCH   6   7
ENDBRANCH   4   6
ENDBRANCH   1   2
BRANCH   1  12
ATOM     12  C   UNL     1       3.460   1.648  18.903  0.00  0.00    +0.000 C 
BRANCH  12  13
ATOM     13  C   UNL     1       3.656   2.580  20.078  0.00  0.00    +0.000 C 
BRANCH  13  14
ATOM     14  O   UNL     1       2.451   2.654  20.813  0.00  0.00    +0.000 OA
BRANCH  14  15
ATOM     15  C   UNL     1       2.313   3.960  21.337  0.00  0.00    +0.000 C 
BRANCH  15  16
ATOM     16  C   UNL     1       1.319   4.754  20.494  0.00  0.00    +0.000 C 
BRANCH  16  17
ATOM     17  O   UNL     1       2.041   5.584  19.611  0.00  0.00    +0.000 OA
BRANCH  17  18
ATOM     18  C   UNL     1       2.105   6.901  20.111  0.00  0.00    +0.000 C 
BRANCH  18  19
ATOM     19  C   UNL     1       2.179   7.869  18.934  0.00  0.00    +0.000 C 
BRANCH  19  21
ATOM     20  C   UNL     1       0.982   9.670  18.126  0.00  0.00    +0.000 C 
ATOM     21  O   UNL     1       1.548   9.083  19.279  0.00  0.00    +0.000 OA
ENDBRANCH  19  21
ENDBRANCH  18  19
ENDBRANCH  17  18
ENDBRANCH  16  17
ENDBRANCH  15  16
ENDBRANCH  14  15
ENDBRANCH  13  14
ENDBRANCH  12  13
ENDBRANCH   1  12
TORSDOF 13
ENDMDL
MODEL 2
REMARK VINA RESULT:      -4.7      2.782      5.755
REMARK  Name = 
REMARK  17 active torsions:
REMARK  status: ('A' for Active; 'I' for Inactive)
REMARK    1  A    between atoms: C_1  and  O_2
REMARK    2  A    between atoms: O_2  and  C_3
REMARK    3  A    between atoms: C_3  and  C_4
REMARK    4  A    between atoms: C_4  and  O_5
REMARK    5  A    between atoms: O_5  and  C_6
REMARK    6  A    between atoms: C_6  and  C_7
REMARK    7  A    between atoms: C_7  and  O_8
REMARK    8  A    between atoms: O_8  and  C_9
REMARK    9  A    between atoms: C_9  and  C_10
REMARK   10  A    between atoms: C_10  and  O_11
REMARK   11  A    between atoms: O_11  and  C_12
REMARK   12  A    between atoms: N_14  and  C_15
REMARK   13  A    between atoms: C_15  and  C_16
REMARK   14  A    between atoms: C_16  and  N_17
REMARK   15  A    between atoms: N_17  and  C_18
REMARK   16  A    between atoms: N_17  and  C_19
REMARK   17  A    between atoms: N_17  and  C_20
REMARK                            x       y       z     vdW  Elec       q    Type
REMARK                         _______ _______ _______ _____ _____    ______ ____
ROOT
ATOM      1  O   UNL     1       2.092   3.426  19.866  0.00  0.00    +0.000 OA
ENDROOT
BRANCH   1   2
ATOM      2  C   UNL     1       2.220   4.005  21.122  0.00  0.00    +0.000 C 
ATOM      3  O   UNL     1       2.310   3.299  22.098  0.00  0.00    +0.000 OA
ATOM      4  N   UNL     1       2.316   5.341  21.198  0.00  0.00    +0.000 N 
ATOM      5  H   UNL     1       3.050   5.734  21.833  0.00  0.00    +0.000 HD
BRANCH   4   6
ATOM      6  C   UNL     1       1.328   6.218  20.656  0.00  0.00    +0.000 C 
BRANCH   6   7
ATOM      7  C   UNL     1       1.852   7.693  20.510  0.00  0.00    +0.000 C 
BRANCH   7   8
ATOM      8  N   UNL     1       0.941   8.741  21.082  0.00  0.00    +0.000 N 
ATOM      9  C   UNL     1      -0.411   8.194  21.347  0.00  0.00    +0.000 C 
ATOM     10  C   UNL     1       1.495   9.312  22.327  0.00  0.00    +0.000 C 
ATOM     11  C   UNL     1       0.796   9.847  20.094  0.00  0.00    +0.000 C 
ENDBRANCH   7   8
ENDBRANCH   6   7
ENDBRANCH   4   6
ENDBRANCH   1   2
BRANCH   1  12
ATOM     12  C   UNL     1       3.030   2.559  19.355  0.00  0.00    +0.000 C 
BRANCH  12  13
ATOM     13  C   UNL     1       3.974   3.347  18.475  0.00  0.00    +0.000 C 
BRANCH  13  14
ATOM     14  O   UNL     1       3.239   4.328  17.772  0.00  0.00    +0.000 OA
BRANCH  14  15
ATOM     15  C   UNL     1       3.897   5.573  17.898  0.00  0.00    +0.000 C 
BRANCH  15  16
ATOM     16  C   UNL     1       5.144   5.415  18.763  0.00  0.00    +0.000 C 
BRANCH  16  17
ATOM     17  O   UNL     1       6.205   6.119  18.157  0.00  0.00    +0.000 OA
BRANCH  17  18
ATOM     18  C   UNL     1       7.359   5.311  18.086  0.00  0.00    +0.000 C 
BRANCH  18  19
ATOM     19  C   UNL     1       7.339   4.545  16.766  0.00  0.00    +0.000 C 
BRANCH  19  21
ATOM     20  C   UNL     1       6.709   4.907  14.574  0.00  0.00    +0.000 C 
ATOM     21  O   UNL     1       7.379   5.457  15.689  0.00  0.00    +0.000 OA
ENDBRANCH  19  21
ENDBRANCH  18  19
ENDBRANCH  17  18
ENDBRANCH  16  17
ENDBRANCH  15  16
ENDBRANCH  14  15
ENDBRANCH  13  14
ENDBRANCH  12  13
ENDBRANCH   1  12
TORSDOF 13
ENDMDL
MODEL 3
REMARK VINA RESULT:      -4.7      4.922      7.563
REMARK  Name = 
REMARK  17 active torsions:
REMARK  status: ('A' for Active; 'I' for Inactive)
REMARK    1  A    between atoms: C_1  and  O_2
REMARK    2  A    between atoms: O_2  and  C_3
REMARK    3  A    between atoms: C_3  and  C_4
REMARK    4  A    between atoms: C_4  and  O_5
REMARK    5  A    between atoms: O_5  and  C_6
REMARK    6  A    between atoms: C_6  and  C_7
REMARK    7  A    between atoms: C_7  and  O_8
REMARK    8  A    between atoms: O_8  and  C_9
REMARK    9  A    between atoms: C_9  and  C_10
REMARK   10  A    between atoms: C_10  and  O_11
REMARK   11  A    between atoms: O_11  and  C_12
REMARK   12  A    between atoms: N_14  and  C_15
REMARK   13  A    between atoms: C_15  and  C_16
REMARK   14  A    between atoms: C_16  and  N_17
REMARK   15  A    between atoms: N_17  and  C_18
REMARK   16  A    between atoms: N_17  and  C_19
REMARK   17  A    between atoms: N_17  and  C_20
REMARK                            x       y       z     vdW  Elec       q    Type
REMARK                         _______ _______ _______ _____ _____    ______ ____
ROOT
ATOM      1  O   UNL     1       6.385   6.258  18.015  0.00  0.00    +0.000 OA
ENDROOT
BRANCH   1   2
ATOM      2  C   UNL     1       6.264   5.518  19.185  0.00  0.00    +0.000 C 
ATOM      3  O   UNL     1       7.234   5.344  19.883  0.00  0.00    +0.000 OA
ATOM      4  N   UNL     1       5.044   5.084  19.537  0.00  0.00    +0.000 N 
ATOM      5  H   UNL     1       4.765   5.201  20.539  0.00  0.00    +0.000 HD
BRANCH   4   6
ATOM      6  C   UNL     1       4.239   4.271  18.683  0.00  0.00    +0.000 C 
BRANCH   6   7
ATOM      7  C   UNL     1       3.725   2.971  19.405  0.00  0.00    +0.000 C 
BRANCH   7   8
ATOM      8  N   UNL     1       2.322   3.062  19.934  0.00  0.00    +0.000 N 
ATOM      9  C   UNL     1       1.469   1.979  19.389  0.00  0.00    +0.000 C 
ATOM     10  C   UNL     1       2.301   3.012  21.410  0.00  0.00    +0.000 C 
ATOM     11  C   UNL     1       1.729   4.362  19.510  0.00  0.00    +0.000 C 
ENDBRANCH   7   8
ENDBRANCH   6   7
ENDBRANCH   4   6
ENDBRANCH   1   2
BRANCH   1  12
ATOM     12  C   UNL     1       7.600   6.689  17.537  0.00  0.00    +0.000 C 
BRANCH  12  13
ATOM     13  C   UNL     1       7.614   8.201  17.573  0.00  0.00    +0.000 C 
BRANCH  13  14
ATOM     14  O   UNL     1       8.557   8.631  18.534  0.00  0.00    +0.000 OA
BRANCH  14  15
ATOM     15  C   UNL     1       8.837  10.000  18.322  0.00  0.00    +0.000 C 
BRANCH  15  16
ATOM     16  C   UNL     1       9.404  10.616  19.597  0.00  0.00    +0.000 C 
BRANCH  16  17
ATOM     17  O   UNL     1      10.474  11.466  19.249  0.00  0.00    +0.000 OA
BRANCH  17  18
ATOM     18  C   UNL     1      10.651  11.494  17.851  0.00  0.00    +0.000 C 
BRANCH  18  19
ATOM     19  C   UNL     1      10.863  12.940  17.412  0.00  0.00    +0.000 C 
BRANCH  19  21
ATOM     20  C   UNL     1      10.057  14.928  18.268  0.00  0.00    +0.000 C 
ATOM     21  O   UNL     1       9.700  13.693  17.684  0.00  0.00    +0.000 OA
ENDBRANCH  19  21
ENDBRANCH  18  19
ENDBRANCH  17  18
ENDBRANCH  16  17
ENDBRANCH  15  16
ENDBRANCH  14  15
ENDBRANCH  13  14
ENDBRANCH  12  13
ENDBRANCH   1  12
TORSDOF 13
ENDMDL
MODEL 4
REMARK VINA RESULT:      -4.6      5.406      7.966
REMARK  Name = 
REMARK  17 active torsions:
REMARK  status: ('A' for Active; 'I' for Inactive)
REMARK    1  A    between atoms: C_1  and  O_2
REMARK    2  A    between atoms: O_2  and  C_3
REMARK    3  A    between atoms: C_3  and  C_4
REMARK    4  A    between atoms: C_4  and  O_5
REMARK    5  A    between atoms: O_5  and  C_6
REMARK    6  A    between atoms: C_6  and  C_7
REMARK    7  A    between atoms: C_7  and  O_8
REMARK    8  A    between atoms: O_8  and  C_9
REMARK    9  A    between atoms: C_9  and  C_10
REMARK   10  A    between atoms: C_10  and  O_11
REMARK   11  A    between atoms: O_11  and  C_12
REMARK   12  A    between atoms: N_14  and  C_15
REMARK   13  A    between atoms: C_15  and  C_16
REMARK   14  A    between atoms: C_16  and  N_17
REMARK   15  A    between atoms: N_17  and  C_18
REMARK   16  A    between atoms: N_17  and  C_19
REMARK   17  A    between atoms: N_17  and  C_20
REMARK                            x       y       z     vdW  Elec       q    Type
REMARK                         _______ _______ _______ _____ _____    ______ ____
ROOT
ATOM      1  O   UNL     1       7.905   6.143  17.969  0.00  0.00    +0.000 OA
ENDROOT
BRANCH   1   2
ATOM      2  C   UNL     1       7.325   4.975  17.488  0.00  0.00    +0.000 C 
ATOM      3  O   UNL     1       7.571   4.605  16.365  0.00  0.00    +0.000 OA
ATOM      4  N   UNL     1       6.565   4.254  18.327  0.00  0.00    +0.000 N 
ATOM      5  H   UNL     1       6.713   3.218  18.337  0.00  0.00    +0.000 HD
BRANCH   4   6
ATOM      6  C   UNL     1       5.429   4.798  19.000  0.00  0.00    +0.000 C 
BRANCH   6   7
ATOM      7  C   UNL     1       4.337   3.709  19.307  0.00  0.00    +0.000 C 
BRANCH   7   8
ATOM      8  N   UNL     1       3.016   3.939  18.630  0.00  0.00    +0.000 N 
ATOM      9  C   UNL     1       2.743   2.898  17.611  0.00  0.00    +0.000 C 
ATOM     10  C   UNL     1       1.911   3.975  19.610  0.00  0.00    +0.000 C 
ATOM     11  C   UNL     1       3.054   5.256  17.932  0.00  0.00    +0.000 C 
ENDBRANCH   7   8
ENDBRANCH   6   7
ENDBRANCH   4   6
ENDBRANCH   1   2
BRANCH   1  12
ATOM     12  C   UNL     1       7.568   7.386  17.487  0.00  0.00    +0.000 C 
BRANCH  12  13
ATOM     13  C   UNL     1       8.226   8.428  18.364  0.00  0.00    +0.000 C 
BRANCH  13  14
ATOM     14  O   UNL     1       8.296   9.649  17.655  0.00  0.00    +0.000 OA
BRANCH  14  15
ATOM     15  C   UNL     1       9.120  10.548  18.370  0.00  0.00    +0.000 C 
BRANCH  15  16
ATOM     16  C   UNL     1       8.885  11.972  17.875  0.00  0.00    +0.000 C 
BRANCH  16  17
ATOM     17  O   UNL     1       9.990  12.766  18.245  0.00  0.00    +0.000 OA
BRANCH  17  18
ATOM     18  C   UNL     1      11.099  12.488  17.419  0.00  0.00    +0.000 C 
BRANCH  18  19
ATOM     19  C   UNL     1      11.792  13.802  17.071  0.00  0.00    +0.000 C 
BRANCH  19  21
ATOM     20  C   UNL     1      11.008  15.964  16.855  0.00  0.00    +0.000 C 
ATOM     21  O   UNL     1      11.147  14.868  17.735  0.00  0.00    +0.000 OA
ENDBRANCH  19  21
ENDBRANCH  18  19
ENDBRANCH  17  18
ENDBRANCH  16  17
ENDBRANCH  15  16
ENDBRANCH  14  15
ENDBRANCH  13  14
ENDBRANCH  12  13
ENDBRANCH   1  12
TORSDOF 13
ENDMDL
MODEL 5
REMARK VINA RESULT:      -4.6      2.757      6.040
REMARK  Name = 
REMARK  17 active torsions:
REMARK  status: ('A' for Active; 'I' for Inactive)
REMARK    1  A    between atoms: C_1  and  O_2
REMARK    2  A    between atoms: O_2  and  C_3
REMARK    3  A    between atoms: C_3  and  C_4
REMARK    4  A    between atoms: C_4  and  O_5
REMARK    5  A    between atoms: O_5  and  C_6
REMARK    6  A    between atoms: C_6  and  C_7
REMARK    7  A    between atoms: C_7  and  O_8
REMARK    8  A    between atoms: O_8  and  C_9
REMARK    9  A    between atoms: C_9  and  C_10
REMARK   10  A    between atoms: C_10  and  O_11
REMARK   11  A    between atoms: O_11  and  C_12
REMARK   12  A    between atoms: N_14  and  C_15
REMARK   13  A    between atoms: C_15  and  C_16
REMARK   14  A    between atoms: C_16  and  N_17
REMARK   15  A    between atoms: N_17  and  C_18
REMARK   16  A    between atoms: N_17  and  C_19
REMARK   17  A    between atoms: N_17  and  C_20
REMARK                            x       y       z     vdW  Elec       q    Type
REMARK                         _______ _______ _______ _____ _____    ______ ____
ROOT
ATOM      1  O   UNL     1       2.968   4.779  17.737  0.00  0.00    +0.000 OA
ENDROOT
BRANCH   1   2
ATOM      2  C   UNL     1       3.696   3.733  17.184  0.00  0.00    +0.000 C 
ATOM      3  O   UNL     1       3.933   3.731  16.000  0.00  0.00    +0.000 OA
ATOM      4  N   UNL     1       4.179   2.791  18.009  0.00  0.00    +0.000 N 
ATOM      5  H   UNL     1       5.170   2.489  17.863  0.00  0.00    +0.000 HD
BRANCH   4   6
ATOM      6  C   UNL     1       3.346   2.034  18.888  0.00  0.00    +0.000 C 
BRANCH   6   7
ATOM      7  C   UNL     1       3.316   2.628  20.343  0.00  0.00    +0.000 C 
BRANCH   7   8
ATOM      8  N   UNL     1       1.989   3.194  20.761  0.00  0.00    +0.000 N 
ATOM      9  C   UNL     1       2.089   4.643  21.058  0.00  0.00    +0.000 C 
ATOM     10  C   UNL     1       0.961   2.971  19.724  0.00  0.00    +0.000 C 
ATOM     11  C   UNL     1       1.541   2.508  22.006  0.00  0.00    +0.000 C 
ENDBRANCH   7   8
ENDBRANCH   6   7
ENDBRANCH   4   6
ENDBRANCH   1   2
BRANCH   1  12
ATOM     12  C   UNL     1       3.499   6.035  17.912  0.00  0.00    +0.000 C 
BRANCH  12  13
ATOM     13  C   UNL     1       4.975   5.888  18.210  0.00  0.00    +0.000 C 
BRANCH  13  14
ATOM     14  O   UNL     1       5.696   6.828  17.440  0.00  0.00    +0.000 OA
BRANCH  14  15
ATOM     15  C   UNL     1       7.078   6.543  17.544  0.00  0.00    +0.000 C 
BRANCH  15  16
ATOM     16  C   UNL     1       7.290   5.034  17.624  0.00  0.00    +0.000 C 
BRANCH  16  17
ATOM     17  O   UNL     1       7.888   4.599  16.423  0.00  0.00    +0.000 OA
BRANCH  17  18
ATOM     18  C   UNL     1       6.936   3.967  15.597  0.00  0.00    +0.000 C 
BRANCH  18  19
ATOM     19  C   UNL     1       6.925   4.665  14.240  0.00  0.00    +0.000 C 
BRANCH  19  21
ATOM     20  C   UNL     1       6.405   3.479  12.328  0.00  0.00    +0.000 C 
ATOM     21  O   UNL     1       5.874   4.150  13.451  0.00  0.00    +0.000 OA
ENDBRANCH  19  21
ENDBRANCH  18  19
ENDBRANCH  17  18
ENDBRANCH  16  17
ENDBRANCH  15  16
ENDBRANCH  14  15
ENDBRANCH  13  14
ENDBRANCH  12  13
ENDBRANCH   1  12
TORSDOF 13
ENDMDL
MODEL 6
REMARK VINA RESULT:      -4.6      1.595      2.063
REMARK  Name = 
REMARK  17 active torsions:
REMARK  status: ('A' for Active; 'I' for Inactive)
REMARK    1  A    between atoms: C_1  and  O_2
REMARK    2  A    between atoms: O_2  and  C_3
REMARK    3  A    between atoms: C_3  and  C_4
REMARK    4  A    between atoms: C_4  and  O_5
REMARK    5  A    between atoms: O_5  and  C_6
REMARK    6  A    between atoms: C_6  and  C_7
REMARK    7  A    between atoms: C_7  and  O_8
REMARK    8  A    between atoms: O_8  and  C_9
REMARK    9  A    between atoms: C_9  and  C_10
REMARK   10  A    between atoms: C_10  and  O_11
REMARK   11  A    between atoms: O_11  and  C_12
REMARK   12  A    between atoms: N_14  and  C_15
REMARK   13  A    between atoms: C_15  and  C_16
REMARK   14  A    between atoms: C_16  and  N_17
REMARK   15  A    between atoms: N_17  and  C_18
REMARK   16  A    between atoms: N_17  and  C_19
REMARK   17  A    between atoms: N_17  and  C_20
REMARK                            x       y       z     vdW  Elec       q    Type
REMARK                         _______ _______ _______ _____ _____    ______ ____
ROOT
ATOM      1  O   UNL     1       3.333   3.569  17.835  0.00  0.00    +0.000 OA
ENDROOT
BRANCH   1   2
ATOM      2  C   UNL     1       4.685   3.476  18.141  0.00  0.00    +0.000 C 
ATOM      3  O   UNL     1       5.025   3.253  19.279  0.00  0.00    +0.000 OA
ATOM      4  N   UNL     1       5.570   3.560  17.136  0.00  0.00    +0.000 N 
ATOM      5  H   UNL     1       6.351   2.864  17.126  0.00  0.00    +0.000 HD
BRANCH   4   6
ATOM      6  C   UNL     1       5.627   4.679  16.251  0.00  0.00    +0.000 C 
BRANCH   6   7
ATOM      7  C   UNL     1       6.923   5.543  16.462  0.00  0.00    +0.000 C 
BRANCH   7   8
ATOM      8  N   UNL     1       6.809   6.592  17.532  0.00  0.00    +0.000 N 
ATOM      9  C   UNL     1       7.680   7.755  17.242  0.00  0.00    +0.000 C 
ATOM     10  C   UNL     1       5.412   7.047  17.689  0.00  0.00    +0.000 C 
ATOM     11  C   UNL     1       7.250   6.008  18.830  0.00  0.00    +0.000 C 
ENDBRANCH   7   8
ENDBRANCH   6   7
ENDBRANCH   4   6
ENDBRANCH   1   2
BRANCH   1  12
ATOM     12  C   UNL     1       2.548   2.462  17.615  0.00  0.00    +0.000 C 
BRANCH  12  13
ATOM     13  C   UNL     1       1.991   2.004  18.944  0.00  0.00    +0.000 C 
BRANCH  13  14
ATOM     14  O   UNL     1       0.676   2.500  19.088  0.00  0.00    +0.000 OA
BRANCH  14  15
ATOM     15  C   UNL     1       0.592   3.236  20.293  0.00  0.00    +0.000 C 
BRANCH  15  16
ATOM     16  C   UNL     1       1.903   3.118  21.064  0.00  0.00    +0.000 C 
BRANCH  16  17
ATOM     17  O   UNL     1       2.397   4.416  21.316  0.00  0.00    +0.000 OA
BRANCH  17  18
ATOM     18  C   UNL     1       1.684   5.371  20.562  0.00  0.00    +0.000 C 
BRANCH  18  19
ATOM     19  C   UNL     1       2.680   6.337  19.928  0.00  0.00    +0.000 C 
BRANCH  19  21
ATOM     20  C   UNL     1       1.517   8.169  20.715  0.00  0.00    +0.000 C 
ATOM     21  O   UNL     1       2.018   7.528  19.561  0.00  0.00    +0.000 OA
ENDBRANCH  19  21
ENDBRANCH  18  19
ENDBRANCH  17  18
ENDBRANCH  16  17
ENDBRANCH  15  16
ENDBRANCH  14  15
ENDBRANCH  13  14
ENDBRANCH  12  13
ENDBRANCH   1  12
TORSDOF 13
ENDMDL
MODEL 7
REMARK VINA RESULT:      -4.6      4.743      7.171
REMARK  Name = 
REMARK  17 active torsions:
REMARK  status: ('A' for Active; 'I' for Inactive)
REMARK    1  A    between atoms: C_1  and  O_2
REMARK    2  A    between atoms: O_2  and  C_3
REMARK    3  A    between atoms: C_3  and  C_4
REMARK    4  A    between atoms: C_4  and  O_5
REMARK    5  A    between atoms: O_5  and  C_6
REMARK    6  A    between atoms: C_6  and  C_7
REMARK    7  A    between atoms: C_7  and  O_8
REMARK    8  A    between atoms: O_8  and  C_9
REMARK    9  A    between atoms: C_9  and  C_10
REMARK   10  A    between atoms: C_10  and  O_11
REMARK   11  A    between atoms: O_11  and  C_12
REMARK   12  A    between atoms: N_14  and  C_15
REMARK   13  A    between atoms: C_15  and  C_16
REMARK   14  A    between atoms: C_16  and  N_17
REMARK   15  A    between atoms: N_17  and  C_18
REMARK   16  A    between atoms: N_17  and  C_19
REMARK   17  A    between atoms: N_17  and  C_20
REMARK                            x       y       z     vdW  Elec       q    Type
REMARK                         _______ _______ _______ _____ _____    ______ ____
ROOT
ATOM      1  O   UNL     1       7.725   6.003  18.301  0.00  0.00    +0.000 OA
ENDROOT
BRANCH   1   2
ATOM      2  C   UNL     1       7.343   4.837  17.650  0.00  0.00    +0.000 C 
ATOM      3  O   UNL     1       7.810   4.579  16.566  0.00  0.00    +0.000 OA
ATOM      4  N   UNL     1       6.518   3.994  18.290  0.00  0.00    +0.000 N 
ATOM      5  H   UNL     1       6.755   2.975  18.258  0.00  0.00    +0.000 HD
BRANCH   4   6
ATOM      6  C   UNL     1       5.240   4.393  18.785  0.00  0.00    +0.000 C 
BRANCH   6   7
ATOM      7  C   UNL     1       4.092   3.421  18.328  0.00  0.00    +0.000 C 
BRANCH   7   8
ATOM      8  N   UNL     1       2.796   3.589  19.069  0.00  0.00    +0.000 N 
ATOM      9  C   UNL     1       1.661   3.014  18.310  0.00  0.00    +0.000 C 
ATOM     10  C   UNL     1       2.860   2.968  20.409  0.00  0.00    +0.000 C 
ATOM     11  C   UNL     1       2.529   5.045  19.250  0.00  0.00    +0.000 C 
ENDBRANCH   7   8
ENDBRANCH   6   7
ENDBRANCH   4   6
ENDBRANCH   1   2
BRANCH   1  12
ATOM     12  C   UNL     1       7.665   7.238  17.699  0.00  0.00    +0.000 C 
BRANCH  12  13
ATOM     13  C   UNL     1       8.465   8.212  18.536  0.00  0.00    +0.000 C 
BRANCH  13  14
ATOM     14  O   UNL     1       8.387   9.495  17.949  0.00  0.00    +0.000 OA
BRANCH  14  15
ATOM     15  C   UNL     1       8.986  10.435  18.819  0.00  0.00    +0.000 C 
BRANCH  15  16
ATOM     16  C   UNL     1      10.023  11.257  18.058  0.00  0.00    +0.000 C 
BRANCH  16  17
ATOM     17  O   UNL     1       9.746  12.626  18.256  0.00  0.00    +0.000 OA
BRANCH  17  18
ATOM     18  C   UNL     1       8.607  13.012  17.519  0.00  0.00    +0.000 C 
BRANCH  18  19
ATOM     19  C   UNL     1       7.846  14.069  18.312  0.00  0.00    +0.000 C 
BRANCH  19  21
ATOM     20  C   UNL     1       5.676  14.752  17.913  0.00  0.00    +0.000 C 
ATOM     21  O   UNL     1       7.007  14.800  17.443  0.00  0.00    +0.000 OA
ENDBRANCH  19  21
ENDBRANCH  18  19
ENDBRANCH  17  18
ENDBRANCH  16  17
ENDBRANCH  15  16
ENDBRANCH  14  15
ENDBRANCH  13  14
ENDBRANCH  12  13
ENDBRANCH   1  12
TORSDOF 13
ENDMDL
MODEL 8
REMARK VINA RESULT:      -4.5      4.868      7.158
REMARK  Name = 
REMARK  17 active torsions:
REMARK  status: ('A' for Active; 'I' for Inactive)
REMARK    1  A    between atoms: C_1  and  O_2
REMARK    2  A    between atoms: O_2  and  C_3
REMARK    3  A    between atoms: C_3  and  C_4
REMARK    4  A    between atoms: C_4  and  O_5
REMARK    5  A    between atoms: O_5  and  C_6
REMARK    6  A    between atoms: C_6  and  C_7
REMARK    7  A    between atoms: C_7  and  O_8
REMARK    8  A    between atoms: O_8  and  C_9
REMARK    9  A    between atoms: C_9  and  C_10
REMARK   10  A    between atoms: C_10  and  O_11
REMARK   11  A    between atoms: O_11  and  C_12
REMARK   12  A    between atoms: N_14  and  C_15
REMARK   13  A    between atoms: C_15  and  C_16
REMARK   14  A    between atoms: C_16  and  N_17
REMARK   15  A    between atoms: N_17  and  C_18
REMARK   16  A    between atoms: N_17  and  C_19
REMARK   17  A    between atoms: N_17  and  C_20
REMARK                            x       y       z     vdW  Elec       q    Type
REMARK                         _______ _______ _______ _____ _____    ______ ____
ROOT
ATOM      1  O   UNL     1       6.833   6.133  16.488  0.00  0.00    +0.000 OA
ENDROOT
BRANCH   1   2
ATOM      2  C   UNL     1       6.987   4.827  16.935  0.00  0.00    +0.000 C 
ATOM      3  O   UNL     1       8.028   4.247  16.736  0.00  0.00    +0.000 OA
ATOM      4  N   UNL     1       5.989   4.278  17.645  0.00  0.00    +0.000 N 
ATOM      5  H   UNL     1       6.251   3.748  18.509  0.00  0.00    +0.000 HD
BRANCH   4   6
ATOM      6  C   UNL     1       4.653   4.182  17.151  0.00  0.00    +0.000 C 
BRANCH   6   7
ATOM      7  C   UNL     1       3.937   2.861  17.617  0.00  0.00    +0.000 C 
BRANCH   7   8
ATOM      8  N   UNL     1       3.244   2.961  18.946  0.00  0.00    +0.000 N 
ATOM      9  C   UNL     1       4.102   2.451  20.041  0.00  0.00    +0.000 C 
ATOM     10  C   UNL     1       2.843   4.353  19.239  0.00  0.00    +0.000 C 
ATOM     11  C   UNL     1       2.010   2.125  18.911  0.00  0.00    +0.000 C 
ENDBRANCH   7   8
ENDBRANCH   6   7
ENDBRANCH   4   6
ENDBRANCH   1   2
BRANCH   1  12
ATOM     12  C   UNL     1       6.572   7.178  17.343  0.00  0.00    +0.000 C 
BRANCH  12  13
ATOM     13  C   UNL     1       7.892   7.773  17.782  0.00  0.00    +0.000 C 
BRANCH  13  14
ATOM     14  O   UNL     1       7.780   9.181  17.797  0.00  0.00    +0.000 OA
BRANCH  14  15
ATOM     15  C   UNL     1       8.817   9.715  18.596  0.00  0.00    +0.000 C 
BRANCH  15  16
ATOM     16  C   UNL     1       9.103  11.155  18.179  0.00  0.00    +0.000 C 
BRANCH  16  17
ATOM     17  O   UNL     1      10.361  11.532  18.694  0.00  0.00    +0.000 OA
BRANCH  17  18
ATOM     18  C   UNL     1      10.319  12.853  19.185  0.00  0.00    +0.000 C 
BRANCH  18  19
ATOM     19  C   UNL     1       8.947  13.446  18.880  0.00  0.00    +0.000 C 
BRANCH  19  21
ATOM     20  C   UNL     1       7.832  15.195  17.865  0.00  0.00    +0.000 C 
ATOM     21  O   UNL     1       9.101  14.657  18.171  0.00  0.00    +0.000 OA
ENDBRANCH  19  21
ENDBRANCH  18  19
ENDBRANCH  17  18
ENDBRANCH  16  17
ENDBRANCH  15  16
ENDBRANCH  14  15
ENDBRANCH  13  14
ENDBRANCH  12  13
ENDBRANCH   1  12
TORSDOF 13
ENDMDL
MODEL 9
REMARK VINA RESULT:      -4.5      5.037      7.262
REMARK  Name = 
REMARK  17 active torsions:
REMARK  status: ('A' for Active; 'I' for Inactive)
REMARK    1  A    between atoms: C_1  and  O_2
REMARK    2  A    between atoms: O_2  and  C_3
REMARK    3  A    between atoms: C_3  and  C_4
REMARK    4  A    between atoms: C_4  and  O_5
REMARK    5  A    between atoms: O_5  and  C_6
REMARK    6  A    between atoms: C_6  and  C_7
REMARK    7  A    between atoms: C_7  and  O_8
REMARK    8  A    between atoms: O_8  and  C_9
REMARK    9  A    between atoms: C_9  and  C_10
REMARK   10  A    between atoms: C_10  and  O_11
REMARK   11  A    between atoms: O_11  and  C_12
REMARK   12  A    between atoms: N_14  and  C_15
REMARK   13  A    between atoms: C_15  and  C_16
REMARK   14  A    between atoms: C_16  and  N_17
REMARK   15  A    between atoms: N_17  and  C_18
REMARK   16  A    between atoms: N_17  and  C_19
REMARK   17  A    between atoms: N_17  and  C_20
REMARK                            x       y       z     vdW  Elec       q    Type
REMARK                         _______ _______ _______ _____ _____    ______ ____
ROOT
ATOM      1  O   UNL     1       6.577   6.316  16.956  0.00  0.00    +0.000 OA
ENDROOT
BRANCH   1   2
ATOM      2  C   UNL     1       6.867   5.214  16.162  0.00  0.00    +0.000 C 
ATOM      3  O   UNL     1       7.616   5.336  15.222  0.00  0.00    +0.000 OA
ATOM      4  N   UNL     1       6.359   4.024  16.519  0.00  0.00    +0.000 N 
ATOM      5  H   UNL     1       7.002   3.200  16.490  0.00  0.00    +0.000 HD
BRANCH   4   6
ATOM      6  C   UNL     1       4.958   3.804  16.690  0.00  0.00    +0.000 C 
BRANCH   6   7
ATOM      7  C   UNL     1       4.533   3.805  18.204  0.00  0.00    +0.000 C 
BRANCH   7   8
ATOM      8  N   UNL     1       3.253   4.535  18.494  0.00  0.00    +0.000 N 
ATOM      9  C   UNL     1       3.359   5.971  18.145  0.00  0.00    +0.000 C 
ATOM     10  C   UNL     1       2.116   3.932  17.769  0.00  0.00    +0.000 C 
ATOM     11  C   UNL     1       2.966   4.444  19.954  0.00  0.00    +0.000 C 
ENDBRANCH   7   8
ENDBRANCH   6   7
ENDBRANCH   4   6
ENDBRANCH   1   2
BRANCH   1  12
ATOM     12  C   UNL     1       7.451   6.790  17.906  0.00  0.00    +0.000 C 
BRANCH  12  13
ATOM     13  C   UNL     1       7.864   8.191  17.513  0.00  0.00    +0.000 C 
BRANCH  13  14
ATOM     14  O   UNL     1       8.624   8.758  18.561  0.00  0.00    +0.000 OA
BRANCH  14  15
ATOM     15  C   UNL     1       8.610  10.166  18.428  0.00  0.00    +0.000 C 
BRANCH  15  16
ATOM     16  C   UNL     1       9.825  10.764  19.130  0.00  0.00    +0.000 C 
BRANCH  16  17
ATOM     17  O   UNL     1      10.678  11.325  18.156  0.00  0.00    +0.000 OA
BRANCH  17  18
ATOM     18  C   UNL     1      10.202  12.589  17.750  0.00  0.00    +0.000 C 
BRANCH  18  19
ATOM     19  C   UNL     1      10.172  13.514  18.963  0.00  0.00    +0.000 C 
BRANCH  19  21
ATOM     20  C   UNL     1       9.206  15.467  19.727  0.00  0.00    +0.000 C 
ATOM     21  O   UNL     1       9.024  14.333  18.906  0.00  0.00    +0.000 OA
ENDBRANCH  19  21
ENDBRANCH  18  19
ENDBRANCH  17  18
ENDBRANCH  16  17
ENDBRANCH  15  16
ENDBRANCH  14  15
ENDBRANCH  13  14
ENDBRANCH  12  13
ENDBRANCH   1  12
TORSDOF 13
ENDMDL
