MODEL 1
REMARK VINA RESULT:      -7.9      0.000      0.000
REMARK  Name = 
REMARK  4 active torsions:
REMARK  status: ('A' for Active; 'I' for Inactive)
REMARK    1  A    between atoms: C_1  and  O_2
REMARK    2  A    between atoms: O_2  and  C_3
REMARK    3  A    between atoms: C_7  and  C_8
REMARK    4  A    between atoms: C_22  and  C_23
REMARK                            x       y       z     vdW  Elec       q    Type
REMARK                         _______ _______ _______ _____ _____    ______ ____
ROOT
ATOM      1  C   UNL     1       4.107   3.866  18.730  0.00  0.00    +0.000 C 
ATOM      2  O   UNL     1       4.310   2.933  19.502  0.00  0.00    +0.000 OA
ATOM      3  N   UNL     1       2.947   4.649  18.781  0.00  0.00    +0.000 N 
ATOM      4  C   UNL     1       1.930   4.379  19.796  0.00  0.00    +0.000 C 
ATOM      5  C   UNL     1       1.813   5.572  20.750  0.00  0.00    +0.000 C 
ATOM      6  C   UNL     1       1.788   6.871  19.995  0.00  0.00    +0.000 A 
ATOM      7  C   UNL     1       2.142   6.983  18.704  0.00  0.00    +0.000 A 
ATOM      8  N   UNL     1       2.102   8.157  17.986  0.00  0.00    +0.000 NA
ATOM      9  C   UNL     1       1.729   9.229  18.601  0.00  0.00    +0.000 A 
ATOM     10  N   UNL     1       1.687  10.408  17.936  0.00  0.00    +0.000 N 
ATOM     11  N   UNL     1       1.373   9.233  19.912  0.00  0.00    +0.000 N 
ATOM     12  C   UNL     1       1.348   8.100  20.675  0.00  0.00    +0.000 A 
ATOM     13  O   UNL     1       0.981   8.111  21.845  0.00  0.00    +0.000 OA
ATOM     14  C   UNL     1       2.671   5.808  17.928  0.00  0.00    +0.000 C 
ATOM     15  H   UNL     1       2.188  10.361  17.052  0.00  0.00    +0.000 HD
ATOM     16  H   UNL     1       1.899  11.242  18.465  0.00  0.00    +0.000 HD
ATOM     17  H   UNL     1       1.052  10.076  20.352  0.00  0.00    +0.000 HD
ENDROOT
BRANCH   1  22
ATOM     18  C   UNL     1       7.014   5.448  16.824  0.00  0.00    +0.000 A 
ATOM     19  C   UNL     1       6.770   4.930  15.546  0.00  0.00    +0.000 A 
ATOM     20  C   UNL     1       5.756   3.998  15.347  0.00  0.00    +0.000 A 
ATOM     21  C   UNL     1       4.970   3.597  16.420  0.00  0.00    +0.000 A 
ATOM     22  C   UNL     1       5.136   4.179  17.690  0.00  0.00    +0.000 A 
ATOM     23  C   UNL     1       6.211   5.063  17.923  0.00  0.00    +0.000 A 
ATOM     24  C   UNL     1       6.536   5.642  19.277  0.00  0.00    +0.000 C 
BRANCH  18  26
ATOM     25  C   UNL     1       7.667   7.685  17.284  0.00  0.00    +0.000 C 
ATOM     26  O   UNL     1       8.038   6.324  17.095  0.00  0.00    +0.000 OA
ENDBRANCH  18  26
ENDBRANCH   1  22
TORSDOF 2
ENDMDL
MODEL 2
REMARK VINA RESULT:      -7.9      1.204      2.001
REMARK  Name = 
REMARK  4 active torsions:
REMARK  status: ('A' for Active; 'I' for Inactive)
REMARK    1  A    between atoms: C_1  and  O_2
REMARK    2  A    between atoms: O_2  and  C_3
REMARK    3  A    between atoms: C_7  and  C_8
REMARK    4  A    between atoms: C_22  and  C_23
REMARK                            x       y       z     vdW  Elec       q    Type
REMARK                         _______ _______ _______ _____ _____    ______ ____
ROOT
ATOM      1  C   UNL     1       4.025   4.439  19.405  0.00  0.00    +0.000 C 
ATOM      2  O   UNL     1       4.106   3.569  20.267  0.00  0.00    +0.000 OA
ATOM      3  N   UNL     1       2.882   5.232  19.239  0.00  0.00    +0.000 N 
ATOM      4  C   UNL     1       1.734   5.050  20.124  0.00  0.00    +0.000 C 
ATOM      5  C   UNL     1       1.511   6.315  20.960  0.00  0.00    +0.000 C 
ATOM      6  C   UNL     1       1.610   7.550  20.110  0.00  0.00    +0.000 A 
ATOM      7  C   UNL     1       2.136   7.559  18.874  0.00  0.00    +0.000 A 
ATOM      8  N   UNL     1       2.214   8.672  18.070  0.00  0.00    +0.000 NA
ATOM      9  C   UNL     1       1.780   9.793  18.544  0.00  0.00    +0.000 A 
ATOM     10  N   UNL     1       1.849  10.916  17.791  0.00  0.00    +0.000 N 
ATOM     11  N   UNL     1       1.251   9.901  19.790  0.00  0.00    +0.000 N 
ATOM     12  C   UNL     1       1.105   8.832  20.627  0.00  0.00    +0.000 A 
ATOM     13  O   UNL     1       0.584   8.937  21.733  0.00  0.00    +0.000 OA
ATOM     14  C   UNL     1       2.744   6.322  18.270  0.00  0.00    +0.000 C 
ATOM     15  H   UNL     1       2.463  10.796  16.989  0.00  0.00    +0.000 HD
ATOM     16  H   UNL     1       2.002  11.787  18.278  0.00  0.00    +0.000 HD
ATOM     17  H   UNL     1       0.889  10.779  20.117  0.00  0.00    +0.000 HD
ENDROOT
BRANCH   1  22
ATOM     18  C   UNL     1       6.446   4.262  16.456  0.00  0.00    +0.000 A 
ATOM     19  C   UNL     1       7.571   4.860  17.037  0.00  0.00    +0.000 A 
ATOM     20  C   UNL     1       7.496   5.409  18.313  0.00  0.00    +0.000 A 
ATOM     21  C   UNL     1       6.301   5.345  19.020  0.00  0.00    +0.000 A 
ATOM     22  C   UNL     1       5.190   4.663  18.493  0.00  0.00    +0.000 A 
ATOM     23  C   UNL     1       5.228   4.172  17.170  0.00  0.00    +0.000 A 
ATOM     24  C   UNL     1       4.047   3.534  16.483  0.00  0.00    +0.000 C 
BRANCH  18  26
ATOM     25  C   UNL     1       6.802   4.664  14.142  0.00  0.00    +0.000 C 
ATOM     26  O   UNL     1       6.441   3.756  15.178  0.00  0.00    +0.000 OA
ENDBRANCH  18  26
ENDBRANCH   1  22
TORSDOF 2
ENDMDL
MODEL 3
REMARK VINA RESULT:      -7.1      2.679      6.048
REMARK  Name = 
REMARK  4 active torsions:
REMARK  status: ('A' for Active; 'I' for Inactive)
REMARK    1  A    between atoms: C_1  and  O_2
REMARK    2  A    between atoms: O_2  and  C_3
REMARK    3  A    between atoms: C_7  and  C_8
REMARK    4  A    between atoms: C_22  and  C_23
REMARK                            x       y       z     vdW  Elec       q    Type
REMARK                         _______ _______ _______ _____ _____    ______ ____
ROOT
ATOM      1  C   UNL     1       2.895   3.430  17.700  0.00  0.00    +0.000 C 
ATOM      2  O   UNL     1       2.202   2.800  16.907  0.00  0.00    +0.000 OA
ATOM      3  N   UNL     1       4.290   3.495  17.595  0.00  0.00    +0.000 N 
ATOM      4  C   UNL     1       4.972   2.810  16.498  0.00  0.00    +0.000 C 
ATOM      5  C   UNL     1       5.658   3.833  15.587  0.00  0.00    +0.000 C 
ATOM      6  C   UNL     1       6.392   4.868  16.391  0.00  0.00    +0.000 A 
ATOM      7  C   UNL     1       6.203   5.054  17.708  0.00  0.00    +0.000 A 
ATOM      8  N   UNL     1       6.882   5.979  18.468  0.00  0.00    +0.000 NA
ATOM      9  C   UNL     1       7.738   6.741  17.872  0.00  0.00    +0.000 A 
ATOM     10  N   UNL     1       8.419   7.673  18.579  0.00  0.00    +0.000 N 
ATOM     11  N   UNL     1       7.988   6.654  16.540  0.00  0.00    +0.000 N 
ATOM     12  C   UNL     1       7.383   5.734  15.732  0.00  0.00    +0.000 A 
ATOM     13  O   UNL     1       7.653   5.637  14.539  0.00  0.00    +0.000 OA
ATOM     14  C   UNL     1       5.168   4.274  18.472  0.00  0.00    +0.000 C 
ATOM     15  H   UNL     1       8.005   7.829  19.495  0.00  0.00    +0.000 HD
ATOM     16  H   UNL     1       8.655   8.531  18.102  0.00  0.00    +0.000 HD
ATOM     17  H   UNL     1       8.685   7.236  16.112  0.00  0.00    +0.000 HD
ENDROOT
BRANCH   1  22
ATOM     18  C   UNL     1       1.738   6.150  20.118  0.00  0.00    +0.000 A 
ATOM     19  C   UNL     1       1.244   5.351  21.156  0.00  0.00    +0.000 A 
ATOM     20  C   UNL     1       1.186   3.968  21.012  0.00  0.00    +0.000 A 
ATOM     21  C   UNL     1       1.639   3.379  19.837  0.00  0.00    +0.000 A 
ATOM     22  C   UNL     1       2.227   4.157  18.823  0.00  0.00    +0.000 A 
ATOM     23  C   UNL     1       2.219   5.565  18.923  0.00  0.00    +0.000 A 
ATOM     24  C   UNL     1       2.719   6.481  17.835  0.00  0.00    +0.000 C 
BRANCH  18  26
ATOM     25  C   UNL     1       1.055   8.120  21.257  0.00  0.00    +0.000 C 
ATOM     26  O   UNL     1       1.764   7.523  20.176  0.00  0.00    +0.000 OA
ENDBRANCH  18  26
ENDBRANCH   1  22
TORSDOF 2
ENDMDL
MODEL 4
REMARK VINA RESULT:      -7.0      2.691      4.638
REMARK  Name = 
REMARK  4 active torsions:
REMARK  status: ('A' for Active; 'I' for Inactive)
REMARK    1  A    between atoms: C_1  and  O_2
REMARK    2  A    between atoms: O_2  and  C_3
REMARK    3  A    between atoms: C_7  and  C_8
REMARK    4  A    between atoms: C_22  and  C_23
REMARK                            x       y       z     vdW  Elec       q    Type
REMARK                         _______ _______ _______ _____ _____    ______ ____
ROOT
ATOM      1  C   UNL     1       2.566   6.049  18.463  0.00  0.00    +0.000 C 
ATOM      2  O   UNL     1       2.708   5.834  17.263  0.00  0.00    +0.000 OA
ATOM      3  N   UNL     1       2.449   7.342  18.988  0.00  0.00    +0.000 N 
ATOM      4  C   UNL     1       2.476   8.497  18.093  0.00  0.00    +0.000 C 
ATOM      5  C   UNL     1       1.128   9.224  18.136  0.00  0.00    +0.000 C 
ATOM      6  C   UNL     1       0.643   9.385  19.548  0.00  0.00    +0.000 A 
ATOM      7  C   UNL     1       1.155   8.708  20.589  0.00  0.00    +0.000 A 
ATOM      8  N   UNL     1       0.744   8.858  21.893  0.00  0.00    +0.000 NA
ATOM      9  C   UNL     1      -0.221   9.684  22.132  0.00  0.00    +0.000 A 
ATOM     10  N   UNL     1      -0.665   9.853  23.399  0.00  0.00    +0.000 N 
ATOM     11  N   UNL     1      -0.826  10.402  21.150  0.00  0.00    +0.000 N 
ATOM     12  C   UNL     1      -0.443  10.335  19.841  0.00  0.00    +0.000 A 
ATOM     13  O   UNL     1      -0.969  11.023  18.973  0.00  0.00    +0.000 OA
ATOM     14  C   UNL     1       2.221   7.663  20.399  0.00  0.00    +0.000 C 
ATOM     15  H   UNL     1      -0.332   9.119  24.018  0.00  0.00    +0.000 HD
ATOM     16  H   UNL     1      -1.648  10.053  23.519  0.00  0.00    +0.000 HD
ATOM     17  H   UNL     1      -1.549  11.062  21.372  0.00  0.00    +0.000 HD
ENDROOT
BRANCH   1  22
ATOM     18  C   UNL     1       3.461   2.907  20.442  0.00  0.00    +0.000 A 
ATOM     19  C   UNL     1       2.189   2.547  20.903  0.00  0.00    +0.000 A 
ATOM     20  C   UNL     1       1.096   3.376  20.670  0.00  0.00    +0.000 A 
ATOM     21  C   UNL     1       1.267   4.557  19.958  0.00  0.00    +0.000 A 
ATOM     22  C   UNL     1       2.517   4.887  19.404  0.00  0.00    +0.000 A 
ATOM     23  C   UNL     1       3.649   4.098  19.700  0.00  0.00    +0.000 A 
ATOM     24  C   UNL     1       5.046   4.440  19.249  0.00  0.00    +0.000 C 
BRANCH  18  26
ATOM     25  C   UNL     1       4.790   1.028  19.856  0.00  0.00    +0.000 C 
ATOM     26  O   UNL     1       4.589   2.162  20.692  0.00  0.00    +0.000 OA
ENDBRANCH  18  26
ENDBRANCH   1  22
TORSDOF 2
ENDMDL
MODEL 5
REMARK VINA RESULT:      -7.0      1.535      2.383
REMARK  Name = 
REMARK  4 active torsions:
REMARK  status: ('A' for Active; 'I' for Inactive)
REMARK    1  A    between atoms: C_1  and  O_2
REMARK    2  A    between atoms: O_2  and  C_3
REMARK    3  A    between atoms: C_7  and  C_8
REMARK    4  A    between atoms: C_22  and  C_23
REMARK                            x       y       z     vdW  Elec       q    Type
REMARK                         _______ _______ _______ _____ _____    ______ ____
ROOT
ATOM      1  C   UNL     1       3.643   5.324  19.252  0.00  0.00    +0.000 C 
ATOM      2  O   UNL     1       3.830   4.457  20.100  0.00  0.00    +0.000 OA
ATOM      3  N   UNL     1       2.523   6.165  19.268  0.00  0.00    +0.000 N 
ATOM      4  C   UNL     1       1.532   6.039  20.334  0.00  0.00    +0.000 C 
ATOM      5  C   UNL     1       1.504   7.318  21.177  0.00  0.00    +0.000 C 
ATOM      6  C   UNL     1       1.512   8.542  20.307  0.00  0.00    +0.000 A 
ATOM      7  C   UNL     1       1.826   8.520  19.001  0.00  0.00    +0.000 A 
ATOM      8  N   UNL     1       1.815   9.624  18.180  0.00  0.00    +0.000 NA
ATOM      9  C   UNL     1       1.514  10.766  18.704  0.00  0.00    +0.000 A 
ATOM     10  N   UNL     1       1.503  11.880  17.935  0.00  0.00    +0.000 N 
ATOM     11  N   UNL     1       1.205  10.905  20.020  0.00  0.00    +0.000 N 
ATOM     12  C   UNL     1       1.155   9.849  20.884  0.00  0.00    +0.000 A 
ATOM     13  O   UNL     1       0.830   9.983  22.059  0.00  0.00    +0.000 OA
ATOM     14  C   UNL     1       2.272   7.255  18.320  0.00  0.00    +0.000 C 
ATOM     15  H   UNL     1       1.970  11.728  17.045  0.00  0.00    +0.000 HD
ATOM     16  H   UNL     1       1.772  12.747  18.378  0.00  0.00    +0.000 HD
ATOM     17  H   UNL     1       0.940  11.800  20.390  0.00  0.00    +0.000 HD
ENDROOT
BRANCH   1  22
ATOM     18  C   UNL     1       5.792   4.759  16.145  0.00  0.00    +0.000 A 
ATOM     19  C   UNL     1       6.795   5.708  16.375  0.00  0.00    +0.000 A 
ATOM     20  C   UNL     1       6.701   6.584  17.452  0.00  0.00    +0.000 A 
ATOM     21  C   UNL     1       5.614   6.501  18.314  0.00  0.00    +0.000 A 
ATOM     22  C   UNL     1       4.648   5.491  18.157  0.00  0.00    +0.000 A 
ATOM     23  C   UNL     1       4.688   4.649  17.024  0.00  0.00    +0.000 A 
ATOM     24  C   UNL     1       3.632   3.620  16.711  0.00  0.00    +0.000 C 
BRANCH  18  26
ATOM     25  C   UNL     1       6.545   4.336  13.933  0.00  0.00    +0.000 C 
ATOM     26  O   UNL     1       5.797   3.908  15.066  0.00  0.00    +0.000 OA
ENDBRANCH  18  26
ENDBRANCH   1  22
TORSDOF 2
ENDMDL
MODEL 6
REMARK VINA RESULT:      -6.8      2.451      6.050
REMARK  Name = 
REMARK  4 active torsions:
REMARK  status: ('A' for Active; 'I' for Inactive)
REMARK    1  A    between atoms: C_1  and  O_2
REMARK    2  A    between atoms: O_2  and  C_3
REMARK    3  A    between atoms: C_7  and  C_8
REMARK    4  A    between atoms: C_22  and  C_23
REMARK                            x       y       z     vdW  Elec       q    Type
REMARK                         _______ _______ _______ _____ _____    ______ ____
ROOT
ATOM      1  C   UNL     1       2.174   4.882  19.093  0.00  0.00    +0.000 C 
ATOM      2  O   UNL     1       1.303   4.050  18.856  0.00  0.00    +0.000 OA
ATOM      3  N   UNL     1       3.537   4.622  18.904  0.00  0.00    +0.000 N 
ATOM      4  C   UNL     1       3.967   3.324  18.388  0.00  0.00    +0.000 C 
ATOM      5  C   UNL     1       4.631   3.497  17.019  0.00  0.00    +0.000 C 
ATOM      6  C   UNL     1       5.591   4.653  17.024  0.00  0.00    +0.000 A 
ATOM      7  C   UNL     1       5.617   5.589  17.987  0.00  0.00    +0.000 A 
ATOM      8  N   UNL     1       6.504   6.641  18.025  0.00  0.00    +0.000 NA
ATOM      9  C   UNL     1       7.349   6.755  17.054  0.00  0.00    +0.000 A 
ATOM     10  N   UNL     1       8.231   7.782  17.046  0.00  0.00    +0.000 N 
ATOM     11  N   UNL     1       7.392   5.878  16.018  0.00  0.00    +0.000 N 
ATOM     12  C   UNL     1       6.572   4.789  15.935  0.00  0.00    +0.000 A 
ATOM     13  O   UNL     1       6.653   3.981  15.016  0.00  0.00    +0.000 OA
ATOM     14  C   UNL     1       4.619   5.589  19.112  0.00  0.00    +0.000 C 
ATOM     15  H   UNL     1       7.975   8.506  17.712  0.00  0.00    +0.000 HD
ATOM     16  H   UNL     1       8.495   8.153  16.144  0.00  0.00    +0.000 HD
ATOM     17  H   UNL     1       8.084   5.973  15.297  0.00  0.00    +0.000 HD
ENDROOT
BRANCH   1  22
ATOM     18  C   UNL     1       1.664   8.648  19.474  0.00  0.00    +0.000 A 
ATOM     19  C   UNL     1       1.291   8.702  20.822  0.00  0.00    +0.000 A 
ATOM     20  C   UNL     1       1.099   7.530  21.546  0.00  0.00    +0.000 A 
ATOM     21  C   UNL     1       1.298   6.300  20.929  0.00  0.00    +0.000 A 
ATOM     22  C   UNL     1       1.766   6.227  19.605  0.00  0.00    +0.000 A 
ATOM     23  C   UNL     1       1.888   7.405  18.836  0.00  0.00    +0.000 A 
ATOM     24  C   UNL     1       2.268   7.413  17.378  0.00  0.00    +0.000 C 
BRANCH  18  26
ATOM     25  C   UNL     1       0.804  10.766  18.828  0.00  0.00    +0.000 C 
ATOM     26  O   UNL     1       1.810   9.768  18.690  0.00  0.00    +0.000 OA
ENDBRANCH  18  26
ENDBRANCH   1  22
TORSDOF 2
ENDMDL
MODEL 7
REMARK VINA RESULT:      -6.6      2.713      7.145
REMARK  Name = 
REMARK  4 active torsions:
REMARK  status: ('A' for Active; 'I' for Inactive)
REMARK    1  A    between atoms: C_1  and  O_2
REMARK    2  A    between atoms: O_2  and  C_3
REMARK    3  A    between atoms: C_7  and  C_8
REMARK    4  A    between atoms: C_22  and  C_23
REMARK                            x       y       z     vdW  Elec       q    Type
REMARK                         _______ _______ _______ _____ _____    ______ ____
ROOT
ATOM      1  C   UNL     1       2.191   8.162  18.832  0.00  0.00    +0.000 C 
ATOM      2  O   UNL     1       2.932   8.875  18.161  0.00  0.00    +0.000 OA
ATOM      3  N   UNL     1       2.145   6.771  18.683  0.00  0.00    +0.000 N 
ATOM      4  C   UNL     1       3.017   6.112  17.712  0.00  0.00    +0.000 C 
ATOM      5  C   UNL     1       4.012   5.199  18.435  0.00  0.00    +0.000 C 
ATOM      6  C   UNL     1       3.327   4.384  19.496  0.00  0.00    +0.000 A 
ATOM      7  C   UNL     1       2.095   4.655  19.958  0.00  0.00    +0.000 A 
ATOM      8  N   UNL     1       1.440   3.908  20.910  0.00  0.00    +0.000 NA
ATOM      9  C   UNL     1       2.061   2.896  21.417  0.00  0.00    +0.000 A 
ATOM     10  N   UNL     1       1.459   2.141  22.366  0.00  0.00    +0.000 N 
ATOM     11  N   UNL     1       3.319   2.548  21.041  0.00  0.00    +0.000 N 
ATOM     12  C   UNL     1       4.013   3.217  20.073  0.00  0.00    +0.000 A 
ATOM     13  O   UNL     1       5.130   2.864  19.711  0.00  0.00    +0.000 OA
ATOM     14  C   UNL     1       1.327   5.861  19.490  0.00  0.00    +0.000 C 
ATOM     15  H   UNL     1       0.639   2.603  22.752  0.00  0.00    +0.000 HD
ATOM     16  H   UNL     1       2.052   1.733  23.075  0.00  0.00    +0.000 HD
ATOM     17  H   UNL     1       3.762   1.734  21.428  0.00  0.00    +0.000 HD
ENDROOT
BRANCH   1  22
ATOM     18  C   UNL     1      -0.377  10.417  20.539  0.00  0.00    +0.000 A 
ATOM     19  C   UNL     1      -0.050  10.177  21.878  0.00  0.00    +0.000 A 
ATOM     20  C   UNL     1       0.901   9.217  22.209  0.00  0.00    +0.000 A 
ATOM     21  C   UNL     1       1.542   8.507  21.200  0.00  0.00    +0.000 A 
ATOM     22  C   UNL     1       1.298   8.803  19.847  0.00  0.00    +0.000 A 
ATOM     23  C   UNL     1       0.280   9.717  19.499  0.00  0.00    +0.000 A 
ATOM     24  C   UNL     1      -0.131  10.006  18.078  0.00  0.00    +0.000 C 
BRANCH  18  26
ATOM     25  C   UNL     1      -1.732  12.280  21.120  0.00  0.00    +0.000 C 
ATOM     26  O   UNL     1      -1.349  11.308  20.152  0.00  0.00    +0.000 OA
ENDBRANCH  18  26
ENDBRANCH   1  22
TORSDOF 2
ENDMDL
MODEL 8
REMARK VINA RESULT:      -6.6      7.210     11.518
REMARK  Name = 
REMARK  4 active torsions:
REMARK  status: ('A' for Active; 'I' for Inactive)
REMARK    1  A    between atoms: C_1  and  O_2
REMARK    2  A    between atoms: O_2  and  C_3
REMARK    3  A    between atoms: C_7  and  C_8
REMARK    4  A    between atoms: C_22  and  C_23
REMARK                            x       y       z     vdW  Elec       q    Type
REMARK                         _______ _______ _______ _____ _____    ______ ____
ROOT
ATOM      1  C   UNL     1      -5.087  12.637  21.559  0.00  0.00    +0.000 C 
ATOM      2  O   UNL     1      -5.808  12.476  22.539  0.00  0.00    +0.000 OA
ATOM      3  N   UNL     1      -3.709  12.859  21.665  0.00  0.00    +0.000 N 
ATOM      4  C   UNL     1      -3.074  12.888  22.981  0.00  0.00    +0.000 C 
ATOM      5  C   UNL     1      -2.084  11.725  23.110  0.00  0.00    +0.000 C 
ATOM      6  C   UNL     1      -1.238  11.594  21.876  0.00  0.00    +0.000 A 
ATOM      7  C   UNL     1      -1.528  12.196  20.711  0.00  0.00    +0.000 A 
ATOM      8  N   UNL     1      -0.754  12.110  19.577  0.00  0.00    +0.000 NA
ATOM      9  C   UNL     1       0.307  11.376  19.623  0.00  0.00    +0.000 A 
ATOM     10  N   UNL     1       1.091  11.253  18.526  0.00  0.00    +0.000 N 
ATOM     11  N   UNL     1       0.680  10.703  20.743  0.00  0.00    +0.000 N 
ATOM     12  C   UNL     1      -0.015  10.775  21.915  0.00  0.00    +0.000 A 
ATOM     13  O   UNL     1       0.359  10.198  22.931  0.00  0.00    +0.000 OA
ATOM     14  C   UNL     1      -2.787  13.002  20.535  0.00  0.00    +0.000 C 
ATOM     15  H   UNL     1       0.621  11.583  17.687  0.00  0.00    +0.000 HD
ATOM     16  H   UNL     1       1.559  10.368  18.392  0.00  0.00    +0.000 HD
ATOM     17  H   UNL     1       1.531  10.169  20.758  0.00  0.00    +0.000 HD
ENDROOT
BRANCH   1  22
ATOM     18  C   UNL     1      -6.904  13.594  18.338  0.00  0.00    +0.000 A 
ATOM     19  C   UNL     1      -7.143  12.319  17.813  0.00  0.00    +0.000 A 
ATOM     20  C   UNL     1      -6.620  11.191  18.437  0.00  0.00    +0.000 A 
ATOM     21  C   UNL     1      -5.872  11.334  19.600  0.00  0.00    +0.000 A 
ATOM     22  C   UNL     1      -5.703  12.597  20.196  0.00  0.00    +0.000 A 
ATOM     23  C   UNL     1      -6.160  13.755  19.531  0.00  0.00    +0.000 A 
ATOM     24  C   UNL     1      -5.920  15.155  20.034  0.00  0.00    +0.000 C 
BRANCH  18  26
ATOM     25  C   UNL     1      -7.162  14.828  16.324  0.00  0.00    +0.000 C 
ATOM     26  O   UNL     1      -7.342  14.749  17.734  0.00  0.00    +0.000 OA
ENDBRANCH  18  26
ENDBRANCH   1  22
TORSDOF 2
ENDMDL
MODEL 9
REMARK VINA RESULT:      -6.5      3.118      6.761
REMARK  Name = 
REMARK  4 active torsions:
REMARK  status: ('A' for Active; 'I' for Inactive)
REMARK    1  A    between atoms: C_1  and  O_2
REMARK    2  A    between atoms: O_2  and  C_3
REMARK    3  A    between atoms: C_7  and  C_8
REMARK    4  A    between atoms: C_22  and  C_23
REMARK                            x       y       z     vdW  Elec       q    Type
REMARK                         _______ _______ _______ _____ _____    ______ ____
ROOT
ATOM      1  C   UNL     1       4.960   5.023  18.580  0.00  0.00    +0.000 C 
ATOM      2  O   UNL     1       5.574   5.483  19.538  0.00  0.00    +0.000 OA
ATOM      3  N   UNL     1       5.117   5.515  17.278  0.00  0.00    +0.000 N 
ATOM      4  C   UNL     1       6.056   6.605  17.019  0.00  0.00    +0.000 C 
ATOM      5  C   UNL     1       7.189   6.116  16.111  0.00  0.00    +0.000 C 
ATOM      6  C   UNL     1       6.655   5.303  14.967  0.00  0.00    +0.000 A 
ATOM      7  C   UNL     1       5.407   4.808  14.928  0.00  0.00    +0.000 A 
ATOM      8  N   UNL     1       4.889   4.084  13.880  0.00  0.00    +0.000 NA
ATOM      9  C   UNL     1       5.663   3.834  12.876  0.00  0.00    +0.000 A 
ATOM     10  N   UNL     1       5.199   3.114  11.829  0.00  0.00    +0.000 N 
ATOM     11  N   UNL     1       6.950   4.265  12.823  0.00  0.00    +0.000 N 
ATOM     12  C   UNL     1       7.517   5.024  13.807  0.00  0.00    +0.000 A 
ATOM     13  O   UNL     1       8.667   5.444  13.724  0.00  0.00    +0.000 OA
ATOM     14  C   UNL     1       4.459   4.974  16.086  0.00  0.00    +0.000 C 
ATOM     15  H   UNL     1       4.328   2.638  12.054  0.00  0.00    +0.000 HD
ATOM     16  H   UNL     1       5.860   2.519  11.350  0.00  0.00    +0.000 HD
ATOM     17  H   UNL     1       7.516   4.086  12.013  0.00  0.00    +0.000 HD
ENDROOT
BRANCH   1  22
ATOM     18  C   UNL     1       2.143   2.840  19.952  0.00  0.00    +0.000 A 
ATOM     19  C   UNL     1       2.516   1.604  19.411  0.00  0.00    +0.000 A 
ATOM     20  C   UNL     1       3.588   1.517  18.529  0.00  0.00    +0.000 A 
ATOM     21  C   UNL     1       4.303   2.662  18.200  0.00  0.00    +0.000 A 
ATOM     22  C   UNL     1       4.005   3.895  18.809  0.00  0.00    +0.000 A 
ATOM     23  C   UNL     1       2.872   4.012  19.642  0.00  0.00    +0.000 A 
ATOM     24  C   UNL     1       2.408   5.316  20.241  0.00  0.00    +0.000 C 
BRANCH  18  26
ATOM     25  C   UNL     1       1.216   2.542  22.119  0.00  0.00    +0.000 C 
ATOM     26  O   UNL     1       1.057   3.000  20.780  0.00  0.00    +0.000 OA
ENDBRANCH  18  26
ENDBRANCH   1  22
TORSDOF 2
ENDMDL
