MODEL 1
REMARK VINA RESULT:      -7.8      0.000      0.000
REMARK  Name = 
REMARK  12 active torsions:
REMARK  status: ('A' for Active; 'I' for Inactive)
REMARK    1  A    between atoms: C_1  and  C_2
REMARK    2  A    between atoms: C_2  and  O_3
REMARK    3  A    between atoms: O_3  and  P_4
REMARK    4  A    between atoms: P_4  and  C_6
REMARK    5  A    between atoms: P_4  and  O_30
REMARK    6  A    between atoms: C_6  and  C_7
REMARK    7  A    between atoms: C_10  and  N_11
REMARK    8  A    between atoms: C_12  and  C_14
REMARK    9  A    between atoms: C_19  and  C_20
REMARK   10  A    between atoms: C_25  and  C_26
REMARK   11  A    between atoms: O_30  and  C_31
REMARK   12  A    between atoms: C_31  and  C_32
REMARK                            x       y       z     vdW  Elec       q    Type
REMARK                         _______ _______ _______ _____ _____    ______ ____
ROOT
ATOM      1  N   UNL     1       0.895  10.548  18.877  0.00  0.00    +0.000 N 
ATOM      2  C   UNL     1      -0.461  10.917  18.794  0.00  0.00    +0.000 C 
ATOM      3  O   UNL     1      -1.355  10.078  18.628  0.00  0.00    +0.000 OA
ATOM      4  H   UNL     1       1.575  11.300  18.800  0.00  0.00    +0.000 HD
ENDROOT
BRANCH   2   5
ATOM      5  C   UNL     1      -0.898  12.478  18.761  0.00  0.00    +0.000 C 
ATOM      6  C   UNL     1      -2.290  13.092  19.287  0.00  0.00    +0.000 C 
ATOM      7  C   UNL     1      -2.567  13.534  20.722  0.00  0.00    +0.000 A 
ATOM      8  C   UNL     1      -3.804  14.008  21.181  0.00  0.00    +0.000 A 
ATOM      9  C   UNL     1      -4.210  13.726  22.476  0.00  0.00    +0.000 A 
ATOM     10  C   UNL     1      -3.425  12.875  23.257  0.00  0.00    +0.000 A 
ATOM     11  C   UNL     1      -4.041  12.109  24.390  0.00  0.00    +0.000 C 
ATOM     12  C   UNL     1      -2.076  12.737  22.908  0.00  0.00    +0.000 A 
ATOM     13  C   UNL     1      -1.647  13.276  21.698  0.00  0.00    +0.000 A 
ATOM     14  C   UNL     1      -0.240  13.575  21.418  0.00  0.00    +0.000 C 
ATOM     15  O   UNL     1       0.588  12.904  22.018  0.00  0.00    +0.000 OA
ATOM     16  C   UNL     1       0.171  14.575  20.284  0.00  0.00    +0.000 C 
ATOM     17  C   UNL     1      -0.652  15.736  19.692  0.00  0.00    +0.000 C 
ATOM     18  S   UNL     1       0.649  13.503  18.892  0.00  0.00    +0.000 S 
ENDBRANCH   2   5
BRANCH   1  22
ATOM     19  C   UNL     1       2.947   6.601  18.828  0.00  0.00    +0.000 A 
ATOM     20  C   UNL     1       2.834   7.431  17.709  0.00  0.00    +0.000 A 
ATOM     21  C   UNL     1       2.131   8.698  17.747  0.00  0.00    +0.000 A 
ATOM     22  C   UNL     1       1.465   9.194  18.889  0.00  0.00    +0.000 A 
ATOM     23  C   UNL     1       1.439   8.297  19.960  0.00  0.00    +0.000 A 
ATOM     24  C   UNL     1       2.159   7.041  19.928  0.00  0.00    +0.000 A 
BRANCH  19  25
ATOM     25  C   UNL     1       3.628   5.195  18.838  0.00  0.00    +0.000 C 
BRANCH  25  26
ATOM     26  P   UNL     1       3.196   3.523  17.502  0.00  0.00    +0.000 P 
ATOM     27  O   UNL     1       3.455   2.290  18.390  0.00  0.00    +0.000 OA
BRANCH  26  28
ATOM     28  O   UNL     1       4.884   3.639  17.144  0.00  0.00    +0.000 OA
BRANCH  28  30
ATOM     29  C   UNL     1       6.974   4.731  16.520  0.00  0.00    +0.000 C 
ATOM     30  C   UNL     1       5.604   4.245  16.103  0.00  0.00    +0.000 C 
ENDBRANCH  28  30
ENDBRANCH  26  28
BRANCH  26  31
ATOM     31  O   UNL     1       1.507   3.405  17.861  0.00  0.00    +0.000 OA
BRANCH  31  32
ATOM     32  C   UNL     1       1.075   2.609  18.954  0.00  0.00    +0.000 C 
ATOM     33  C   UNL     1       0.696   3.470  20.139  0.00  0.00    +0.000 C 
ENDBRANCH  31  32
ENDBRANCH  26  31
ENDBRANCH  25  26
ENDBRANCH  19  25
ENDBRANCH   1  22
TORSDOF 8
ENDMDL
MODEL 2
REMARK VINA RESULT:      -7.8      0.999      2.623
REMARK  Name = 
REMARK  12 active torsions:
REMARK  status: ('A' for Active; 'I' for Inactive)
REMARK    1  A    between atoms: C_1  and  C_2
REMARK    2  A    between atoms: C_2  and  O_3
REMARK    3  A    between atoms: O_3  and  P_4
REMARK    4  A    between atoms: P_4  and  C_6
REMARK    5  A    between atoms: P_4  and  O_30
REMARK    6  A    between atoms: C_6  and  C_7
REMARK    7  A    between atoms: C_10  and  N_11
REMARK    8  A    between atoms: C_12  and  C_14
REMARK    9  A    between atoms: C_19  and  C_20
REMARK   10  A    between atoms: C_25  and  C_26
REMARK   11  A    between atoms: O_30  and  C_31
REMARK   12  A    between atoms: C_31  and  C_32
REMARK                            x       y       z     vdW  Elec       q    Type
REMARK                         _______ _______ _______ _____ _____    ______ ____
ROOT
ATOM      1  N   UNL     1       1.131  10.068  18.444  0.00  0.00    +0.000 N 
ATOM      2  C   UNL     1       0.813  11.041  19.409  0.00  0.00    +0.000 C 
ATOM      3  O   UNL     1       0.992  10.845  20.617  0.00  0.00    +0.000 OA
ATOM      4  H   UNL     1       0.763  10.219  17.508  0.00  0.00    +0.000 HD
ENDROOT
BRANCH   2   5
ATOM      5  C   UNL     1       0.053  12.412  18.989  0.00  0.00    +0.000 C 
ATOM      6  C   UNL     1      -1.503  12.751  19.218  0.00  0.00    +0.000 C 
ATOM      7  C   UNL     1      -2.089  13.372  20.484  0.00  0.00    +0.000 A 
ATOM      8  C   UNL     1      -3.456  13.603  20.695  0.00  0.00    +0.000 A 
ATOM      9  C   UNL     1      -3.985  13.478  21.970  0.00  0.00    +0.000 A 
ATOM     10  C   UNL     1      -3.163  13.008  22.996  0.00  0.00    +0.000 A 
ATOM     11  C   UNL     1      -3.764  12.340  24.197  0.00  0.00    +0.000 C 
ATOM     12  C   UNL     1      -1.780  13.144  22.831  0.00  0.00    +0.000 A 
ATOM     13  C   UNL     1      -1.297  13.536  21.585  0.00  0.00    +0.000 A 
ATOM     14  C   UNL     1       0.036  14.115  21.396  0.00  0.00    +0.000 C 
ATOM     15  O   UNL     1       0.888  13.793  22.213  0.00  0.00    +0.000 OA
ATOM     16  C   UNL     1       0.388  14.955  20.122  0.00  0.00    +0.000 C 
ATOM     17  C   UNL     1      -0.568  15.745  19.206  0.00  0.00    +0.000 C 
ATOM     18  S   UNL     1       1.299  13.793  19.056  0.00  0.00    +0.000 S 
ENDBRANCH   2   5
BRANCH   1  22
ATOM     19  C   UNL     1       3.438   6.310  19.036  0.00  0.00    +0.000 A 
ATOM     20  C   UNL     1       3.472   7.064  17.859  0.00  0.00    +0.000 A 
ATOM     21  C   UNL     1       2.684   8.268  17.684  0.00  0.00    +0.000 A 
ATOM     22  C   UNL     1       1.786   8.769  18.651  0.00  0.00    +0.000 A 
ATOM     23  C   UNL     1       1.630   7.934  19.761  0.00  0.00    +0.000 A 
ATOM     24  C   UNL     1       2.433   6.743  19.945  0.00  0.00    +0.000 A 
BRANCH  19  25
ATOM     25  C   UNL     1       4.206   4.969  19.264  0.00  0.00    +0.000 C 
BRANCH  25  26
ATOM     26  P   UNL     1       4.111   3.178  18.019  0.00  0.00    +0.000 P 
ATOM     27  O   UNL     1       3.042   3.538  16.968  0.00  0.00    +0.000 OA
BRANCH  26  28
ATOM     28  O   UNL     1       2.877   2.714  19.138  0.00  0.00    +0.000 OA
BRANCH  28  30
ATOM     29  C   UNL     1       0.746   3.373  20.125  0.00  0.00    +0.000 C 
ATOM     30  C   UNL     1       1.481   2.617  19.040  0.00  0.00    +0.000 C 
ENDBRANCH  28  30
ENDBRANCH  26  28
BRANCH  26  31
ATOM     31  O   UNL     1       5.344   3.643  16.899  0.00  0.00    +0.000 OA
BRANCH  31  32
ATOM     32  C   UNL     1       5.003   4.414  15.756  0.00  0.00    +0.000 C 
ATOM     33  C   UNL     1       5.944   4.131  14.606  0.00  0.00    +0.000 C 
ENDBRANCH  31  32
ENDBRANCH  26  31
ENDBRANCH  25  26
ENDBRANCH  19  25
ENDBRANCH   1  22
TORSDOF 8
ENDMDL
MODEL 3
REMARK VINA RESULT:      -7.7      0.662      1.091
REMARK  Name = 
REMARK  12 active torsions:
REMARK  status: ('A' for Active; 'I' for Inactive)
REMARK    1  A    between atoms: C_1  and  C_2
REMARK    2  A    between atoms: C_2  and  O_3
REMARK    3  A    between atoms: O_3  and  P_4
REMARK    4  A    between atoms: P_4  and  C_6
REMARK    5  A    between atoms: P_4  and  O_30
REMARK    6  A    between atoms: C_6  and  C_7
REMARK    7  A    between atoms: C_10  and  N_11
REMARK    8  A    between atoms: C_12  and  C_14
REMARK    9  A    between atoms: C_19  and  C_20
REMARK   10  A    between atoms: C_25  and  C_26
REMARK   11  A    between atoms: O_30  and  C_31
REMARK   12  A    between atoms: C_31  and  C_32
REMARK                            x       y       z     vdW  Elec       q    Type
REMARK                         _______ _______ _______ _____ _____    ______ ____
ROOT
ATOM      1  N   UNL     1       0.824  10.682  18.708  0.00  0.00    +0.000 N 
ATOM      2  C   UNL     1      -0.213  11.133  19.545  0.00  0.00    +0.000 C 
ATOM      3  O   UNL     1      -0.705  10.411  20.421  0.00  0.00    +0.000 OA
ATOM      4  H   UNL     1       1.025  11.249  17.888  0.00  0.00    +0.000 HD
ENDROOT
BRANCH   2   5
ATOM      5  C   UNL     1      -0.915  12.574  19.297  0.00  0.00    +0.000 C 
ATOM      6  C   UNL     1      -2.428  12.977  19.669  0.00  0.00    +0.000 C 
ATOM      7  C   UNL     1      -2.885  13.518  21.022  0.00  0.00    +0.000 A 
ATOM      8  C   UNL     1      -4.217  13.805  21.354  0.00  0.00    +0.000 A 
ATOM      9  C   UNL     1      -4.661  13.599  22.650  0.00  0.00    +0.000 A 
ATOM     10  C   UNL     1      -3.800  12.998  23.570  0.00  0.00    +0.000 A 
ATOM     11  C   UNL     1      -4.354  12.264  24.754  0.00  0.00    +0.000 C 
ATOM     12  C   UNL     1      -2.425  13.073  23.313  0.00  0.00    +0.000 A 
ATOM     13  C   UNL     1      -2.008  13.543  22.070  0.00  0.00    +0.000 A 
ATOM     14  C   UNL     1      -0.659  14.062  21.830  0.00  0.00    +0.000 C 
ATOM     15  O   UNL     1       0.226  13.625  22.551  0.00  0.00    +0.000 OA
ATOM     16  C   UNL     1      -0.348  14.989  20.606  0.00  0.00    +0.000 C 
ATOM     17  C   UNL     1      -1.316  15.906  19.833  0.00  0.00    +0.000 C 
ATOM     18  S   UNL     1       0.413  13.874  19.383  0.00  0.00    +0.000 S 
ENDBRANCH   2   5
BRANCH   1  22
ATOM     19  C   UNL     1       2.687   6.651  18.985  0.00  0.00    +0.000 A 
ATOM     20  C   UNL     1       2.079   7.301  20.063  0.00  0.00    +0.000 A 
ATOM     21  C   UNL     1       1.508   8.629  19.950  0.00  0.00    +0.000 A 
ATOM     22  C   UNL     1       1.546   9.404  18.771  0.00  0.00    +0.000 A 
ATOM     23  C   UNL     1       2.291   8.825  17.739  0.00  0.00    +0.000 A 
ATOM     24  C   UNL     1       2.842   7.490  17.846  0.00  0.00    +0.000 A 
BRANCH  19  25
ATOM     25  C   UNL     1       3.381   5.254  19.055  0.00  0.00    +0.000 C 
BRANCH  25  26
ATOM     26  P   UNL     1       3.346   3.696  17.525  0.00  0.00    +0.000 P 
ATOM     27  O   UNL     1       3.684   2.419  18.318  0.00  0.00    +0.000 OA
BRANCH  26  28
ATOM     28  O   UNL     1       5.028   4.077  17.392  0.00  0.00    +0.000 OA
BRANCH  28  30
ATOM     29  C   UNL     1       5.299   5.747  15.635  0.00  0.00    +0.000 C 
ATOM     30  C   UNL     1       5.832   4.513  16.327  0.00  0.00    +0.000 C 
ENDBRANCH  28  30
ENDBRANCH  26  28
BRANCH  26  31
ATOM     31  O   UNL     1       1.664   3.315  17.659  0.00  0.00    +0.000 OA
BRANCH  31  32
ATOM     32  C   UNL     1       1.231   2.382  18.637  0.00  0.00    +0.000 C 
ATOM     33  C   UNL     1       0.705   3.087  19.868  0.00  0.00    +0.000 C 
ENDBRANCH  31  32
ENDBRANCH  26  31
ENDBRANCH  25  26
ENDBRANCH  19  25
ENDBRANCH   1  22
TORSDOF 8
ENDMDL
MODEL 4
REMARK VINA RESULT:      -7.7      6.490      8.709
REMARK  Name = 
REMARK  12 active torsions:
REMARK  status: ('A' for Active; 'I' for Inactive)
REMARK    1  A    between atoms: C_1  and  C_2
REMARK    2  A    between atoms: C_2  and  O_3
REMARK    3  A    between atoms: O_3  and  P_4
REMARK    4  A    between atoms: P_4  and  C_6
REMARK    5  A    between atoms: P_4  and  O_30
REMARK    6  A    between atoms: C_6  and  C_7
REMARK    7  A    between atoms: C_10  and  N_11
REMARK    8  A    between atoms: C_12  and  C_14
REMARK    9  A    between atoms: C_19  and  C_20
REMARK   10  A    between atoms: C_25  and  C_26
REMARK   11  A    between atoms: O_30  and  C_31
REMARK   12  A    between atoms: C_31  and  C_32
REMARK                            x       y       z     vdW  Elec       q    Type
REMARK                         _______ _______ _______ _____ _____    ______ ____
ROOT
ATOM      1  N   UNL     1       8.710   9.540  17.746  0.00  0.00    +0.000 N 
ATOM      2  C   UNL     1       9.351  10.404  18.653  0.00  0.00    +0.000 C 
ATOM      3  O   UNL     1       9.289  10.228  19.876  0.00  0.00    +0.000 OA
ATOM      4  H   UNL     1       8.631   9.867  16.786  0.00  0.00    +0.000 HD
ENDROOT
BRANCH   2   5
ATOM      5  C   UNL     1      10.078  11.760  18.140  0.00  0.00    +0.000 C 
ATOM      6  C   UNL     1       9.349  13.086  17.591  0.00  0.00    +0.000 C 
ATOM      7  C   UNL     1       8.860  14.242  18.462  0.00  0.00    +0.000 A 
ATOM      8  C   UNL     1       8.170  15.363  17.978  0.00  0.00    +0.000 A 
ATOM      9  C   UNL     1       7.193  15.958  18.760  0.00  0.00    +0.000 A 
ATOM     10  C   UNL     1       6.837  15.353  19.967  0.00  0.00    +0.000 A 
ATOM     11  C   UNL     1       5.481  15.595  20.560  0.00  0.00    +0.000 C 
ATOM     12  C   UNL     1       7.769  14.493  20.559  0.00  0.00    +0.000 A 
ATOM     13  C   UNL     1       8.891  14.123  19.822  0.00  0.00    +0.000 A 
ATOM     14  C   UNL     1      10.112  13.601  20.443  0.00  0.00    +0.000 C 
ATOM     15  O   UNL     1       9.972  13.026  21.513  0.00  0.00    +0.000 OA
ATOM     16  C   UNL     1      11.485  13.626  19.689  0.00  0.00    +0.000 C 
ATOM     17  C   UNL     1      11.936  14.573  18.560  0.00  0.00    +0.000 C 
ATOM     18  S   UNL     1      11.684  11.927  19.064  0.00  0.00    +0.000 S 
ENDBRANCH   2   5
BRANCH   1  22
ATOM     19  C   UNL     1       6.519   5.704  18.272  0.00  0.00    +0.000 A 
ATOM     20  C   UNL     1       6.020   6.789  17.545  0.00  0.00    +0.000 A 
ATOM     21  C   UNL     1       6.744   8.039  17.418  0.00  0.00    +0.000 A 
ATOM     22  C   UNL     1       7.985   8.296  18.039  0.00  0.00    +0.000 A 
ATOM     23  C   UNL     1       8.410   7.275  18.894  0.00  0.00    +0.000 A 
ATOM     24  C   UNL     1       7.698   6.020  19.004  0.00  0.00    +0.000 A 
BRANCH  19  25
ATOM     25  C   UNL     1       5.763   4.357  18.506  0.00  0.00    +0.000 C 
BRANCH  25  26
ATOM     26  P   UNL     1       4.136   3.543  17.298  0.00  0.00    +0.000 P 
ATOM     27  O   UNL     1       3.081   4.666  17.329  0.00  0.00    +0.000 OA
BRANCH  26  28
ATOM     28  O   UNL     1       3.574   2.951  18.823  0.00  0.00    +0.000 OA
BRANCH  28  30
ATOM     29  C   UNL     1       2.637   2.829  21.072  0.00  0.00    +0.000 C 
ATOM     30  C   UNL     1       2.482   3.285  19.639  0.00  0.00    +0.000 C 
ENDBRANCH  28  30
ENDBRANCH  26  28
BRANCH  26  31
ATOM     31  O   UNL     1       4.698   4.136  15.773  0.00  0.00    +0.000 OA
BRANCH  31  32
ATOM     32  C   UNL     1       5.896   3.617  15.215  0.00  0.00    +0.000 C 
ATOM     33  C   UNL     1       6.720   4.714  14.579  0.00  0.00    +0.000 C 
ENDBRANCH  31  32
ENDBRANCH  26  31
ENDBRANCH  25  26
ENDBRANCH  19  25
ENDBRANCH   1  22
TORSDOF 8
ENDMDL
MODEL 5
REMARK VINA RESULT:      -7.6      2.072      3.950
REMARK  Name = 
REMARK  12 active torsions:
REMARK  status: ('A' for Active; 'I' for Inactive)
REMARK    1  A    between atoms: C_1  and  C_2
REMARK    2  A    between atoms: C_2  and  O_3
REMARK    3  A    between atoms: O_3  and  P_4
REMARK    4  A    between atoms: P_4  and  C_6
REMARK    5  A    between atoms: P_4  and  O_30
REMARK    6  A    between atoms: C_6  and  C_7
REMARK    7  A    between atoms: C_10  and  N_11
REMARK    8  A    between atoms: C_12  and  C_14
REMARK    9  A    between atoms: C_19  and  C_20
REMARK   10  A    between atoms: C_25  and  C_26
REMARK   11  A    between atoms: O_30  and  C_31
REMARK   12  A    between atoms: C_31  and  C_32
REMARK                            x       y       z     vdW  Elec       q    Type
REMARK                         _______ _______ _______ _____ _____    ______ ____
ROOT
ATOM      1  N   UNL     1       0.833  10.368  19.921  0.00  0.00    +0.000 N 
ATOM      2  C   UNL     1       0.802  10.831  21.250  0.00  0.00    +0.000 C 
ATOM      3  O   UNL     1       1.214  10.141  22.190  0.00  0.00    +0.000 OA
ATOM      4  H   UNL     1       0.290  10.897  19.243  0.00  0.00    +0.000 HD
ENDROOT
BRANCH   2   5
ATOM      5  C   UNL     1       0.084  12.236  21.625  0.00  0.00    +0.000 C 
ATOM      6  C   UNL     1       0.794  13.677  21.719  0.00  0.00    +0.000 C 
ATOM      7  C   UNL     1       0.992  14.636  20.547  0.00  0.00    +0.000 A 
ATOM      8  C   UNL     1       1.669  15.861  20.629  0.00  0.00    +0.000 A 
ATOM      9  C   UNL     1       2.409  16.311  19.548  0.00  0.00    +0.000 A 
ATOM     10  C   UNL     1       2.559  15.474  18.439  0.00  0.00    +0.000 A 
ATOM     11  C   UNL     1       3.737  15.635  17.526  0.00  0.00    +0.000 C 
ATOM     12  C   UNL     1       1.601  14.470  18.254  0.00  0.00    +0.000 A 
ATOM     13  C   UNL     1       0.692  14.224  19.279  0.00  0.00    +0.000 A 
ATOM     14  C   UNL     1      -0.582  13.532  19.061  0.00  0.00    +0.000 C 
ATOM     15  O   UNL     1      -0.618  12.746  18.126  0.00  0.00    +0.000 OA
ATOM     16  C   UNL     1      -1.767  13.666  20.077  0.00  0.00    +0.000 C 
ATOM     17  C   UNL     1      -2.054  14.816  21.062  0.00  0.00    +0.000 C 
ATOM     18  S   UNL     1      -1.687  12.136  21.062  0.00  0.00    +0.000 S 
ENDBRANCH   2   5
BRANCH   1  22
ATOM     19  C   UNL     1       2.874   6.776  18.271  0.00  0.00    +0.000 A 
ATOM     20  C   UNL     1       2.472   7.866  17.493  0.00  0.00    +0.000 A 
ATOM     21  C   UNL     1       1.779   9.009  18.055  0.00  0.00    +0.000 A 
ATOM     22  C   UNL     1       1.410   9.116  19.413  0.00  0.00    +0.000 A 
ATOM     23  C   UNL     1       1.668   7.963  20.160  0.00  0.00    +0.000 A 
ATOM     24  C   UNL     1       2.378   6.831  19.603  0.00  0.00    +0.000 A 
BRANCH  19  25
ATOM     25  C   UNL     1       3.559   5.485  17.720  0.00  0.00    +0.000 C 
BRANCH  25  26
ATOM     26  P   UNL     1       5.304   4.471  18.554  0.00  0.00    +0.000 P 
ATOM     27  O   UNL     1       5.796   5.453  19.636  0.00  0.00    +0.000 OA
BRANCH  26  28
ATOM     28  O   UNL     1       6.149   5.363  17.337  0.00  0.00    +0.000 OA
BRANCH  28  30
ATOM     29  C   UNL     1       6.069   3.994  15.320  0.00  0.00    +0.000 C 
ATOM     30  C   UNL     1       6.831   4.985  16.171  0.00  0.00    +0.000 C 
ENDBRANCH  28  30
ENDBRANCH  26  28
BRANCH  26  31
ATOM     31  O   UNL     1       4.459   3.580  19.772  0.00  0.00    +0.000 OA
BRANCH  31  32
ATOM     32  C   UNL     1       3.779   2.383  19.424  0.00  0.00    +0.000 C 
ATOM     33  C   UNL     1       2.289   2.517  19.648  0.00  0.00    +0.000 C 
ENDBRANCH  31  32
ENDBRANCH  26  31
ENDBRANCH  25  26
ENDBRANCH  19  25
ENDBRANCH   1  22
TORSDOF 8
ENDMDL
MODEL 6
REMARK VINA RESULT:      -7.6      2.006      4.491
REMARK  Name = 
REMARK  12 active torsions:
REMARK  status: ('A' for Active; 'I' for Inactive)
REMARK    1  A    between atoms: C_1  and  C_2
REMARK    2  A    between atoms: C_2  and  O_3
REMARK    3  A    between atoms: O_3  and  P_4
REMARK    4  A    between atoms: P_4  and  C_6
REMARK    5  A    between atoms: P_4  and  O_30
REMARK    6  A    between atoms: C_6  and  C_7
REMARK    7  A    between atoms: C_10  and  N_11
REMARK    8  A    between atoms: C_12  and  C_14
REMARK    9  A    between atoms: C_19  and  C_20
REMARK   10  A    between atoms: C_25  and  C_26
REMARK   11  A    between atoms: O_30  and  C_31
REMARK   12  A    between atoms: C_31  and  C_32
REMARK                            x       y       z     vdW  Elec       q    Type
REMARK                         _______ _______ _______ _____ _____    ______ ____
ROOT
ATOM      1  N   UNL     1       0.699  10.577  20.006  0.00  0.00    +0.000 N 
ATOM      2  C   UNL     1       0.622  11.029  21.337  0.00  0.00    +0.000 C 
ATOM      3  O   UNL     1       0.986  10.324  22.286  0.00  0.00    +0.000 OA
ATOM      4  H   UNL     1       0.192  11.121  19.312  0.00  0.00    +0.000 HD
ENDROOT
BRANCH   2   5
ATOM      5  C   UNL     1      -0.088  12.442  21.697  0.00  0.00    +0.000 C 
ATOM      6  C   UNL     1       0.638  13.873  21.817  0.00  0.00    +0.000 C 
ATOM      7  C   UNL     1       0.883  14.833  20.656  0.00  0.00    +0.000 A 
ATOM      8  C   UNL     1       1.573  16.049  20.763  0.00  0.00    +0.000 A 
ATOM      9  C   UNL     1       2.350  16.493  19.705  0.00  0.00    +0.000 A 
ATOM     10  C   UNL     1       2.521  15.659  18.598  0.00  0.00    +0.000 A 
ATOM     11  C   UNL     1       3.728  15.808  17.721  0.00  0.00    +0.000 C 
ATOM     12  C   UNL     1       1.556  14.668  18.381  0.00  0.00    +0.000 A 
ATOM     13  C   UNL     1       0.614  14.430  19.378  0.00  0.00    +0.000 A 
ATOM     14  C   UNL     1      -0.662  13.756  19.121  0.00  0.00    +0.000 C 
ATOM     15  O   UNL     1      -0.681  12.974  18.181  0.00  0.00    +0.000 OA
ATOM     16  C   UNL     1      -1.874  13.902  20.102  0.00  0.00    +0.000 C 
ATOM     17  C   UNL     1      -2.175  15.052  21.083  0.00  0.00    +0.000 C 
ATOM     18  S   UNL     1      -1.843  12.367  21.082  0.00  0.00    +0.000 S 
ENDBRANCH   2   5
BRANCH   1  22
ATOM     19  C   UNL     1       2.739   6.971  18.386  0.00  0.00    +0.000 A 
ATOM     20  C   UNL     1       2.331   8.051  17.598  0.00  0.00    +0.000 A 
ATOM     21  C   UNL     1       1.639   9.200  18.150  0.00  0.00    +0.000 A 
ATOM     22  C   UNL     1       1.276   9.321  19.509  0.00  0.00    +0.000 A 
ATOM     23  C   UNL     1       1.539   8.176  20.267  0.00  0.00    +0.000 A 
ATOM     24  C   UNL     1       2.249   7.039  19.720  0.00  0.00    +0.000 A 
BRANCH  19  25
ATOM     25  C   UNL     1       3.424   5.675  17.846  0.00  0.00    +0.000 C 
BRANCH  25  26
ATOM     26  P   UNL     1       4.036   3.934  19.013  0.00  0.00    +0.000 P 
ATOM     27  O   UNL     1       4.115   2.814  17.957  0.00  0.00    +0.000 OA
BRANCH  26  28
ATOM     28  O   UNL     1       2.330   3.693  19.165  0.00  0.00    +0.000 OA
BRANCH  28  30
ATOM     29  C   UNL     1       2.156   3.273  21.561  0.00  0.00    +0.000 C 
ATOM     30  C   UNL     1       1.522   3.183  20.192  0.00  0.00    +0.000 C 
ENDBRANCH  28  30
ENDBRANCH  26  28
BRANCH  26  31
ATOM     31  O   UNL     1       5.742   4.175  18.859  0.00  0.00    +0.000 OA
BRANCH  31  32
ATOM     32  C   UNL     1       6.337   5.352  19.387  0.00  0.00    +0.000 C 
ATOM     33  C   UNL     1       7.316   5.955  18.404  0.00  0.00    +0.000 C 
ENDBRANCH  31  32
ENDBRANCH  26  31
ENDBRANCH  25  26
ENDBRANCH  19  25
ENDBRANCH   1  22
TORSDOF 8
ENDMDL
MODEL 7
REMARK VINA RESULT:      -7.5      1.030      1.108
REMARK  Name = 
REMARK  12 active torsions:
REMARK  status: ('A' for Active; 'I' for Inactive)
REMARK    1  A    between atoms: C_1  and  C_2
REMARK    2  A    between atoms: C_2  and  O_3
REMARK    3  A    between atoms: O_3  and  P_4
REMARK    4  A    between atoms: P_4  and  C_6
REMARK    5  A    between atoms: P_4  and  O_30
REMARK    6  A    between atoms: C_6  and  C_7
REMARK    7  A    between atoms: C_10  and  N_11
REMARK    8  A    between atoms: C_12  and  C_14
REMARK    9  A    between atoms: C_19  and  C_20
REMARK   10  A    between atoms: C_25  and  C_26
REMARK   11  A    between atoms: O_30  and  C_31
REMARK   12  A    between atoms: C_31  and  C_32
REMARK                            x       y       z     vdW  Elec       q    Type
REMARK                         _______ _______ _______ _____ _____    ______ ____
ROOT
ATOM      1  N   UNL     1       0.397  11.068  19.851  0.00  0.00    +0.000 N 
ATOM      2  C   UNL     1      -0.875  11.506  19.436  0.00  0.00    +0.000 C 
ATOM      3  O   UNL     1      -1.674  10.748  18.874  0.00  0.00    +0.000 OA
ATOM      4  H   UNL     1       1.064  11.791  20.108  0.00  0.00    +0.000 HD
ENDROOT
BRANCH   2   5
ATOM      5  C   UNL     1      -1.292  13.069  19.544  0.00  0.00    +0.000 C 
ATOM      6  C   UNL     1      -2.710  13.648  20.039  0.00  0.00    +0.000 C 
ATOM      7  C   UNL     1      -3.081  13.938  21.492  0.00  0.00    +0.000 A 
ATOM      8  C   UNL     1      -4.341  14.382  21.915  0.00  0.00    +0.000 A 
ATOM      9  C   UNL     1      -4.838  13.970  23.141  0.00  0.00    +0.000 A 
ATOM     10  C   UNL     1      -4.118  13.025  23.876  0.00  0.00    +0.000 A 
ATOM     11  C   UNL     1      -4.819  12.153  24.875  0.00  0.00    +0.000 C 
ATOM     12  C   UNL     1      -2.750  12.902  23.606  0.00  0.00    +0.000 A 
ATOM     13  C   UNL     1      -2.232  13.560  22.494  0.00  0.00    +0.000 A 
ATOM     14  C   UNL     1      -0.806  13.862  22.342  0.00  0.00    +0.000 C 
ATOM     15  O   UNL     1      -0.030  13.115  22.920  0.00  0.00    +0.000 OA
ATOM     16  C   UNL     1      -0.308  14.971  21.355  0.00  0.00    +0.000 C 
ATOM     17  C   UNL     1      -1.076  16.204  20.838  0.00  0.00    +0.000 C 
ATOM     18  S   UNL     1       0.253  14.047  19.889  0.00  0.00    +0.000 S 
ENDBRANCH   2   5
BRANCH   1  22
ATOM     19  C   UNL     1       2.385   7.095  19.601  0.00  0.00    +0.000 A 
ATOM     20  C   UNL     1       2.248   7.965  18.514  0.00  0.00    +0.000 A 
ATOM     21  C   UNL     1       1.567   9.240  18.619  0.00  0.00    +0.000 A 
ATOM     22  C   UNL     1       0.946   9.706  19.798  0.00  0.00    +0.000 A 
ATOM     23  C   UNL     1       0.941   8.773  20.839  0.00  0.00    +0.000 A 
ATOM     24  C   UNL     1       1.640   7.509  20.740  0.00  0.00    +0.000 A 
BRANCH  19  25
ATOM     25  C   UNL     1       3.044   5.681  19.540  0.00  0.00    +0.000 C 
BRANCH  25  26
ATOM     26  P   UNL     1       2.796   4.188  17.965  0.00  0.00    +0.000 P 
ATOM     27  O   UNL     1       3.422   2.922  18.582  0.00  0.00    +0.000 OA
BRANCH  26  28
ATOM     28  O   UNL     1       4.359   4.743  17.477  0.00  0.00    +0.000 OA
BRANCH  28  30
ATOM     29  C   UNL     1       5.230   6.501  16.027  0.00  0.00    +0.000 C 
ATOM     30  C   UNL     1       4.927   5.033  16.227  0.00  0.00    +0.000 C 
ENDBRANCH  28  30
ENDBRANCH  26  28
BRANCH  26  31
ATOM     31  O   UNL     1       1.232   3.632  18.455  0.00  0.00    +0.000 OA
BRANCH  31  32
ATOM     32  C   UNL     1       1.125   2.553  19.371  0.00  0.00    +0.000 C 
ATOM     33  C   UNL     1       0.934   3.055  20.785  0.00  0.00    +0.000 C 
ENDBRANCH  31  32
ENDBRANCH  26  31
ENDBRANCH  25  26
ENDBRANCH  19  25
ENDBRANCH   1  22
TORSDOF 8
ENDMDL
MODEL 8
REMARK VINA RESULT:      -7.5      2.062      3.892
REMARK  Name = 
REMARK  12 active torsions:
REMARK  status: ('A' for Active; 'I' for Inactive)
REMARK    1  A    between atoms: C_1  and  C_2
REMARK    2  A    between atoms: C_2  and  O_3
REMARK    3  A    between atoms: O_3  and  P_4
REMARK    4  A    between atoms: P_4  and  C_6
REMARK    5  A    between atoms: P_4  and  O_30
REMARK    6  A    between atoms: C_6  and  C_7
REMARK    7  A    between atoms: C_10  and  N_11
REMARK    8  A    between atoms: C_12  and  C_14
REMARK    9  A    between atoms: C_19  and  C_20
REMARK   10  A    between atoms: C_25  and  C_26
REMARK   11  A    between atoms: O_30  and  C_31
REMARK   12  A    between atoms: C_31  and  C_32
REMARK                            x       y       z     vdW  Elec       q    Type
REMARK                         _______ _______ _______ _____ _____    ______ ____
ROOT
ATOM      1  N   UNL     1       0.821  10.486  19.844  0.00  0.00    +0.000 N 
ATOM      2  C   UNL     1       0.783  10.917  21.183  0.00  0.00    +0.000 C 
ATOM      3  O   UNL     1       1.223  10.219  22.105  0.00  0.00    +0.000 OA
ATOM      4  H   UNL     1       0.257  11.013  19.181  0.00  0.00    +0.000 HD
ENDROOT
BRANCH   2   5
ATOM      5  C   UNL     1       0.022  12.288  21.595  0.00  0.00    +0.000 C 
ATOM      6  C   UNL     1       0.693  13.741  21.759  0.00  0.00    +0.000 C 
ATOM      7  C   UNL     1       0.892  14.749  20.629  0.00  0.00    +0.000 A 
ATOM      8  C   UNL     1       1.536  15.986  20.773  0.00  0.00    +0.000 A 
ATOM      9  C   UNL     1       2.287  16.495  19.726  0.00  0.00    +0.000 A 
ATOM     10  C   UNL     1       2.482  15.705  18.590  0.00  0.00    +0.000 A 
ATOM     11  C   UNL     1       3.675  15.930  17.711  0.00  0.00    +0.000 C 
ATOM     12  C   UNL     1       1.554  14.686  18.345  0.00  0.00    +0.000 A 
ATOM     13  C   UNL     1       0.629  14.379  19.340  0.00  0.00    +0.000 A 
ATOM     14  C   UNL     1      -0.622  13.665  19.068  0.00  0.00    +0.000 C 
ATOM     15  O   UNL     1      -0.618  12.914  18.103  0.00  0.00    +0.000 OA
ATOM     16  C   UNL     1      -1.831  13.731  20.061  0.00  0.00    +0.000 C 
ATOM     17  C   UNL     1      -2.168  14.835  21.082  0.00  0.00    +0.000 C 
ATOM     18  S   UNL     1      -1.734  12.166  20.989  0.00  0.00    +0.000 S 
ENDBRANCH   2   5
BRANCH   1  22
ATOM     19  C   UNL     1       2.988   6.992  18.144  0.00  0.00    +0.000 A 
ATOM     20  C   UNL     1       2.686   8.147  17.416  0.00  0.00    +0.000 A 
ATOM     21  C   UNL     1       1.950   9.257  17.988  0.00  0.00    +0.000 A 
ATOM     22  C   UNL     1       1.436   9.266  19.303  0.00  0.00    +0.000 A 
ATOM     23  C   UNL     1       1.596   8.053  19.979  0.00  0.00    +0.000 A 
ATOM     24  C   UNL     1       2.350   6.953  19.414  0.00  0.00    +0.000 A 
BRANCH  19  25
ATOM     25  C   UNL     1       3.714   5.734  17.569  0.00  0.00    +0.000 C 
BRANCH  25  26
ATOM     26  P   UNL     1       4.618   4.108  18.713  0.00  0.00    +0.000 P 
ATOM     27  O   UNL     1       4.804   4.726  20.113  0.00  0.00    +0.000 OA
BRANCH  26  28
ATOM     28  O   UNL     1       6.097   4.830  18.180  0.00  0.00    +0.000 OA
BRANCH  28  30
ATOM     29  C   UNL     1       7.528   6.802  18.069  0.00  0.00    +0.000 C 
ATOM     30  C   UNL     1       7.091   5.573  18.834  0.00  0.00    +0.000 C 
ENDBRANCH  28  30
ENDBRANCH  26  28
BRANCH  26  31
ATOM     31  O   UNL     1       3.139   3.387  19.246  0.00  0.00    +0.000 OA
BRANCH  31  32
ATOM     32  C   UNL     1       2.739   3.522  20.602  0.00  0.00    +0.000 C 
ATOM     33  C   UNL     1       1.232   3.582  20.722  0.00  0.00    +0.000 C 
ENDBRANCH  31  32
ENDBRANCH  26  31
ENDBRANCH  25  26
ENDBRANCH  19  25
ENDBRANCH   1  22
TORSDOF 8
ENDMDL
MODEL 9
REMARK VINA RESULT:      -7.5      6.591      8.685
REMARK  Name = 
REMARK  12 active torsions:
REMARK  status: ('A' for Active; 'I' for Inactive)
REMARK    1  A    between atoms: C_1  and  C_2
REMARK    2  A    between atoms: C_2  and  O_3
REMARK    3  A    between atoms: O_3  and  P_4
REMARK    4  A    between atoms: P_4  and  C_6
REMARK    5  A    between atoms: P_4  and  O_30
REMARK    6  A    between atoms: C_6  and  C_7
REMARK    7  A    between atoms: C_10  and  N_11
REMARK    8  A    between atoms: C_12  and  C_14
REMARK    9  A    between atoms: C_19  and  C_20
REMARK   10  A    between atoms: C_25  and  C_26
REMARK   11  A    between atoms: O_30  and  C_31
REMARK   12  A    between atoms: C_31  and  C_32
REMARK                            x       y       z     vdW  Elec       q    Type
REMARK                         _______ _______ _______ _____ _____    ______ ____
ROOT
ATOM      1  N   UNL     1       8.773   9.433  17.647  0.00  0.00    +0.000 N 
ATOM      2  C   UNL     1       9.306  10.304  18.616  0.00  0.00    +0.000 C 
ATOM      3  O   UNL     1       9.007  10.208  19.813  0.00  0.00    +0.000 OA
ATOM      4  H   UNL     1       8.899   9.705  16.675  0.00  0.00    +0.000 HD
ENDROOT
BRANCH   2   5
ATOM      5  C   UNL     1      10.222  11.570  18.184  0.00  0.00    +0.000 C 
ATOM      6  C   UNL     1       9.698  12.967  17.581  0.00  0.00    +0.000 C 
ATOM      7  C   UNL     1       9.260  14.172  18.412  0.00  0.00    +0.000 A 
ATOM      8  C   UNL     1       8.746  15.361  17.875  0.00  0.00    +0.000 A 
ATOM      9  C   UNL     1       7.772  16.061  18.568  0.00  0.00    +0.000 A 
ATOM     10  C   UNL     1       7.239  15.502  19.732  0.00  0.00    +0.000 A 
ATOM     11  C   UNL     1       5.869  15.893  20.197  0.00  0.00    +0.000 C 
ATOM     12  C   UNL     1       8.012  14.546  20.401  0.00  0.00    +0.000 A 
ATOM     13  C   UNL     1       9.150  14.053  19.769  0.00  0.00    +0.000 A 
ATOM     14  C   UNL     1      10.243  13.400  20.496  0.00  0.00    +0.000 C 
ATOM     15  O   UNL     1       9.942  12.847  21.544  0.00  0.00    +0.000 OA
ATOM     16  C   UNL     1      11.675  13.273  19.873  0.00  0.00    +0.000 C 
ATOM     17  C   UNL     1      12.331  14.162  18.799  0.00  0.00    +0.000 C 
ATOM     18  S   UNL     1      11.743  11.561  19.255  0.00  0.00    +0.000 S 
ENDBRANCH   2   5
BRANCH   1  22
ATOM     19  C   UNL     1       6.159   5.844  17.921  0.00  0.00    +0.000 A 
ATOM     20  C   UNL     1       5.799   7.016  17.249  0.00  0.00    +0.000 A 
ATOM     21  C   UNL     1       6.660   8.182  17.204  0.00  0.00    +0.000 A 
ATOM     22  C   UNL     1       7.909   8.265  17.859  0.00  0.00    +0.000 A 
ATOM     23  C   UNL     1       8.198   7.157  18.661  0.00  0.00    +0.000 A 
ATOM     24  C   UNL     1       7.348   5.985  18.688  0.00  0.00    +0.000 A 
BRANCH  19  25
ATOM     25  C   UNL     1       5.252   4.581  18.067  0.00  0.00    +0.000 C 
BRANCH  25  26
ATOM     26  P   UNL     1       3.430   4.408  19.259  0.00  0.00    +0.000 P 
ATOM     27  O   UNL     1       2.496   3.582  18.353  0.00  0.00    +0.000 OA
BRANCH  26  28
ATOM     28  O   UNL     1       2.990   5.855  18.422  0.00  0.00    +0.000 OA
BRANCH  28  30
ATOM     29  C   UNL     1       2.410   8.124  17.737  0.00  0.00    +0.000 C 
ATOM     30  C   UNL     1       2.519   7.106  18.850  0.00  0.00    +0.000 C 
ENDBRANCH  28  30
ENDBRANCH  26  28
BRANCH  26  31
ATOM     31  O   UNL     1       3.871   2.959  20.096  0.00  0.00    +0.000 OA
BRANCH  31  32
ATOM     32  C   UNL     1       2.907   2.288  20.895  0.00  0.00    +0.000 C 
ATOM     33  C   UNL     1       2.132   3.266  21.750  0.00  0.00    +0.000 C 
ENDBRANCH  31  32
ENDBRANCH  26  31
ENDBRANCH  25  26
ENDBRANCH  19  25
ENDBRANCH   1  22
TORSDOF 8
ENDMDL
