MODEL 1
REMARK VINA RESULT:      -8.5      0.000      0.000
REMARK  Name = 
REMARK  10 active torsions:
REMARK  status: ('A' for Active; 'I' for Inactive)
REMARK    1  A    between atoms: C_2  and  C_3
REMARK    2  A    between atoms: C_2  and  C_13
REMARK    3  A    between atoms: C_4  and  C_5
REMARK    4  A    between atoms: C_7  and  O_8
REMARK    5  A    between atoms: C_11  and  O_12
REMARK    6  A    between atoms: C_13  and  C_14
REMARK    7  A    between atoms: C_14  and  C_16
REMARK    8  A    between atoms: C_17  and  C_18
REMARK    9  A    between atoms: C_20  and  O_21
REMARK   10  A    between atoms: C_24  and  O_25
REMARK                            x       y       z     vdW  Elec       q    Type
REMARK                         _______ _______ _______ _____ _____    ______ ____
ROOT
ATOM      1  C   UNL     1       7.616   6.647  18.595  0.00  0.00    +0.000 C 
ENDROOT
BRANCH   1   3
ATOM      2  O   UNL     1       7.995   4.552  17.537  0.00  0.00    +0.000 OA
ATOM      3  C   UNL     1       7.235   5.230  18.230  0.00  0.00    +0.000 C 
BRANCH   3   4
ATOM      4  C   UNL     1       5.972   4.644  18.756  0.00  0.00    +0.000 C 
ATOM      5  C   UNL     1       4.797   5.279  18.644  0.00  0.00    +0.000 C 
BRANCH   5   6
ATOM      6  C   UNL     1       3.590   4.650  19.190  0.00  0.00    +0.000 A 
ATOM      7  C   UNL     1       3.322   3.311  18.881  0.00  0.00    +0.000 A 
ATOM      8  C   UNL     1       2.134   2.727  19.318  0.00  0.00    +0.000 A 
ATOM      9  C   UNL     1       1.210   3.451  20.062  0.00  0.00    +0.000 A 
ATOM     10  C   UNL     1       1.472   4.785  20.381  0.00  0.00    +0.000 A 
ATOM     11  C   UNL     1       2.658   5.378  19.945  0.00  0.00    +0.000 A 
BRANCH   8  12
ATOM     12  O   UNL     1       1.827   1.431  19.021  0.00  0.00    +0.000 OA
ATOM     13  H   UNL     1       0.890   1.381  18.771  0.00  0.00    +0.000 HD
ENDBRANCH   8  12
BRANCH  11  14
ATOM     14  O   UNL     1       2.909   6.691  20.238  0.00  0.00    +0.000 OA
ATOM     15  H   UNL     1       2.426   7.254  19.612  0.00  0.00    +0.000 HD
ENDBRANCH  11  14
ENDBRANCH   5   6
ENDBRANCH   3   4
ENDBRANCH   1   3
BRANCH   1  16
ATOM     16  C   UNL     1       7.351   7.715  17.564  0.00  0.00    +0.000 C 
ATOM     17  O   UNL     1       6.624   7.511  16.594  0.00  0.00    +0.000 OA
BRANCH  16  18
ATOM     18  C   UNL     1       8.005   9.041  17.760  0.00  0.00    +0.000 C 
ATOM     19  C   UNL     1       8.825   9.229  18.806  0.00  0.00    +0.000 C 
BRANCH  19  20
ATOM     20  C   UNL     1       9.489  10.502  19.148  0.00  0.00    +0.000 A 
ATOM     21  C   UNL     1      10.000  11.343  18.146  0.00  0.00    +0.000 A 
ATOM     22  C   UNL     1      10.567  12.570  18.481  0.00  0.00    +0.000 A 
ATOM     23  C   UNL     1      10.630  12.992  19.801  0.00  0.00    +0.000 A 
ATOM     24  C   UNL     1      10.113  12.180  20.810  0.00  0.00    +0.000 A 
ATOM     25  C   UNL     1       9.542  10.950  20.481  0.00  0.00    +0.000 A 
BRANCH  22  26
ATOM     26  O   UNL     1      11.065  13.403  17.522  0.00  0.00    +0.000 OA
ATOM     27  H   UNL     1      11.172  12.905  16.696  0.00  0.00    +0.000 HD
ENDBRANCH  22  26
BRANCH  25  28
ATOM     28  O   UNL     1       9.021  10.165  21.475  0.00  0.00    +0.000 OA
ATOM     29  H   UNL     1       9.255   9.237  21.304  0.00  0.00    +0.000 HD
ENDBRANCH  25  28
ENDBRANCH  19  20
ENDBRANCH  16  18
ENDBRANCH   1  16
TORSDOF 10
ENDMDL
MODEL 2
REMARK VINA RESULT:      -8.4      0.894      9.439
REMARK  Name = 
REMARK  10 active torsions:
REMARK  status: ('A' for Active; 'I' for Inactive)
REMARK    1  A    between atoms: C_2  and  C_3
REMARK    2  A    between atoms: C_2  and  C_13
REMARK    3  A    between atoms: C_4  and  C_5
REMARK    4  A    between atoms: C_7  and  O_8
REMARK    5  A    between atoms: C_11  and  O_12
REMARK    6  A    between atoms: C_13  and  C_14
REMARK    7  A    between atoms: C_14  and  C_16
REMARK    8  A    between atoms: C_17  and  C_18
REMARK    9  A    between atoms: C_20  and  O_21
REMARK   10  A    between atoms: C_24  and  O_25
REMARK                            x       y       z     vdW  Elec       q    Type
REMARK                         _______ _______ _______ _____ _____    ______ ____
ROOT
ATOM      1  C   UNL     1       7.477   6.115  18.579  0.00  0.00    +0.000 C 
ENDROOT
BRANCH   1   3
ATOM      2  O   UNL     1       7.381   7.695  16.804  0.00  0.00    +0.000 OA
ATOM      3  C   UNL     1       7.820   7.435  17.925  0.00  0.00    +0.000 C 
BRANCH   3   4
ATOM      4  C   UNL     1       8.638   8.436  18.663  0.00  0.00    +0.000 C 
ATOM      5  C   UNL     1       8.645   9.733  18.323  0.00  0.00    +0.000 C 
BRANCH   5   6
ATOM      6  C   UNL     1       9.480  10.666  19.085  0.00  0.00    +0.000 A 
ATOM      7  C   UNL     1       9.151  10.941  20.418  0.00  0.00    +0.000 A 
ATOM      8  C   UNL     1       9.881  11.894  21.126  0.00  0.00    +0.000 A 
ATOM      9  C   UNL     1      10.937  12.576  20.532  0.00  0.00    +0.000 A 
ATOM     10  C   UNL     1      11.278  12.303  19.206  0.00  0.00    +0.000 A 
ATOM     11  C   UNL     1      10.550  11.352  18.489  0.00  0.00    +0.000 A 
BRANCH   8  12
ATOM     12  O   UNL     1       9.578  12.204  22.420  0.00  0.00    +0.000 OA
ATOM     13  H   UNL     1      10.202  11.743  23.005  0.00  0.00    +0.000 HD
ENDBRANCH   8  12
BRANCH  11  14
ATOM     14  O   UNL     1      10.867  11.097  17.183  0.00  0.00    +0.000 OA
ATOM     15  H   UNL     1      10.636  10.178  16.974  0.00  0.00    +0.000 HD
ENDBRANCH  11  14
ENDBRANCH   5   6
ENDBRANCH   3   4
ENDBRANCH   1   3
BRANCH   1  16
ATOM     16  C   UNL     1       7.032   4.996  17.671  0.00  0.00    +0.000 C 
ATOM     17  O   UNL     1       7.706   4.640  16.706  0.00  0.00    +0.000 OA
BRANCH  16  18
ATOM     18  C   UNL     1       5.736   4.327  17.984  0.00  0.00    +0.000 C 
ATOM     19  C   UNL     1       4.738   5.037  18.533  0.00  0.00    +0.000 C 
BRANCH  19  20
ATOM     20  C   UNL     1       3.431   4.488  18.943  0.00  0.00    +0.000 A 
ATOM     21  C   UNL     1       3.013   3.218  18.514  0.00  0.00    +0.000 A 
ATOM     22  C   UNL     1       1.805   2.688  18.961  0.00  0.00    +0.000 A 
ATOM     23  C   UNL     1       0.997   3.394  19.841  0.00  0.00    +0.000 A 
ATOM     24  C   UNL     1       1.401   4.650  20.293  0.00  0.00    +0.000 A 
ATOM     25  C   UNL     1       2.611   5.185  19.850  0.00  0.00    +0.000 A 
BRANCH  22  26
ATOM     26  O   UNL     1       1.383   1.454  18.560  0.00  0.00    +0.000 OA
ATOM     27  H   UNL     1       0.706   1.561  17.873  0.00  0.00    +0.000 HD
ENDBRANCH  22  26
BRANCH  25  28
ATOM     28  O   UNL     1       3.011   6.412  20.311  0.00  0.00    +0.000 OA
ATOM     29  H   UNL     1       2.300   6.796  20.851  0.00  0.00    +0.000 HD
ENDBRANCH  25  28
ENDBRANCH  19  20
ENDBRANCH  16  18
ENDBRANCH   1  16
TORSDOF 10
ENDMDL
MODEL 3
REMARK VINA RESULT:      -8.3      1.582      1.836
REMARK  Name = 
REMARK  10 active torsions:
REMARK  status: ('A' for Active; 'I' for Inactive)
REMARK    1  A    between atoms: C_2  and  C_3
REMARK    2  A    between atoms: C_2  and  C_13
REMARK    3  A    between atoms: C_4  and  C_5
REMARK    4  A    between atoms: C_7  and  O_8
REMARK    5  A    between atoms: C_11  and  O_12
REMARK    6  A    between atoms: C_13  and  C_14
REMARK    7  A    between atoms: C_14  and  C_16
REMARK    8  A    between atoms: C_17  and  C_18
REMARK    9  A    between atoms: C_20  and  O_21
REMARK   10  A    between atoms: C_24  and  O_25
REMARK                            x       y       z     vdW  Elec       q    Type
REMARK                         _______ _______ _______ _____ _____    ______ ____
ROOT
ATOM      1  C   UNL     1       7.873   6.655  18.858  0.00  0.00    +0.000 C 
ENDROOT
BRANCH   1   3
ATOM      2  O   UNL     1       8.430   4.397  18.364  0.00  0.00    +0.000 OA
ATOM      3  C   UNL     1       7.536   5.197  18.643  0.00  0.00    +0.000 C 
BRANCH   3   4
ATOM      4  C   UNL     1       6.135   4.726  18.824  0.00  0.00    +0.000 C 
ATOM      5  C   UNL     1       5.555   3.881  17.959  0.00  0.00    +0.000 C 
BRANCH   5   6
ATOM      6  C   UNL     1       4.170   3.462  18.191  0.00  0.00    +0.000 A 
ATOM      7  C   UNL     1       3.138   4.107  17.498  0.00  0.00    +0.000 A 
ATOM      8  C   UNL     1       1.812   3.782  17.775  0.00  0.00    +0.000 A 
ATOM      9  C   UNL     1       1.493   2.822  18.728  0.00  0.00    +0.000 A 
ATOM     10  C   UNL     1       2.515   2.167  19.419  0.00  0.00    +0.000 A 
ATOM     11  C   UNL     1       3.846   2.489  19.150  0.00  0.00    +0.000 A 
BRANCH   8  12
ATOM     12  O   UNL     1       0.779   4.402  17.134  0.00  0.00    +0.000 OA
ATOM     13  H   UNL     1       0.946   5.359  17.127  0.00  0.00    +0.000 HD
ENDBRANCH   8  12
BRANCH  11  14
ATOM     14  O   UNL     1       4.849   1.866  19.839  0.00  0.00    +0.000 OA
ATOM     15  H   UNL     1       4.609   1.820  20.779  0.00  0.00    +0.000 HD
ENDBRANCH  11  14
ENDBRANCH   5   6
ENDBRANCH   3   4
ENDBRANCH   1   3
BRANCH   1  16
ATOM     16  C   UNL     1       7.816   7.557  17.650  0.00  0.00    +0.000 C 
ATOM     17  O   UNL     1       7.627   7.113  16.520  0.00  0.00    +0.000 OA
BRANCH  16  18
ATOM     18  C   UNL     1       7.996   9.021  17.873  0.00  0.00    +0.000 C 
ATOM     19  C   UNL     1       9.022   9.458  18.621  0.00  0.00    +0.000 C 
BRANCH  19  20
ATOM     20  C   UNL     1       9.282  10.869  18.966  0.00  0.00    +0.000 A 
ATOM     21  C   UNL     1       9.357  11.855  17.968  0.00  0.00    +0.000 A 
ATOM     22  C   UNL     1       9.540  13.191  18.315  0.00  0.00    +0.000 A 
ATOM     23  C   UNL     1       9.642  13.578  19.644  0.00  0.00    +0.000 A 
ATOM     24  C   UNL     1       9.553  12.617  20.651  0.00  0.00    +0.000 A 
ATOM     25  C   UNL     1       9.367  11.277  20.310  0.00  0.00    +0.000 A 
BRANCH  22  26
ATOM     26  O   UNL     1       9.611  14.165  17.362  0.00  0.00    +0.000 OA
ATOM     27  H   UNL     1       8.712  14.418  17.102  0.00  0.00    +0.000 HD
ENDBRANCH  22  26
BRANCH  25  28
ATOM     28  O   UNL     1       9.263  10.339  21.304  0.00  0.00    +0.000 OA
ATOM     29  H   UNL     1       8.743   9.586  20.978  0.00  0.00    +0.000 HD
ENDBRANCH  25  28
ENDBRANCH  19  20
ENDBRANCH  16  18
ENDBRANCH   1  16
TORSDOF 10
ENDMDL
MODEL 4
REMARK VINA RESULT:      -8.2      3.750      6.621
REMARK  Name = 
REMARK  10 active torsions:
REMARK  status: ('A' for Active; 'I' for Inactive)
REMARK    1  A    between atoms: C_2  and  C_3
REMARK    2  A    between atoms: C_2  and  C_13
REMARK    3  A    between atoms: C_4  and  C_5
REMARK    4  A    between atoms: C_7  and  O_8
REMARK    5  A    between atoms: C_11  and  O_12
REMARK    6  A    between atoms: C_13  and  C_14
REMARK    7  A    between atoms: C_14  and  C_16
REMARK    8  A    between atoms: C_17  and  C_18
REMARK    9  A    between atoms: C_20  and  O_21
REMARK   10  A    between atoms: C_24  and  O_25
REMARK                            x       y       z     vdW  Elec       q    Type
REMARK                         _______ _______ _______ _____ _____    ______ ____
ROOT
ATOM      1  C   UNL     1       1.351   2.913  19.531  0.00  0.00    +0.000 C 
ENDROOT
BRANCH   1   3
ATOM      2  O   UNL     1       2.026   3.527  21.726  0.00  0.00    +0.000 OA
ATOM      3  C   UNL     1       1.540   3.902  20.659  0.00  0.00    +0.000 C 
BRANCH   3   4
ATOM      4  C   UNL     1       1.189   5.334  20.455  0.00  0.00    +0.000 C 
ATOM      5  C   UNL     1       2.127   6.288  20.372  0.00  0.00    +0.000 C 
BRANCH   5   6
ATOM      6  C   UNL     1       1.714   7.681  20.179  0.00  0.00    +0.000 A 
ATOM      7  C   UNL     1       1.050   8.344  21.218  0.00  0.00    +0.000 A 
ATOM      8  C   UNL     1       0.571   9.638  21.016  0.00  0.00    +0.000 A 
ATOM      9  C   UNL     1       0.746  10.285  19.799  0.00  0.00    +0.000 A 
ATOM     10  C   UNL     1       1.413   9.635  18.759  0.00  0.00    +0.000 A 
ATOM     11  C   UNL     1       1.893   8.339  18.952  0.00  0.00    +0.000 A 
BRANCH   8  12
ATOM     12  O   UNL     1      -0.098  10.309  21.997  0.00  0.00    +0.000 OA
ATOM     13  H   UNL     1       0.550  10.749  22.572  0.00  0.00    +0.000 HD
ENDBRANCH   8  12
BRANCH  11  14
ATOM     14  O   UNL     1       2.530   7.690  17.929  0.00  0.00    +0.000 OA
ATOM     15  H   UNL     1       2.147   7.976  17.084  0.00  0.00    +0.000 HD
ENDBRANCH  11  14
ENDBRANCH   5   6
ENDBRANCH   3   4
ENDBRANCH   1   3
BRANCH   1  16
ATOM     16  C   UNL     1       2.391   2.913  18.439  0.00  0.00    +0.000 C 
ATOM     17  O   UNL     1       2.178   2.399  17.342  0.00  0.00    +0.000 OA
BRANCH  16  18
ATOM     18  C   UNL     1       3.701   3.563  18.733  0.00  0.00    +0.000 C 
ATOM     19  C   UNL     1       4.049   4.682  18.078  0.00  0.00    +0.000 C 
BRANCH  19  20
ATOM     20  C   UNL     1       5.333   5.392  18.230  0.00  0.00    +0.000 A 
ATOM     21  C   UNL     1       6.201   5.097  19.295  0.00  0.00    +0.000 A 
ATOM     22  C   UNL     1       7.437   5.730  19.389  0.00  0.00    +0.000 A 
ATOM     23  C   UNL     1       7.842   6.654  18.436  0.00  0.00    +0.000 A 
ATOM     24  C   UNL     1       7.004   6.949  17.361  0.00  0.00    +0.000 A 
ATOM     25  C   UNL     1       5.764   6.316  17.260  0.00  0.00    +0.000 A 
BRANCH  22  26
ATOM     26  O   UNL     1       8.296   5.454  20.413  0.00  0.00    +0.000 OA
ATOM     27  H   UNL     1       8.663   6.287  20.749  0.00  0.00    +0.000 HD
ENDBRANCH  22  26
BRANCH  25  28
ATOM     28  O   UNL     1       4.952   6.598  16.193  0.00  0.00    +0.000 OA
ATOM     29  H   UNL     1       4.097   6.152  16.317  0.00  0.00    +0.000 HD
ENDBRANCH  25  28
ENDBRANCH  19  20
ENDBRANCH  16  18
ENDBRANCH   1  16
TORSDOF 10
ENDMDL
MODEL 5
REMARK VINA RESULT:      -8.1      1.454      9.647
REMARK  Name = 
REMARK  10 active torsions:
REMARK  status: ('A' for Active; 'I' for Inactive)
REMARK    1  A    between atoms: C_2  and  C_3
REMARK    2  A    between atoms: C_2  and  C_13
REMARK    3  A    between atoms: C_4  and  C_5
REMARK    4  A    between atoms: C_7  and  O_8
REMARK    5  A    between atoms: C_11  and  O_12
REMARK    6  A    between atoms: C_13  and  C_14
REMARK    7  A    between atoms: C_14  and  C_16
REMARK    8  A    between atoms: C_17  and  C_18
REMARK    9  A    between atoms: C_20  and  O_21
REMARK   10  A    between atoms: C_24  and  O_25
REMARK                            x       y       z     vdW  Elec       q    Type
REMARK                         _______ _______ _______ _____ _____    ______ ____
ROOT
ATOM      1  C   UNL     1       7.985   6.447  18.738  0.00  0.00    +0.000 C 
ENDROOT
BRANCH   1   3
ATOM      2  O   UNL     1       7.079   7.675  16.915  0.00  0.00    +0.000 OA
ATOM      3  C   UNL     1       7.823   7.692  17.896  0.00  0.00    +0.000 C 
BRANCH   3   4
ATOM      4  C   UNL     1       8.520   8.948  18.289  0.00  0.00    +0.000 C 
ATOM      5  C   UNL     1       8.341  10.096  17.619  0.00  0.00    +0.000 C 
BRANCH   5   6
ATOM      6  C   UNL     1       9.065  11.295  18.053  0.00  0.00    +0.000 A 
ATOM      7  C   UNL     1      10.154  11.156  18.922  0.00  0.00    +0.000 A 
ATOM      8  C   UNL     1      10.793  12.292  19.414  0.00  0.00    +0.000 A 
ATOM      9  C   UNL     1      10.371  13.566  19.052  0.00  0.00    +0.000 A 
ATOM     10  C   UNL     1       9.291  13.715  18.180  0.00  0.00    +0.000 A 
ATOM     11  C   UNL     1       8.643  12.582  17.685  0.00  0.00    +0.000 A 
BRANCH   8  12
ATOM     12  O   UNL     1      11.845  12.198  20.278  0.00  0.00    +0.000 OA
ATOM     13  H   UNL     1      11.836  11.317  20.687  0.00  0.00    +0.000 HD
ENDBRANCH   8  12
BRANCH  11  14
ATOM     14  O   UNL     1       7.571  12.724  16.847  0.00  0.00    +0.000 OA
ATOM     15  H   UNL     1       7.541  11.968  16.239  0.00  0.00    +0.000 HD
ENDBRANCH  11  14
ENDBRANCH   5   6
ENDBRANCH   3   4
ENDBRANCH   1   3
BRANCH   1  16
ATOM     16  C   UNL     1       7.277   5.203  18.264  0.00  0.00    +0.000 C 
ATOM     17  O   UNL     1       7.725   4.511  17.351  0.00  0.00    +0.000 OA
BRANCH  16  18
ATOM     18  C   UNL     1       6.002   4.833  18.944  0.00  0.00    +0.000 C 
ATOM     19  C   UNL     1       5.122   4.034  18.318  0.00  0.00    +0.000 C 
BRANCH  19  20
ATOM     20  C   UNL     1       3.804   3.638  18.851  0.00  0.00    +0.000 A 
ATOM     21  C   UNL     1       2.996   4.559  19.538  0.00  0.00    +0.000 A 
ATOM     22  C   UNL     1       1.728   4.188  19.979  0.00  0.00    +0.000 A 
ATOM     23  C   UNL     1       1.235   2.912  19.744  0.00  0.00    +0.000 A 
ATOM     24  C   UNL     1       2.014   1.988  19.049  0.00  0.00    +0.000 A 
ATOM     25  C   UNL     1       3.284   2.355  18.603  0.00  0.00    +0.000 A 
BRANCH  22  26
ATOM     26  O   UNL     1       0.926   5.068  20.645  0.00  0.00    +0.000 OA
ATOM     27  H   UNL     1       0.953   4.865  21.593  0.00  0.00    +0.000 HD
ENDBRANCH  22  26
BRANCH  25  28
ATOM     28  O   UNL     1       4.038   1.448  17.905  0.00  0.00    +0.000 OA
ATOM     29  H   UNL     1       3.982   0.582  18.344  0.00  0.00    +0.000 HD
ENDBRANCH  25  28
ENDBRANCH  19  20
ENDBRANCH  16  18
ENDBRANCH   1  16
TORSDOF 10
ENDMDL
MODEL 6
REMARK VINA RESULT:      -8.1      1.427      9.561
REMARK  Name = 
REMARK  10 active torsions:
REMARK  status: ('A' for Active; 'I' for Inactive)
REMARK    1  A    between atoms: C_2  and  C_3
REMARK    2  A    between atoms: C_2  and  C_13
REMARK    3  A    between atoms: C_4  and  C_5
REMARK    4  A    between atoms: C_7  and  O_8
REMARK    5  A    between atoms: C_11  and  O_12
REMARK    6  A    between atoms: C_13  and  C_14
REMARK    7  A    between atoms: C_14  and  C_16
REMARK    8  A    between atoms: C_17  and  C_18
REMARK    9  A    between atoms: C_20  and  O_21
REMARK   10  A    between atoms: C_24  and  O_25
REMARK                            x       y       z     vdW  Elec       q    Type
REMARK                         _______ _______ _______ _____ _____    ______ ____
ROOT
ATOM      1  C   UNL     1       7.658   6.044  17.969  0.00  0.00    +0.000 C 
ENDROOT
BRANCH   1   3
ATOM      2  O   UNL     1       6.871   7.952  16.788  0.00  0.00    +0.000 OA
ATOM      3  C   UNL     1       7.604   7.528  17.682  0.00  0.00    +0.000 C 
BRANCH   3   4
ATOM      4  C   UNL     1       8.393   8.473  18.519  0.00  0.00    +0.000 C 
ATOM      5  C   UNL     1       8.697   9.709  18.095  0.00  0.00    +0.000 C 
BRANCH   5   6
ATOM      6  C   UNL     1       9.484  10.588  18.965  0.00  0.00    +0.000 A 
ATOM      7  C   UNL     1       9.117  10.721  20.310  0.00  0.00    +0.000 A 
ATOM      8  C   UNL     1       9.800  11.622  21.125  0.00  0.00    +0.000 A 
ATOM      9  C   UNL     1      10.846  12.390  20.626  0.00  0.00    +0.000 A 
ATOM     10  C   UNL     1      11.224  12.259  19.289  0.00  0.00    +0.000 A 
ATOM     11  C   UNL     1      10.543  11.361  18.465  0.00  0.00    +0.000 A 
BRANCH   8  12
ATOM     12  O   UNL     1       9.459  11.794  22.435  0.00  0.00    +0.000 OA
ATOM     13  H   UNL     1       8.813  12.517  22.497  0.00  0.00    +0.000 HD
ENDBRANCH   8  12
BRANCH  11  14
ATOM     14  O   UNL     1      10.897  11.244  17.148  0.00  0.00    +0.000 OA
ATOM     15  H   UNL     1      11.782  10.851  17.091  0.00  0.00    +0.000 HD
ENDBRANCH  11  14
ENDBRANCH   5   6
ENDBRANCH   3   4
ENDBRANCH   1   3
BRANCH   1  16
ATOM     16  C   UNL     1       7.141   5.586  19.309  0.00  0.00    +0.000 C 
ATOM     17  O   UNL     1       7.878   5.483  20.287  0.00  0.00    +0.000 OA
BRANCH  16  18
ATOM     18  C   UNL     1       5.689   5.258  19.412  0.00  0.00    +0.000 C 
ATOM     19  C   UNL     1       5.254   4.043  19.041  0.00  0.00    +0.000 C 
BRANCH  19  20
ATOM     20  C   UNL     1       3.844   3.609  19.039  0.00  0.00    +0.000 A 
ATOM     21  C   UNL     1       2.872   4.306  19.774  0.00  0.00    +0.000 A 
ATOM     22  C   UNL     1       1.535   3.922  19.711  0.00  0.00    +0.000 A 
ATOM     23  C   UNL     1       1.134   2.855  18.919  0.00  0.00    +0.000 A 
ATOM     24  C   UNL     1       2.080   2.160  18.167  0.00  0.00    +0.000 A 
ATOM     25  C   UNL     1       3.421   2.541  18.225  0.00  0.00    +0.000 A 
BRANCH  22  26
ATOM     26  O   UNL     1       0.575   4.588  20.415  0.00  0.00    +0.000 OA
ATOM     27  H   UNL     1       0.965   5.387  20.803  0.00  0.00    +0.000 HD
ENDBRANCH  22  26
BRANCH  25  28
ATOM     28  O   UNL     1       4.344   1.865  17.471  0.00  0.00    +0.000 OA
ATOM     29  H   UNL     1       4.009   0.973  17.282  0.00  0.00    +0.000 HD
ENDBRANCH  25  28
ENDBRANCH  19  20
ENDBRANCH  16  18
ENDBRANCH   1  16
TORSDOF 10
ENDMDL
MODEL 7
REMARK VINA RESULT:      -8.1      1.494      2.378
REMARK  Name = 
REMARK  10 active torsions:
REMARK  status: ('A' for Active; 'I' for Inactive)
REMARK    1  A    between atoms: C_2  and  C_3
REMARK    2  A    between atoms: C_2  and  C_13
REMARK    3  A    between atoms: C_4  and  C_5
REMARK    4  A    between atoms: C_7  and  O_8
REMARK    5  A    between atoms: C_11  and  O_12
REMARK    6  A    between atoms: C_13  and  C_14
REMARK    7  A    between atoms: C_14  and  C_16
REMARK    8  A    between atoms: C_17  and  C_18
REMARK    9  A    between atoms: C_20  and  O_21
REMARK   10  A    between atoms: C_24  and  O_25
REMARK                            x       y       z     vdW  Elec       q    Type
REMARK                         _______ _______ _______ _____ _____    ______ ____
ROOT
ATOM      1  C   UNL     1       7.715   6.034  18.479  0.00  0.00    +0.000 C 
ENDROOT
BRANCH   1   3
ATOM      2  O   UNL     1       6.949   4.649  16.705  0.00  0.00    +0.000 OA
ATOM      3  C   UNL     1       6.698   5.140  17.806  0.00  0.00    +0.000 C 
BRANCH   3   4
ATOM      4  C   UNL     1       5.424   4.813  18.502  0.00  0.00    +0.000 C 
ATOM      5  C   UNL     1       4.607   3.843  18.065  0.00  0.00    +0.000 C 
BRANCH   5   6
ATOM      6  C   UNL     1       3.362   3.576  18.791  0.00  0.00    +0.000 A 
ATOM      7  C   UNL     1       3.379   3.571  20.191  0.00  0.00    +0.000 A 
ATOM      8  C   UNL     1       2.225   3.230  20.894  0.00  0.00    +0.000 A 
ATOM      9  C   UNL     1       1.052   2.897  20.228  0.00  0.00    +0.000 A 
ATOM     10  C   UNL     1       1.023   2.906  18.832  0.00  0.00    +0.000 A 
ATOM     11  C   UNL     1       2.175   3.244  18.120  0.00  0.00    +0.000 A 
BRANCH   8  12
ATOM     12  O   UNL     1       2.208   3.195  22.258  0.00  0.00    +0.000 OA
ATOM     13  H   UNL     1       1.954   4.072  22.590  0.00  0.00    +0.000 HD
ENDBRANCH   8  12
BRANCH  11  14
ATOM     14  O   UNL     1       2.157   3.234  16.752  0.00  0.00    +0.000 OA
ATOM     15  H   UNL     1       2.064   4.145  16.429  0.00  0.00    +0.000 HD
ENDBRANCH  11  14
ENDBRANCH   5   6
ENDBRANCH   3   4
ENDBRANCH   1   3
BRANCH   1  16
ATOM     16  C   UNL     1       7.851   7.438  17.947  0.00  0.00    +0.000 C 
ATOM     17  O   UNL     1       7.397   7.762  16.851  0.00  0.00    +0.000 OA
BRANCH  16  18
ATOM     18  C   UNL     1       8.561   8.435  18.801  0.00  0.00    +0.000 C 
ATOM     19  C   UNL     1       8.730   9.690  18.356  0.00  0.00    +0.000 C 
BRANCH  19  20
ATOM     20  C   UNL     1       9.460  10.754  19.072  0.00  0.00    +0.000 A 
ATOM     21  C   UNL     1       9.176  11.048  20.416  0.00  0.00    +0.000 A 
ATOM     22  C   UNL     1       9.917  12.012  21.095  0.00  0.00    +0.000 A 
ATOM     23  C   UNL     1      10.952  12.692  20.467  0.00  0.00    +0.000 A 
ATOM     24  C   UNL     1      11.261  12.404  19.139  0.00  0.00    +0.000 A 
ATOM     25  C   UNL     1      10.523  11.438  18.453  0.00  0.00    +0.000 A 
BRANCH  22  26
ATOM     26  O   UNL     1       9.660  12.308  22.402  0.00  0.00    +0.000 OA
ATOM     27  H   UNL     1      10.427  12.055  22.939  0.00  0.00    +0.000 HD
ENDBRANCH  22  26
BRANCH  25  28
ATOM     28  O   UNL     1      10.843  11.147  17.153  0.00  0.00    +0.000 OA
ATOM     29  H   UNL     1      10.025  10.994  16.650  0.00  0.00    +0.000 HD
ENDBRANCH  25  28
ENDBRANCH  19  20
ENDBRANCH  16  18
ENDBRANCH   1  16
TORSDOF 10
ENDMDL
MODEL 8
REMARK VINA RESULT:      -8.1      4.457      5.619
REMARK  Name = 
REMARK  10 active torsions:
REMARK  status: ('A' for Active; 'I' for Inactive)
REMARK    1  A    between atoms: C_2  and  C_3
REMARK    2  A    between atoms: C_2  and  C_13
REMARK    3  A    between atoms: C_4  and  C_5
REMARK    4  A    between atoms: C_7  and  O_8
REMARK    5  A    between atoms: C_11  and  O_12
REMARK    6  A    between atoms: C_13  and  C_14
REMARK    7  A    between atoms: C_14  and  C_16
REMARK    8  A    between atoms: C_17  and  C_18
REMARK    9  A    between atoms: C_20  and  O_21
REMARK   10  A    between atoms: C_24  and  O_25
REMARK                            x       y       z     vdW  Elec       q    Type
REMARK                         _______ _______ _______ _____ _____    ______ ____
ROOT
ATOM      1  C   UNL     1       6.934   6.027  17.151  0.00  0.00    +0.000 C 
ENDROOT
BRANCH   1   3
ATOM      2  O   UNL     1       7.931   4.437  18.611  0.00  0.00    +0.000 OA
ATOM      3  C   UNL     1       6.885   4.953  18.214  0.00  0.00    +0.000 C 
BRANCH   3   4
ATOM      4  C   UNL     1       5.580   4.565  18.815  0.00  0.00    +0.000 C 
ATOM      5  C   UNL     1       4.729   3.741  18.187  0.00  0.00    +0.000 C 
BRANCH   5   6
ATOM      6  C   UNL     1       3.455   3.404  18.831  0.00  0.00    +0.000 A 
ATOM      7  C   UNL     1       3.426   3.201  20.216  0.00  0.00    +0.000 A 
ATOM      8  C   UNL     1       2.243   2.791  20.828  0.00  0.00    +0.000 A 
ATOM      9  C   UNL     1       1.085   2.585  20.086  0.00  0.00    +0.000 A 
ATOM     10  C   UNL     1       1.103   2.793  18.705  0.00  0.00    +0.000 A 
ATOM     11  C   UNL     1       2.284   3.200  18.084  0.00  0.00    +0.000 A 
BRANCH   8  12
ATOM     12  O   UNL     1       2.179   2.563  22.172  0.00  0.00    +0.000 OA
ATOM     13  H   UNL     1       1.400   2.014  22.359  0.00  0.00    +0.000 HD
ENDBRANCH   8  12
BRANCH  11  14
ATOM     14  O   UNL     1       2.311   3.385  16.729  0.00  0.00    +0.000 OA
ATOM     15  H   UNL     1       1.829   2.661  16.299  0.00  0.00    +0.000 HD
ENDBRANCH  11  14
ENDBRANCH   5   6
ENDBRANCH   3   4
ENDBRANCH   1   3
BRANCH   1  16
ATOM     16  C   UNL     1       5.614   6.513  16.607  0.00  0.00    +0.000 C 
ATOM     17  O   UNL     1       5.217   6.192  15.489  0.00  0.00    +0.000 OA
BRANCH  16  18
ATOM     18  C   UNL     1       4.795   7.405  17.479  0.00  0.00    +0.000 C 
ATOM     19  C   UNL     1       3.476   7.185  17.601  0.00  0.00    +0.000 C 
BRANCH  19  20
ATOM     20  C   UNL     1       2.544   8.021  18.382  0.00  0.00    +0.000 A 
ATOM     21  C   UNL     1       1.930   9.147  17.809  0.00  0.00    +0.000 A 
ATOM     22  C   UNL     1       1.005   9.889  18.538  0.00  0.00    +0.000 A 
ATOM     23  C   UNL     1       0.662   9.530  19.835  0.00  0.00    +0.000 A 
ATOM     24  C   UNL     1       1.247   8.405  20.416  0.00  0.00    +0.000 A 
ATOM     25  C   UNL     1       2.174   7.657  19.689  0.00  0.00    +0.000 A 
BRANCH  22  26
ATOM     26  O   UNL     1       0.395  10.984  17.999  0.00  0.00    +0.000 OA
ATOM     27  H   UNL     1       0.930  11.770  18.191  0.00  0.00    +0.000 HD
ENDBRANCH  22  26
BRANCH  25  28
ATOM     28  O   UNL     1       2.732   6.543  20.260  0.00  0.00    +0.000 OA
ATOM     29  H   UNL     1       2.034   5.888  20.428  0.00  0.00    +0.000 HD
ENDBRANCH  25  28
ENDBRANCH  19  20
ENDBRANCH  16  18
ENDBRANCH   1  16
TORSDOF 10
ENDMDL
MODEL 9
REMARK VINA RESULT:      -8.0      1.121      9.569
REMARK  Name = 
REMARK  10 active torsions:
REMARK  status: ('A' for Active; 'I' for Inactive)
REMARK    1  A    between atoms: C_2  and  C_3
REMARK    2  A    between atoms: C_2  and  C_13
REMARK    3  A    between atoms: C_4  and  C_5
REMARK    4  A    between atoms: C_7  and  O_8
REMARK    5  A    between atoms: C_11  and  O_12
REMARK    6  A    between atoms: C_13  and  C_14
REMARK    7  A    between atoms: C_14  and  C_16
REMARK    8  A    between atoms: C_17  and  C_18
REMARK    9  A    between atoms: C_20  and  O_21
REMARK   10  A    between atoms: C_24  and  O_25
REMARK                            x       y       z     vdW  Elec       q    Type
REMARK                         _______ _______ _______ _____ _____    ______ ____
ROOT
ATOM      1  C   UNL     1       6.663   7.250  16.941  0.00  0.00    +0.000 C 
ENDROOT
BRANCH   1   3
ATOM      2  O   UNL     1       8.223   6.745  18.662  0.00  0.00    +0.000 OA
ATOM      3  C   UNL     1       7.729   7.618  17.948  0.00  0.00    +0.000 C 
BRANCH   3   4
ATOM      4  C   UNL     1       8.214   9.023  18.033  0.00  0.00    +0.000 C 
ATOM      5  C   UNL     1       9.023   9.433  19.020  0.00  0.00    +0.000 C 
BRANCH   5   6
ATOM      6  C   UNL     1       9.459  10.833  19.051  0.00  0.00    +0.000 A 
ATOM      7  C   UNL     1       9.737  11.485  17.844  0.00  0.00    +0.000 A 
ATOM      8  C   UNL     1      10.239  12.786  17.862  0.00  0.00    +0.000 A 
ATOM      9  C   UNL     1      10.464  13.450  19.062  0.00  0.00    +0.000 A 
ATOM     10  C   UNL     1      10.182  12.811  20.270  0.00  0.00    +0.000 A 
ATOM     11  C   UNL     1       9.682  11.508  20.261  0.00  0.00    +0.000 A 
BRANCH   8  12
ATOM     12  O   UNL     1      10.541  13.447  16.708  0.00  0.00    +0.000 OA
ATOM     13  H   UNL     1      11.186  14.145  16.908  0.00  0.00    +0.000 HD
ENDBRANCH   8  12
BRANCH  11  14
ATOM     14  O   UNL     1       9.424  10.870  21.443  0.00  0.00    +0.000 OA
ATOM     15  H   UNL     1       9.031  11.502  22.066  0.00  0.00    +0.000 HD
ENDBRANCH  11  14
ENDBRANCH   5   6
ENDBRANCH   3   4
ENDBRANCH   1   3
BRANCH   1  16
ATOM     16  C   UNL     1       6.257   5.799  16.872  0.00  0.00    +0.000 C 
ATOM     17  O   UNL     1       6.747   5.029  16.048  0.00  0.00    +0.000 OA
BRANCH  16  18
ATOM     18  C   UNL     1       5.233   5.321  17.846  0.00  0.00    +0.000 C 
ATOM     19  C   UNL     1       4.040   4.895  17.400  0.00  0.00    +0.000 C 
BRANCH  19  20
ATOM     20  C   UNL     1       2.922   4.453  18.255  0.00  0.00    +0.000 A 
ATOM     21  C   UNL     1       2.118   3.362  17.885  0.00  0.00    +0.000 A 
ATOM     22  C   UNL     1       1.107   2.917  18.733  0.00  0.00    +0.000 A 
ATOM     23  C   UNL     1       0.878   3.530  19.957  0.00  0.00    +0.000 A 
ATOM     24  C   UNL     1       1.676   4.604  20.350  0.00  0.00    +0.000 A 
ATOM     25  C   UNL     1       2.692   5.053  19.506  0.00  0.00    +0.000 A 
BRANCH  22  26
ATOM     26  O   UNL     1       0.318   1.856  18.395  0.00  0.00    +0.000 OA
ATOM     27  H   UNL     1      -0.038   1.999  17.504  0.00  0.00    +0.000 HD
ENDBRANCH  22  26
BRANCH  25  28
ATOM     28  O   UNL     1       3.483   6.098  19.906  0.00  0.00    +0.000 OA
ATOM     29  H   UNL     1       4.296   5.746  20.307  0.00  0.00    +0.000 HD
ENDBRANCH  25  28
ENDBRANCH  19  20
ENDBRANCH  16  18
ENDBRANCH   1  16
TORSDOF 10
ENDMDL
