MODEL 1
REMARK VINA RESULT:      -7.3      0.000      0.000
REMARK  Name = 
REMARK  3 active torsions:
REMARK  status: ('A' for Active; 'I' for Inactive)
REMARK    1  A    between atoms: C_1  and  C_2
REMARK    2  A    between atoms: C_5  and  C_6
REMARK    3  A    between atoms: C_17  and  O_18
REMARK                            x       y       z     vdW  Elec       q    Type
REMARK                         _______ _______ _______ _____ _____    ______ ____
ROOT
ATOM      1  C   UNL     1       6.019   5.410  17.689  0.00  0.00    +0.000 C 
ATOM      2  S   UNL     1       4.352   5.969  18.192  0.00  0.00    +0.000 S 
ATOM      3  C   UNL     1       3.534   4.401  18.377  0.00  0.00    +0.000 A 
ATOM      4  C   UNL     1       2.992   4.108  19.642  0.00  0.00    +0.000 A 
ATOM      5  C   UNL     1       2.210   2.969  19.845  0.00  0.00    +0.000 A 
ATOM      6  C   UNL     1       1.937   2.124  18.779  0.00  0.00    +0.000 A 
ATOM      7  C   UNL     1       2.491   2.400  17.531  0.00  0.00    +0.000 A 
ATOM      8  C   UNL     1       3.318   3.514  17.315  0.00  0.00    +0.000 A 
ATOM      9  N   UNL     1       3.791   3.618  16.006  0.00  0.00    +0.000 NA
ATOM     10  C   UNL     1       4.912   4.111  15.633  0.00  0.00    +0.000 C 
ATOM     11  C   UNL     1       6.051   4.829  16.296  0.00  0.00    +0.000 C 
ATOM     12  C   UNL     1       7.034   4.878  15.369  0.00  0.00    +0.000 C 
ATOM     13  C   UNL     1       6.592   4.383  14.087  0.00  0.00    +0.000 A 
ATOM     14  C   UNL     1       7.219   4.345  12.852  0.00  0.00    +0.000 A 
ATOM     15  C   UNL     1       6.537   3.760  11.780  0.00  0.00    +0.000 A 
ATOM     16  C   UNL     1       5.254   3.213  11.958  0.00  0.00    +0.000 A 
ATOM     17  C   UNL     1       4.623   3.286  13.200  0.00  0.00    +0.000 A 
ATOM     18  C   UNL     1       5.311   3.902  14.233  0.00  0.00    +0.000 A 
ENDROOT
BRANCH   1  23
ATOM     19  C   UNL     1       9.096  10.202  18.953  0.00  0.00    +0.000 C 
ATOM     20  C   UNL     1       8.443   8.940  18.467  0.00  0.00    +0.000 A 
ATOM     21  C   UNL     1       7.465   8.966  17.463  0.00  0.00    +0.000 A 
ATOM     22  C   UNL     1       6.739   7.812  17.142  0.00  0.00    +0.000 A 
ATOM     23  C   UNL     1       6.969   6.613  17.834  0.00  0.00    +0.000 A 
ATOM     24  C   UNL     1       8.020   6.577  18.773  0.00  0.00    +0.000 A 
ATOM     25  C   UNL     1       8.739   7.729  19.094  0.00  0.00    +0.000 A 
ENDBRANCH   1  23
BRANCH  12  26
ATOM     26  O   UNL     1       8.318   5.326  15.447  0.00  0.00    +0.000 OA
ATOM     27  H   UNL     1       8.715   5.368  14.560  0.00  0.00    +0.000 HD
ENDBRANCH  12  26
TORSDOF 2
ENDMDL
MODEL 2
REMARK VINA RESULT:      -7.0      3.093      6.214
REMARK  Name = 
REMARK  3 active torsions:
REMARK  status: ('A' for Active; 'I' for Inactive)
REMARK    1  A    between atoms: C_1  and  C_2
REMARK    2  A    between atoms: C_5  and  C_6
REMARK    3  A    between atoms: C_17  and  O_18
REMARK                            x       y       z     vdW  Elec       q    Type
REMARK                         _______ _______ _______ _____ _____    ______ ____
ROOT
ATOM      1  C   UNL     1       4.371   6.537  17.878  0.00  0.00    +0.000 C 
ATOM      2  S   UNL     1       2.985   7.337  16.992  0.00  0.00    +0.000 S 
ATOM      3  C   UNL     1       2.325   8.356  18.291  0.00  0.00    +0.000 A 
ATOM      4  C   UNL     1       2.282   9.743  18.056  0.00  0.00    +0.000 A 
ATOM      5  C   UNL     1       1.652  10.607  18.953  0.00  0.00    +0.000 A 
ATOM      6  C   UNL     1       1.032  10.092  20.082  0.00  0.00    +0.000 A 
ATOM      7  C   UNL     1       1.093   8.723  20.329  0.00  0.00    +0.000 A 
ATOM      8  C   UNL     1       1.761   7.840  19.464  0.00  0.00    +0.000 A 
ATOM      9  N   UNL     1       1.727   6.510  19.883  0.00  0.00    +0.000 NA
ATOM     10  C   UNL     1       2.627   5.621  19.683  0.00  0.00    +0.000 C 
ATOM     11  C   UNL     1       3.912   5.538  18.912  0.00  0.00    +0.000 C 
ATOM     12  C   UNL     1       4.493   4.382  19.305  0.00  0.00    +0.000 C 
ATOM     13  C   UNL     1       3.630   3.610  20.166  0.00  0.00    +0.000 A 
ATOM     14  C   UNL     1       3.770   2.342  20.707  0.00  0.00    +0.000 A 
ATOM     15  C   UNL     1       2.762   1.866  21.552  0.00  0.00    +0.000 A 
ATOM     16  C   UNL     1       1.642   2.662  21.851  0.00  0.00    +0.000 A 
ATOM     17  C   UNL     1       1.500   3.924  21.274  0.00  0.00    +0.000 A 
ATOM     18  C   UNL     1       2.500   4.353  20.416  0.00  0.00    +0.000 A 
ENDROOT
BRANCH   1  23
ATOM     19  C   UNL     1       7.673   4.855  13.373  0.00  0.00    +0.000 C 
ATOM     20  C   UNL     1       6.875   5.100  14.621  0.00  0.00    +0.000 A 
ATOM     21  C   UNL     1       5.553   4.654  14.740  0.00  0.00    +0.000 A 
ATOM     22  C   UNL     1       4.763   5.038  15.832  0.00  0.00    +0.000 A 
ATOM     23  C   UNL     1       5.282   5.892  16.817  0.00  0.00    +0.000 A 
ATOM     24  C   UNL     1       6.642   6.255  16.736  0.00  0.00    +0.000 A 
ATOM     25  C   UNL     1       7.425   5.874  15.645  0.00  0.00    +0.000 A 
ENDBRANCH   1  23
BRANCH  12  26
ATOM     26  O   UNL     1       5.709   3.843  19.006  0.00  0.00    +0.000 OA
ATOM     27  H   UNL     1       6.381   4.160  19.633  0.00  0.00    +0.000 HD
ENDBRANCH  12  26
TORSDOF 2
ENDMDL
MODEL 3
REMARK VINA RESULT:      -6.8      9.802     10.939
REMARK  Name = 
REMARK  3 active torsions:
REMARK  status: ('A' for Active; 'I' for Inactive)
REMARK    1  A    between atoms: C_1  and  C_2
REMARK    2  A    between atoms: C_5  and  C_6
REMARK    3  A    between atoms: C_17  and  O_18
REMARK                            x       y       z     vdW  Elec       q    Type
REMARK                         _______ _______ _______ _____ _____    ______ ____
ROOT
ATOM      1  C   UNL     1       7.372  14.007  21.995  0.00  0.00    +0.000 C 
ATOM      2  S   UNL     1       6.864  15.719  21.598  0.00  0.00    +0.000 S 
ATOM      3  C   UNL     1       5.871  15.427  20.153  0.00  0.00    +0.000 A 
ATOM      4  C   UNL     1       4.528  15.845  20.205  0.00  0.00    +0.000 A 
ATOM      5  C   UNL     1       3.711  15.790  19.074  0.00  0.00    +0.000 A 
ATOM      6  C   UNL     1       4.235  15.342  17.870  0.00  0.00    +0.000 A 
ATOM      7  C   UNL     1       5.557  14.906  17.821  0.00  0.00    +0.000 A 
ATOM      8  C   UNL     1       6.383  14.909  18.957  0.00  0.00    +0.000 A 
ATOM      9  N   UNL     1       7.670  14.424  18.718  0.00  0.00    +0.000 NA
ATOM     10  C   UNL     1       8.418  13.799  19.546  0.00  0.00    +0.000 C 
ATOM     11  C   UNL     1       8.354  13.436  21.001  0.00  0.00    +0.000 C 
ATOM     12  C   UNL     1       9.374  12.572  21.203  0.00  0.00    +0.000 C 
ATOM     13  C   UNL     1      10.209  12.440  20.032  0.00  0.00    +0.000 A 
ATOM     14  C   UNL     1      11.397  11.759  19.825  0.00  0.00    +0.000 A 
ATOM     15  C   UNL     1      11.964  11.787  18.546  0.00  0.00    +0.000 A 
ATOM     16  C   UNL     1      11.333  12.481  17.498  0.00  0.00    +0.000 A 
ATOM     17  C   UNL     1      10.153  13.188  17.729  0.00  0.00    +0.000 A 
ATOM     18  C   UNL     1       9.636  13.167  19.014  0.00  0.00    +0.000 A 
ENDROOT
BRANCH   1  23
ATOM     19  C   UNL     1       8.773  14.522  27.635  0.00  0.00    +0.000 C 
ATOM     20  C   UNL     1       8.596  14.282  26.163  0.00  0.00    +0.000 A 
ATOM     21  C   UNL     1       9.137  15.158  25.213  0.00  0.00    +0.000 A 
ATOM     22  C   UNL     1       8.820  15.024  23.854  0.00  0.00    +0.000 A 
ATOM     23  C   UNL     1       7.940  14.018  23.427  0.00  0.00    +0.000 A 
ATOM     24  C   UNL     1       7.481  13.085  24.379  0.00  0.00    +0.000 A 
ATOM     25  C   UNL     1       7.795  13.223  25.731  0.00  0.00    +0.000 A 
ENDBRANCH   1  23
BRANCH  12  26
ATOM     26  O   UNL     1       9.736  11.853  22.302  0.00  0.00    +0.000 OA
ATOM     27  H   UNL     1       9.286  10.992  22.305  0.00  0.00    +0.000 HD
ENDBRANCH  12  26
TORSDOF 2
ENDMDL
MODEL 4
REMARK VINA RESULT:      -6.7      9.906     11.413
REMARK  Name = 
REMARK  3 active torsions:
REMARK  status: ('A' for Active; 'I' for Inactive)
REMARK    1  A    between atoms: C_1  and  C_2
REMARK    2  A    between atoms: C_5  and  C_6
REMARK    3  A    between atoms: C_17  and  O_18
REMARK                            x       y       z     vdW  Elec       q    Type
REMARK                         _______ _______ _______ _____ _____    ______ ____
ROOT
ATOM      1  C   UNL     1       6.964  13.504  22.394  0.00  0.00    +0.000 C 
ATOM      2  S   UNL     1       6.653  15.275  22.733  0.00  0.00    +0.000 S 
ATOM      3  C   UNL     1       6.100  15.811  21.130  0.00  0.00    +0.000 A 
ATOM      4  C   UNL     1       4.814  16.377  21.055  0.00  0.00    +0.000 A 
ATOM      5  C   UNL     1       4.349  16.956  19.873  0.00  0.00    +0.000 A 
ATOM      6  C   UNL     1       5.175  17.001  18.759  0.00  0.00    +0.000 A 
ATOM      7  C   UNL     1       6.440  16.421  18.824  0.00  0.00    +0.000 A 
ATOM      8  C   UNL     1       6.910  15.793  19.989  0.00  0.00    +0.000 A 
ATOM      9  N   UNL     1       8.193  15.258  19.860  0.00  0.00    +0.000 NA
ATOM     10  C   UNL     1       8.653  14.220  20.451  0.00  0.00    +0.000 C 
ATOM     11  C   UNL     1       8.166  13.274  21.510  0.00  0.00    +0.000 C 
ATOM     12  C   UNL     1       9.055  12.255  21.519  0.00  0.00    +0.000 C 
ATOM     13  C   UNL     1      10.181  12.514  20.653  0.00  0.00    +0.000 A 
ATOM     14  C   UNL     1      11.353  11.808  20.438  0.00  0.00    +0.000 A 
ATOM     15  C   UNL     1      12.259  12.300  19.492  0.00  0.00    +0.000 A 
ATOM     16  C   UNL     1      11.978  13.474  18.773  0.00  0.00    +0.000 A 
ATOM     17  C   UNL     1      10.807  14.191  19.023  0.00  0.00    +0.000 A 
ATOM     18  C   UNL     1       9.947  13.696  19.989  0.00  0.00    +0.000 A 
ENDROOT
BRANCH   1  23
ATOM     19  C   UNL     1       6.794  11.344  27.810  0.00  0.00    +0.000 C 
ATOM     20  C   UNL     1       7.001  11.766  26.384  0.00  0.00    +0.000 A 
ATOM     21  C   UNL     1       7.914  12.774  26.049  0.00  0.00    +0.000 A 
ATOM     22  C   UNL     1       7.973  13.280  24.743  0.00  0.00    +0.000 A 
ATOM     23  C   UNL     1       7.104  12.795  23.755  0.00  0.00    +0.000 A 
ATOM     24  C   UNL     1       6.259  11.715  24.081  0.00  0.00    +0.000 A 
ATOM     25  C   UNL     1       6.199  11.216  25.382  0.00  0.00    +0.000 A 
ENDBRANCH   1  23
BRANCH  12  26
ATOM     26  O   UNL     1       9.064  11.079  22.207  0.00  0.00    +0.000 OA
ATOM     27  H   UNL     1       8.554  10.404  21.728  0.00  0.00    +0.000 HD
ENDBRANCH  12  26
TORSDOF 2
ENDMDL
MODEL 5
REMARK VINA RESULT:      -6.7      3.421      6.290
REMARK  Name = 
REMARK  3 active torsions:
REMARK  status: ('A' for Active; 'I' for Inactive)
REMARK    1  A    between atoms: C_1  and  C_2
REMARK    2  A    between atoms: C_5  and  C_6
REMARK    3  A    between atoms: C_17  and  O_18
REMARK                            x       y       z     vdW  Elec       q    Type
REMARK                         _______ _______ _______ _____ _____    ______ ____
ROOT
ATOM      1  C   UNL     1       4.012   7.112  18.399  0.00  0.00    +0.000 C 
ATOM      2  S   UNL     1       2.550   7.923  17.656  0.00  0.00    +0.000 S 
ATOM      3  C   UNL     1       1.841   8.682  19.099  0.00  0.00    +0.000 A 
ATOM      4  C   UNL     1       1.687  10.080  19.075  0.00  0.00    +0.000 A 
ATOM      5  C   UNL     1       1.011  10.749  20.098  0.00  0.00    +0.000 A 
ATOM      6  C   UNL     1       0.457  10.024  21.143  0.00  0.00    +0.000 A 
ATOM      7  C   UNL     1       0.628   8.643  21.181  0.00  0.00    +0.000 A 
ATOM      8  C   UNL     1       1.344   7.954  20.187  0.00  0.00    +0.000 A 
ATOM      9  N   UNL     1       1.422   6.578  20.402  0.00  0.00    +0.000 NA
ATOM     10  C   UNL     1       2.382   5.803  20.063  0.00  0.00    +0.000 C 
ATOM     11  C   UNL     1       3.654   5.937  19.276  0.00  0.00    +0.000 C 
ATOM     12  C   UNL     1       4.330   4.785  19.486  0.00  0.00    +0.000 C 
ATOM     13  C   UNL     1       3.547   3.828  20.230  0.00  0.00    +0.000 A 
ATOM     14  C   UNL     1       3.796   2.508  20.573  0.00  0.00    +0.000 A 
ATOM     15  C   UNL     1       2.845   1.834  21.346  0.00  0.00    +0.000 A 
ATOM     16  C   UNL     1       1.674   2.485  21.772  0.00  0.00    +0.000 A 
ATOM     17  C   UNL     1       1.423   3.804  21.392  0.00  0.00    +0.000 A 
ATOM     18  C   UNL     1       2.368   4.433  20.599  0.00  0.00    +0.000 A 
ENDROOT
BRANCH   1  23
ATOM     19  C   UNL     1       7.594   4.763  14.439  0.00  0.00    +0.000 C 
ATOM     20  C   UNL     1       6.683   5.545  15.340  0.00  0.00    +0.000 A 
ATOM     21  C   UNL     1       7.190   6.343  16.374  0.00  0.00    +0.000 A 
ATOM     22  C   UNL     1       6.331   6.928  17.315  0.00  0.00    +0.000 A 
ATOM     23  C   UNL     1       4.947   6.707  17.244  0.00  0.00    +0.000 A 
ATOM     24  C   UNL     1       4.442   5.983  16.144  0.00  0.00    +0.000 A 
ATOM     25  C   UNL     1       5.300   5.399  15.212  0.00  0.00    +0.000 A 
ENDBRANCH   1  23
BRANCH  12  26
ATOM     26  O   UNL     1       5.576   4.395  19.098  0.00  0.00    +0.000 OA
ATOM     27  H   UNL     1       5.818   3.559  19.532  0.00  0.00    +0.000 HD
ENDBRANCH  12  26
TORSDOF 2
ENDMDL
MODEL 6
REMARK VINA RESULT:      -6.6     10.232     11.612
REMARK  Name = 
REMARK  3 active torsions:
REMARK  status: ('A' for Active; 'I' for Inactive)
REMARK    1  A    between atoms: C_1  and  C_2
REMARK    2  A    between atoms: C_5  and  C_6
REMARK    3  A    between atoms: C_17  and  O_18
REMARK                            x       y       z     vdW  Elec       q    Type
REMARK                         _______ _______ _______ _____ _____    ______ ____
ROOT
ATOM      1  C   UNL     1      -0.626  13.468  20.829  0.00  0.00    +0.000 C 
ATOM      2  S   UNL     1      -1.536  14.849  21.612  0.00  0.00    +0.000 S 
ATOM      3  C   UNL     1      -2.681  13.941  22.624  0.00  0.00    +0.000 A 
ATOM      4  C   UNL     1      -2.639  14.181  24.010  0.00  0.00    +0.000 A 
ATOM      5  C   UNL     1      -3.591  13.626  24.867  0.00  0.00    +0.000 A 
ATOM      6  C   UNL     1      -4.613  12.847  24.346  0.00  0.00    +0.000 A 
ATOM      7  C   UNL     1      -4.644  12.589  22.977  0.00  0.00    +0.000 A 
ATOM      8  C   UNL     1      -3.671  13.099  22.102  0.00  0.00    +0.000 A 
ATOM      9  N   UNL     1      -3.859  12.723  20.772  0.00  0.00    +0.000 NA
ATOM     10  C   UNL     1      -2.947  12.532  19.894  0.00  0.00    +0.000 C 
ATOM     11  C   UNL     1      -1.458  12.707  19.825  0.00  0.00    +0.000 C 
ATOM     12  C   UNL     1      -1.077  12.104  18.677  0.00  0.00    +0.000 C 
ATOM     13  C   UNL     1      -2.209  11.668  17.895  0.00  0.00    +0.000 A 
ATOM     14  C   UNL     1      -2.289  11.110  16.629  0.00  0.00    +0.000 A 
ATOM     15  C   UNL     1      -3.550  10.751  16.142  0.00  0.00    +0.000 A 
ATOM     16  C   UNL     1      -4.702  10.941  16.924  0.00  0.00    +0.000 A 
ATOM     17  C   UNL     1      -4.609  11.533  18.184  0.00  0.00    +0.000 A 
ATOM     18  C   UNL     1      -3.350  11.908  18.624  0.00  0.00    +0.000 A 
ENDROOT
BRANCH   1  23
ATOM     19  C   UNL     1       3.977  15.205  17.695  0.00  0.00    +0.000 C 
ATOM     20  C   UNL     1       2.869  14.885  18.656  0.00  0.00    +0.000 A 
ATOM     21  C   UNL     1       2.997  13.856  19.598  0.00  0.00    +0.000 A 
ATOM     22  C   UNL     1       1.899  13.451  20.369  0.00  0.00    +0.000 A 
ATOM     23  C   UNL     1       0.647  14.060  20.195  0.00  0.00    +0.000 A 
ATOM     24  C   UNL     1       0.555  15.157  19.314  0.00  0.00    +0.000 A 
ATOM     25  C   UNL     1       1.649  15.556  18.545  0.00  0.00    +0.000 A 
ENDBRANCH   1  23
BRANCH  12  26
ATOM     26  O   UNL     1       0.160  11.876  18.152  0.00  0.00    +0.000 OA
ATOM     27  H   UNL     1       0.813  11.772  18.864  0.00  0.00    +0.000 HD
ENDBRANCH  12  26
TORSDOF 2
ENDMDL
MODEL 7
REMARK VINA RESULT:      -6.6      9.829     11.107
REMARK  Name = 
REMARK  3 active torsions:
REMARK  status: ('A' for Active; 'I' for Inactive)
REMARK    1  A    between atoms: C_1  and  C_2
REMARK    2  A    between atoms: C_5  and  C_6
REMARK    3  A    between atoms: C_17  and  O_18
REMARK                            x       y       z     vdW  Elec       q    Type
REMARK                         _______ _______ _______ _____ _____    ______ ____
ROOT
ATOM      1  C   UNL     1       7.194  14.412  22.061  0.00  0.00    +0.000 C 
ATOM      2  S   UNL     1       6.746  16.075  21.445  0.00  0.00    +0.000 S 
ATOM      3  C   UNL     1       5.783  15.635  20.016  0.00  0.00    +0.000 A 
ATOM      4  C   UNL     1       4.453  16.090  19.978  0.00  0.00    +0.000 A 
ATOM      5  C   UNL     1       3.664  15.918  18.839  0.00  0.00    +0.000 A 
ATOM      6  C   UNL     1       4.206  15.314  17.714  0.00  0.00    +0.000 A 
ATOM      7  C   UNL     1       5.515  14.842  17.757  0.00  0.00    +0.000 A 
ATOM      8  C   UNL     1       6.312  14.963  18.907  0.00  0.00    +0.000 A 
ATOM      9  N   UNL     1       7.589  14.419  18.767  0.00  0.00    +0.000 NA
ATOM     10  C   UNL     1       8.298  13.880  19.686  0.00  0.00    +0.000 C 
ATOM     11  C   UNL     1       8.186  13.700  21.172  0.00  0.00    +0.000 C 
ATOM     12  C   UNL     1       9.175  12.840  21.506  0.00  0.00    +0.000 C 
ATOM     13  C   UNL     1      10.035  12.546  20.385  0.00  0.00    +0.000 A 
ATOM     14  C   UNL     1      11.208  11.814  20.297  0.00  0.00    +0.000 A 
ATOM     15  C   UNL     1      11.808  11.672  19.041  0.00  0.00    +0.000 A 
ATOM     16  C   UNL     1      11.226  12.249  17.899  0.00  0.00    +0.000 A 
ATOM     17  C   UNL     1      10.061  13.008  18.009  0.00  0.00    +0.000 A 
ATOM     18  C   UNL     1       9.510  13.158  19.271  0.00  0.00    +0.000 A 
ENDROOT
BRANCH   1  23
ATOM     19  C   UNL     1       9.882  14.505  27.238  0.00  0.00    +0.000 C 
ATOM     20  C   UNL     1       9.046  14.611  25.995  0.00  0.00    +0.000 A 
ATOM     21  C   UNL     1       7.961  13.754  25.772  0.00  0.00    +0.000 A 
ATOM     22  C   UNL     1       7.299  13.744  24.537  0.00  0.00    +0.000 A 
ATOM     23  C   UNL     1       7.725  14.583  23.497  0.00  0.00    +0.000 A 
ATOM     24  C   UNL     1       8.755  15.508  23.766  0.00  0.00    +0.000 A 
ATOM     25  C   UNL     1       9.415  15.513  24.995  0.00  0.00    +0.000 A 
ENDBRANCH   1  23
BRANCH  12  26
ATOM     26  O   UNL     1       9.487  12.252  22.695  0.00  0.00    +0.000 OA
ATOM     27  H   UNL     1       8.816  11.589  22.929  0.00  0.00    +0.000 HD
ENDBRANCH  12  26
TORSDOF 2
ENDMDL
MODEL 8
REMARK VINA RESULT:      -6.5      9.889     11.752
REMARK  Name = 
REMARK  3 active torsions:
REMARK  status: ('A' for Active; 'I' for Inactive)
REMARK    1  A    between atoms: C_1  and  C_2
REMARK    2  A    between atoms: C_5  and  C_6
REMARK    3  A    between atoms: C_17  and  O_18
REMARK                            x       y       z     vdW  Elec       q    Type
REMARK                         _______ _______ _______ _____ _____    ______ ____
ROOT
ATOM      1  C   UNL     1       8.485  13.243  22.504  0.00  0.00    +0.000 C 
ATOM      2  S   UNL     1       8.879  11.737  21.543  0.00  0.00    +0.000 S 
ATOM      3  C   UNL     1      10.045  12.401  20.376  0.00  0.00    +0.000 A 
ATOM      4  C   UNL     1      11.331  11.832  20.363  0.00  0.00    +0.000 A 
ATOM      5  C   UNL     1      12.267  12.187  19.390  0.00  0.00    +0.000 A 
ATOM      6  C   UNL     1      11.918  13.095  18.401  0.00  0.00    +0.000 A 
ATOM      7  C   UNL     1      10.653  13.677  18.425  0.00  0.00    +0.000 A 
ATOM      8  C   UNL     1       9.712  13.370  19.421  0.00  0.00    +0.000 A 
ATOM      9  N   UNL     1       8.507  14.061  19.289  0.00  0.00    +0.000 NA
ATOM     10  C   UNL     1       7.732  14.436  20.236  0.00  0.00    +0.000 C 
ATOM     11  C   UNL     1       7.670  14.245  21.723  0.00  0.00    +0.000 C 
ATOM     12  C   UNL     1       6.715  15.098  22.157  0.00  0.00    +0.000 C 
ATOM     13  C   UNL     1       6.027  15.739  21.062  0.00  0.00    +0.000 A 
ATOM     14  C   UNL     1       4.933  16.589  21.038  0.00  0.00    +0.000 A 
ATOM     15  C   UNL     1       4.507  17.088  19.802  0.00  0.00    +0.000 A 
ATOM     16  C   UNL     1       5.183  16.743  18.618  0.00  0.00    +0.000 A 
ATOM     17  C   UNL     1       6.264  15.861  18.655  0.00  0.00    +0.000 A 
ATOM     18  C   UNL     1       6.640  15.359  19.890  0.00  0.00    +0.000 A 
ENDROOT
BRANCH   1  23
ATOM     19  C   UNL     1       6.397  10.873  27.409  0.00  0.00    +0.000 C 
ATOM     20  C   UNL     1       6.775  11.624  26.165  0.00  0.00    +0.000 A 
ATOM     21  C   UNL     1       6.205  11.310  24.924  0.00  0.00    +0.000 A 
ATOM     22  C   UNL     1       6.689  11.893  23.745  0.00  0.00    +0.000 A 
ATOM     23  C   UNL     1       7.767  12.791  23.789  0.00  0.00    +0.000 A 
ATOM     24  C   UNL     1       8.267  13.171  25.052  0.00  0.00    +0.000 A 
ATOM     25  C   UNL     1       7.785  12.586  26.223  0.00  0.00    +0.000 A 
ENDBRANCH   1  23
BRANCH  12  26
ATOM     26  O   UNL     1       6.302  15.416  23.415  0.00  0.00    +0.000 OA
ATOM     27  H   UNL     1       5.779  14.688  23.792  0.00  0.00    +0.000 HD
ENDBRANCH  12  26
TORSDOF 2
ENDMDL
MODEL 9
REMARK VINA RESULT:      -6.5     10.171     11.520
REMARK  Name = 
REMARK  3 active torsions:
REMARK  status: ('A' for Active; 'I' for Inactive)
REMARK    1  A    between atoms: C_1  and  C_2
REMARK    2  A    between atoms: C_5  and  C_6
REMARK    3  A    between atoms: C_17  and  O_18
REMARK                            x       y       z     vdW  Elec       q    Type
REMARK                         _______ _______ _______ _____ _____    ______ ____
ROOT
ATOM      1  C   UNL     1      -0.429  13.505  20.666  0.00  0.00    +0.000 C 
ATOM      2  S   UNL     1      -1.298  14.946  21.385  0.00  0.00    +0.000 S 
ATOM      3  C   UNL     1      -2.425  14.119  22.484  0.00  0.00    +0.000 A 
ATOM      4  C   UNL     1      -2.339  14.445  23.850  0.00  0.00    +0.000 A 
ATOM      5  C   UNL     1      -3.273  13.958  24.768  0.00  0.00    +0.000 A 
ATOM      6  C   UNL     1      -4.320  13.163  24.325  0.00  0.00    +0.000 A 
ATOM      7  C   UNL     1      -4.394  12.820  22.977  0.00  0.00    +0.000 A 
ATOM      8  C   UNL     1      -3.440  13.261  22.044  0.00  0.00    +0.000 A 
ATOM      9  N   UNL     1      -3.671  12.806  20.746  0.00  0.00    +0.000 NA
ATOM     10  C   UNL     1      -2.788  12.546  19.857  0.00  0.00    +0.000 C 
ATOM     11  C   UNL     1      -1.299  12.695  19.735  0.00  0.00    +0.000 C 
ATOM     12  C   UNL     1      -0.959  12.016  18.617  0.00  0.00    +0.000 C 
ATOM     13  C   UNL     1      -2.119  11.549  17.896  0.00  0.00    +0.000 A 
ATOM     14  C   UNL     1      -2.243  10.914  16.670  0.00  0.00    +0.000 A 
ATOM     15  C   UNL     1      -3.522  10.543  16.242  0.00  0.00    +0.000 A 
ATOM     16  C   UNL     1      -4.649  10.799  17.043  0.00  0.00    +0.000 A 
ATOM     17  C   UNL     1      -4.511  11.467  18.260  0.00  0.00    +0.000 A 
ATOM     18  C   UNL     1      -3.236  11.850  18.641  0.00  0.00    +0.000 A 
ENDROOT
BRANCH   1  23
ATOM     19  C   UNL     1       4.433  16.072  18.714  0.00  0.00    +0.000 C 
ATOM     20  C   UNL     1       3.188  15.296  19.036  0.00  0.00    +0.000 A 
ATOM     21  C   UNL     1       1.930  15.717  18.584  0.00  0.00    +0.000 A 
ATOM     22  C   UNL     1       0.761  15.089  19.034  0.00  0.00    +0.000 A 
ATOM     23  C   UNL     1       0.832  14.037  19.960  0.00  0.00    +0.000 A 
ATOM     24  C   UNL     1       2.107  13.561  20.331  0.00  0.00    +0.000 A 
ATOM     25  C   UNL     1       3.268  14.191  19.885  0.00  0.00    +0.000 A 
ENDBRANCH   1  23
BRANCH  12  26
ATOM     26  O   UNL     1       0.259  11.737  18.073  0.00  0.00    +0.000 OA
ATOM     27  H   UNL     1       0.877  12.469  18.238  0.00  0.00    +0.000 HD
ENDBRANCH  12  26
TORSDOF 2
ENDMDL
