MODEL 1
REMARK VINA RESULT:      -7.5      0.000      0.000
REMARK  Name = 
REMARK  7 active torsions:
REMARK  status: ('A' for Active; 'I' for Inactive)
REMARK    1  A    between atoms: C_5  and  C_6
REMARK    2  A    between atoms: C_6  and  O_7
REMARK    3  A    between atoms: O_7  and  C_8
REMARK    4  A    between atoms: C_8  and  C_9
REMARK    5  A    between atoms: N_12  and  C_13
REMARK    6  A    between atoms: C_13  and  C_14
REMARK    7  A    between atoms: C_14  and  C_15
REMARK                            x       y       z     vdW  Elec       q    Type
REMARK                         _______ _______ _______ _____ _____    ______ ____
ROOT
ATOM      1  C   UNL     1       5.938   5.020  16.546  0.00  0.00    +0.000 C 
ATOM      2  C   UNL     1       5.322   6.408  16.748  0.00  0.00    +0.000 C 
ATOM      3  C   UNL     1       6.422   7.388  17.137  0.00  0.00    +0.000 C 
ATOM      4  N   UNL     1       7.170   6.974  18.338  0.00  0.00    +0.000 NA
ATOM      5  C   UNL     1       7.630   5.572  18.270  0.00  0.00    +0.000 C 
ATOM      6  C   UNL     1       6.521   4.582  17.883  0.00  0.00    +0.000 C 
ENDROOT
BRANCH   1   7
ATOM      7  C   UNL     1       4.957   4.047  15.906  0.00  0.00    +0.000 C 
BRANCH   7   8
ATOM      8  O   UNL     1       4.275   3.466  17.011  0.00  0.00    +0.000 OA
BRANCH   8   9
ATOM      9  C   UNL     1       2.862   3.508  16.952  0.00  0.00    +0.000 C 
BRANCH   9  14
ATOM     10  F   UNL     1       0.955   2.769  22.219  0.00  0.00    +0.000 F 
ATOM     11  C   UNL     1       1.403   2.937  20.968  0.00  0.00    +0.000 A 
ATOM     12  C   UNL     1       1.020   4.063  20.248  0.00  0.00    +0.000 A 
ATOM     13  C   UNL     1       1.490   4.250  18.945  0.00  0.00    +0.000 A 
ATOM     14  C   UNL     1       2.350   3.307  18.363  0.00  0.00    +0.000 A 
ATOM     15  C   UNL     1       2.705   2.164  19.106  0.00  0.00    +0.000 A 
ATOM     16  C   UNL     1       2.240   1.983  20.408  0.00  0.00    +0.000 A 
ENDBRANCH   9  14
ENDBRANCH   8   9
ENDBRANCH   7   8
ENDBRANCH   1   7
BRANCH   4  17
ATOM     17  C   UNL     1       8.346   7.854  18.538  0.00  0.00    +0.000 C 
BRANCH  17  18
ATOM     18  C   UNL     1       8.198   9.251  17.910  0.00  0.00    +0.000 C 
BRANCH  18  19
ATOM     19  C   UNL     1       9.145  10.240  18.542  0.00  0.00    +0.000 A 
ATOM     20  C   UNL     1       9.243  10.334  19.939  0.00  0.00    +0.000 A 
ATOM     21  C   UNL     1      10.103  11.262  20.524  0.00  0.00    +0.000 A 
ATOM     22  C   UNL     1      10.868  12.105  19.719  0.00  0.00    +0.000 A 
ATOM     23  C   UNL     1      10.772  12.024  18.331  0.00  0.00    +0.000 A 
ATOM     24  C   UNL     1       9.911  11.096  17.743  0.00  0.00    +0.000 A 
ENDBRANCH  18  19
ENDBRANCH  17  18
ENDBRANCH   4  17
TORSDOF 7
ENDMDL
MODEL 2
REMARK VINA RESULT:      -7.5      0.885      1.600
REMARK  Name = 
REMARK  7 active torsions:
REMARK  status: ('A' for Active; 'I' for Inactive)
REMARK    1  A    between atoms: C_5  and  C_6
REMARK    2  A    between atoms: C_6  and  O_7
REMARK    3  A    between atoms: O_7  and  C_8
REMARK    4  A    between atoms: C_8  and  C_9
REMARK    5  A    between atoms: N_12  and  C_13
REMARK    6  A    between atoms: C_13  and  C_14
REMARK    7  A    between atoms: C_14  and  C_15
REMARK                            x       y       z     vdW  Elec       q    Type
REMARK                         _______ _______ _______ _____ _____    ______ ____
ROOT
ATOM      1  C   UNL     1       5.645   4.927  17.047  0.00  0.00    +0.000 C 
ATOM      2  C   UNL     1       7.064   4.535  17.470  0.00  0.00    +0.000 C 
ATOM      3  C   UNL     1       7.696   5.698  18.226  0.00  0.00    +0.000 C 
ATOM      4  N   UNL     1       7.716   6.952  17.450  0.00  0.00    +0.000 NA
ATOM      5  C   UNL     1       6.400   7.279  16.861  0.00  0.00    +0.000 C 
ATOM      6  C   UNL     1       5.764   6.109  16.095  0.00  0.00    +0.000 C 
ENDROOT
BRANCH   1   7
ATOM      7  C   UNL     1       4.856   3.735  16.521  0.00  0.00    +0.000 C 
BRANCH   7   8
ATOM      8  O   UNL     1       3.529   3.972  16.974  0.00  0.00    +0.000 OA
BRANCH   8   9
ATOM      9  C   UNL     1       3.396   4.917  18.019  0.00  0.00    +0.000 C 
BRANCH   9  14
ATOM     10  F   UNL     1       0.988   2.246  22.377  0.00  0.00    +0.000 F 
ATOM     11  C   UNL     1       1.558   2.887  21.347  0.00  0.00    +0.000 A 
ATOM     12  C   UNL     1       2.922   2.747  21.122  0.00  0.00    +0.000 A 
ATOM     13  C   UNL     1       3.521   3.406  20.045  0.00  0.00    +0.000 A 
ATOM     14  C   UNL     1       2.750   4.204  19.187  0.00  0.00    +0.000 A 
ATOM     15  C   UNL     1       1.373   4.345  19.451  0.00  0.00    +0.000 A 
ATOM     16  C   UNL     1       0.776   3.683  20.523  0.00  0.00    +0.000 A 
ENDBRANCH   9  14
ENDBRANCH   8   9
ENDBRANCH   7   8
ENDBRANCH   1   7
BRANCH   4  17
ATOM     17  C   UNL     1       8.150   8.079  18.308  0.00  0.00    +0.000 C 
BRANCH  17  18
ATOM     18  C   UNL     1       8.059   9.456  17.628  0.00  0.00    +0.000 C 
BRANCH  18  19
ATOM     19  C   UNL     1       8.839  10.497  18.392  0.00  0.00    +0.000 A 
ATOM     20  C   UNL     1       9.361  10.201  19.661  0.00  0.00    +0.000 A 
ATOM     21  C   UNL     1      10.064  11.169  20.376  0.00  0.00    +0.000 A 
ATOM     22  C   UNL     1      10.248  12.440  19.832  0.00  0.00    +0.000 A 
ATOM     23  C   UNL     1       9.727  12.744  18.575  0.00  0.00    +0.000 A 
ATOM     24  C   UNL     1       9.022  11.778  17.858  0.00  0.00    +0.000 A 
ENDBRANCH  18  19
ENDBRANCH  17  18
ENDBRANCH   4  17
TORSDOF 7
ENDMDL
MODEL 3
REMARK VINA RESULT:      -7.4      5.397      8.457
REMARK  Name = 
REMARK  7 active torsions:
REMARK  status: ('A' for Active; 'I' for Inactive)
REMARK    1  A    between atoms: C_5  and  C_6
REMARK    2  A    between atoms: C_6  and  O_7
REMARK    3  A    between atoms: O_7  and  C_8
REMARK    4  A    between atoms: C_8  and  C_9
REMARK    5  A    between atoms: N_12  and  C_13
REMARK    6  A    between atoms: C_13  and  C_14
REMARK    7  A    between atoms: C_14  and  C_15
REMARK                            x       y       z     vdW  Elec       q    Type
REMARK                         _______ _______ _______ _____ _____    ______ ____
ROOT
ATOM      1  C   UNL     1       2.129   6.538  19.267  0.00  0.00    +0.000 C 
ATOM      2  C   UNL     1       1.984   7.472  20.472  0.00  0.00    +0.000 C 
ATOM      3  C   UNL     1       1.166   8.691  20.061  0.00  0.00    +0.000 C 
ATOM      4  N   UNL     1       1.740   9.414  18.911  0.00  0.00    +0.000 NA
ATOM      5  C   UNL     1       2.071   8.521  17.782  0.00  0.00    +0.000 C 
ATOM      6  C   UNL     1       2.901   7.295  18.194  0.00  0.00    +0.000 C 
ENDROOT
BRANCH   1   7
ATOM      7  C   UNL     1       2.705   5.184  19.659  0.00  0.00    +0.000 C 
BRANCH   7   8
ATOM      8  O   UNL     1       4.107   5.338  19.474  0.00  0.00    +0.000 OA
BRANCH   8   9
ATOM      9  C   UNL     1       4.823   4.150  19.193  0.00  0.00    +0.000 C 
BRANCH   9  14
ATOM     10  F   UNL     1       7.185   4.801  14.102  0.00  0.00    +0.000 F 
ATOM     11  C   UNL     1       6.624   4.638  15.308  0.00  0.00    +0.000 A 
ATOM     12  C   UNL     1       7.392   4.821  16.452  0.00  0.00    +0.000 A 
ATOM     13  C   UNL     1       6.811   4.661  17.713  0.00  0.00    +0.000 A 
ATOM     14  C   UNL     1       5.455   4.322  17.829  0.00  0.00    +0.000 A 
ATOM     15  C   UNL     1       4.705   4.122  16.653  0.00  0.00    +0.000 A 
ATOM     16  C   UNL     1       5.285   4.288  15.395  0.00  0.00    +0.000 A 
ENDBRANCH   9  14
ENDBRANCH   8   9
ENDBRANCH   7   8
ENDBRANCH   1   7
BRANCH   4  17
ATOM     17  C   UNL     1       0.797  10.454  18.438  0.00  0.00    +0.000 C 
BRANCH  17  18
ATOM     18  C   UNL     1      -0.566  10.436  19.151  0.00  0.00    +0.000 C 
BRANCH  18  19
ATOM     19  C   UNL     1      -1.703  10.563  18.167  0.00  0.00    +0.000 A 
ATOM     20  C   UNL     1      -2.821  11.353  18.475  0.00  0.00    +0.000 A 
ATOM     21  C   UNL     1      -3.880  11.454  17.575  0.00  0.00    +0.000 A 
ATOM     22  C   UNL     1      -3.833  10.766  16.363  0.00  0.00    +0.000 A 
ATOM     23  C   UNL     1      -2.729   9.973  16.052  0.00  0.00    +0.000 A 
ATOM     24  C   UNL     1      -1.668   9.869  16.952  0.00  0.00    +0.000 A 
ENDBRANCH  18  19
ENDBRANCH  17  18
ENDBRANCH   4  17
TORSDOF 7
ENDMDL
MODEL 4
REMARK VINA RESULT:      -7.4      4.818      7.601
REMARK  Name = 
REMARK  7 active torsions:
REMARK  status: ('A' for Active; 'I' for Inactive)
REMARK    1  A    between atoms: C_5  and  C_6
REMARK    2  A    between atoms: C_6  and  O_7
REMARK    3  A    between atoms: O_7  and  C_8
REMARK    4  A    between atoms: C_8  and  C_9
REMARK    5  A    between atoms: N_12  and  C_13
REMARK    6  A    between atoms: C_13  and  C_14
REMARK    7  A    between atoms: C_14  and  C_15
REMARK                            x       y       z     vdW  Elec       q    Type
REMARK                         _______ _______ _______ _____ _____    ______ ____
ROOT
ATOM      1  C   UNL     1       2.091   5.226  18.283  0.00  0.00    +0.000 C 
ATOM      2  C   UNL     1       2.397   4.893  19.746  0.00  0.00    +0.000 C 
ATOM      3  C   UNL     1       1.744   5.939  20.642  0.00  0.00    +0.000 C 
ATOM      4  N   UNL     1       2.163   7.317  20.325  0.00  0.00    +0.000 NA
ATOM      5  C   UNL     1       2.060   7.629  18.885  0.00  0.00    +0.000 C 
ATOM      6  C   UNL     1       2.723   6.578  17.982  0.00  0.00    +0.000 C 
ENDROOT
BRANCH   1   7
ATOM      7  C   UNL     1       2.484   4.092  17.345  0.00  0.00    +0.000 C 
BRANCH   7   8
ATOM      8  O   UNL     1       3.777   3.706  17.792  0.00  0.00    +0.000 OA
BRANCH   8   9
ATOM      9  C   UNL     1       4.812   3.798  16.830  0.00  0.00    +0.000 C 
BRANCH   9  14
ATOM     10  F   UNL     1       8.579   7.518  18.802  0.00  0.00    +0.000 F 
ATOM     11  C   UNL     1       7.692   6.633  18.330  0.00  0.00    +0.000 A 
ATOM     12  C   UNL     1       7.170   5.665  19.179  0.00  0.00    +0.000 A 
ATOM     13  C   UNL     1       6.238   4.743  18.696  0.00  0.00    +0.000 A 
ATOM     14  C   UNL     1       5.823   4.794  17.357  0.00  0.00    +0.000 A 
ATOM     15  C   UNL     1       6.384   5.772  16.512  0.00  0.00    +0.000 A 
ATOM     16  C   UNL     1       7.310   6.695  16.998  0.00  0.00    +0.000 A 
ENDBRANCH   9  14
ENDBRANCH   8   9
ENDBRANCH   7   8
ENDBRANCH   1   7
BRANCH   4  17
ATOM     17  C   UNL     1       1.343   8.289  21.086  0.00  0.00    +0.000 C 
BRANCH  17  18
ATOM     18  C   UNL     1       0.889   9.506  20.262  0.00  0.00    +0.000 C 
BRANCH  18  19
ATOM     19  C   UNL     1      -0.068  10.372  21.043  0.00  0.00    +0.000 A 
ATOM     20  C   UNL     1      -0.319  10.105  22.398  0.00  0.00    +0.000 A 
ATOM     21  C   UNL     1      -1.219  10.891  23.116  0.00  0.00    +0.000 A 
ATOM     22  C   UNL     1      -1.878  11.946  22.485  0.00  0.00    +0.000 A 
ATOM     23  C   UNL     1      -1.641  12.213  21.138  0.00  0.00    +0.000 A 
ATOM     24  C   UNL     1      -0.741  11.427  20.418  0.00  0.00    +0.000 A 
ENDBRANCH  18  19
ENDBRANCH  17  18
ENDBRANCH   4  17
TORSDOF 7
ENDMDL
MODEL 5
REMARK VINA RESULT:      -7.4      4.740      7.617
REMARK  Name = 
REMARK  7 active torsions:
REMARK  status: ('A' for Active; 'I' for Inactive)
REMARK    1  A    between atoms: C_5  and  C_6
REMARK    2  A    between atoms: C_6  and  O_7
REMARK    3  A    between atoms: O_7  and  C_8
REMARK    4  A    between atoms: C_8  and  C_9
REMARK    5  A    between atoms: N_12  and  C_13
REMARK    6  A    between atoms: C_13  and  C_14
REMARK    7  A    between atoms: C_14  and  C_15
REMARK                            x       y       z     vdW  Elec       q    Type
REMARK                         _______ _______ _______ _____ _____    ______ ____
ROOT
ATOM      1  C   UNL     1       2.150   5.234  18.198  0.00  0.00    +0.000 C 
ATOM      2  C   UNL     1       2.412   4.854  19.658  0.00  0.00    +0.000 C 
ATOM      3  C   UNL     1       1.782   5.904  20.566  0.00  0.00    +0.000 C 
ATOM      4  N   UNL     1       2.263   7.271  20.292  0.00  0.00    +0.000 NA
ATOM      5  C   UNL     1       2.203   7.621  18.858  0.00  0.00    +0.000 C 
ATOM      6  C   UNL     1       2.842   6.566  17.942  0.00  0.00    +0.000 C 
ENDROOT
BRANCH   1   7
ATOM      7  C   UNL     1       2.516   4.108  17.240  0.00  0.00    +0.000 C 
BRANCH   7   8
ATOM      8  O   UNL     1       3.798   3.679  17.685  0.00  0.00    +0.000 OA
BRANCH   8   9
ATOM      9  C   UNL     1       4.845   3.791  16.739  0.00  0.00    +0.000 C 
BRANCH   9  14
ATOM     10  F   UNL     1       8.593   7.473  18.817  0.00  0.00    +0.000 F 
ATOM     11  C   UNL     1       7.698   6.603  18.329  0.00  0.00    +0.000 A 
ATOM     12  C   UNL     1       7.315   6.689  16.996  0.00  0.00    +0.000 A 
ATOM     13  C   UNL     1       6.388   5.779  16.478  0.00  0.00    +0.000 A 
ATOM     14  C   UNL     1       5.847   4.778  17.298  0.00  0.00    +0.000 A 
ATOM     15  C   UNL     1       6.237   4.727  18.651  0.00  0.00    +0.000 A 
ATOM     16  C   UNL     1       7.166   5.632  19.164  0.00  0.00    +0.000 A 
ENDBRANCH   9  14
ENDBRANCH   8   9
ENDBRANCH   7   8
ENDBRANCH   1   7
BRANCH   4  17
ATOM     17  C   UNL     1       1.467   8.258  21.060  0.00  0.00    +0.000 C 
BRANCH  17  18
ATOM     18  C   UNL     1       0.556   9.141  20.190  0.00  0.00    +0.000 C 
BRANCH  18  19
ATOM     19  C   UNL     1      -0.244  10.103  21.033  0.00  0.00    +0.000 A 
ATOM     20  C   UNL     1      -0.763  11.278  20.467  0.00  0.00    +0.000 A 
ATOM     21  C   UNL     1      -1.484  12.177  21.250  0.00  0.00    +0.000 A 
ATOM     22  C   UNL     1      -1.689  11.913  22.604  0.00  0.00    +0.000 A 
ATOM     23  C   UNL     1      -1.171  10.752  23.176  0.00  0.00    +0.000 A 
ATOM     24  C   UNL     1      -0.447   9.851  22.394  0.00  0.00    +0.000 A 
ENDBRANCH  18  19
ENDBRANCH  17  18
ENDBRANCH   4  17
TORSDOF 7
ENDMDL
MODEL 6
REMARK VINA RESULT:      -7.3      4.011      9.960
REMARK  Name = 
REMARK  7 active torsions:
REMARK  status: ('A' for Active; 'I' for Inactive)
REMARK    1  A    between atoms: C_5  and  C_6
REMARK    2  A    between atoms: C_6  and  O_7
REMARK    3  A    between atoms: O_7  and  C_8
REMARK    4  A    between atoms: C_8  and  C_9
REMARK    5  A    between atoms: N_12  and  C_13
REMARK    6  A    between atoms: C_13  and  C_14
REMARK    7  A    between atoms: C_14  and  C_15
REMARK                            x       y       z     vdW  Elec       q    Type
REMARK                         _______ _______ _______ _____ _____    ______ ____
ROOT
ATOM      1  C   UNL     1       7.577   7.647  17.907  0.00  0.00    +0.000 C 
ATOM      2  C   UNL     1       7.066   6.847  16.705  0.00  0.00    +0.000 C 
ATOM      3  C   UNL     1       6.023   5.844  17.182  0.00  0.00    +0.000 C 
ATOM      4  N   UNL     1       6.528   4.937  18.230  0.00  0.00    +0.000 NA
ATOM      5  C   UNL     1       7.200   5.655  19.332  0.00  0.00    +0.000 C 
ATOM      6  C   UNL     1       8.255   6.664  18.852  0.00  0.00    +0.000 C 
ENDROOT
BRANCH   1   7
ATOM      7  C   UNL     1       8.423   8.840  17.482  0.00  0.00    +0.000 C 
BRANCH   7   8
ATOM      8  O   UNL     1       8.197   9.804  18.503  0.00  0.00    +0.000 OA
BRANCH   8   9
ATOM      9  C   UNL     1       9.346  10.227  19.214  0.00  0.00    +0.000 C 
BRANCH   9  14
ATOM     10  F   UNL     1      11.214  14.928  16.698  0.00  0.00    +0.000 F 
ATOM     11  C   UNL     1      10.778  13.814  17.301  0.00  0.00    +0.000 A 
ATOM     12  C   UNL     1       9.505  13.791  17.859  0.00  0.00    +0.000 A 
ATOM     13  C   UNL     1       9.039  12.630  18.482  0.00  0.00    +0.000 A 
ATOM     14  C   UNL     1       9.849  11.486  18.541  0.00  0.00    +0.000 A 
ATOM     15  C   UNL     1      11.143  11.544  17.986  0.00  0.00    +0.000 A 
ATOM     16  C   UNL     1      11.604  12.702  17.360  0.00  0.00    +0.000 A 
ENDBRANCH   9  14
ENDBRANCH   8   9
ENDBRANCH   7   8
ENDBRANCH   1   7
BRANCH   4  17
ATOM     17  C   UNL     1       5.416   4.132  18.790  0.00  0.00    +0.000 C 
BRANCH  17  18
ATOM     18  C   UNL     1       4.270   4.972  19.380  0.00  0.00    +0.000 C 
BRANCH  18  19
ATOM     19  C   UNL     1       2.981   4.189  19.421  0.00  0.00    +0.000 A 
ATOM     20  C   UNL     1       2.644   3.325  18.368  0.00  0.00    +0.000 A 
ATOM     21  C   UNL     1       1.444   2.617  18.395  0.00  0.00    +0.000 A 
ATOM     22  C   UNL     1       0.570   2.769  19.471  0.00  0.00    +0.000 A 
ATOM     23  C   UNL     1       0.893   3.632  20.517  0.00  0.00    +0.000 A 
ATOM     24  C   UNL     1       2.094   4.342  20.492  0.00  0.00    +0.000 A 
ENDBRANCH  18  19
ENDBRANCH  17  18
ENDBRANCH   4  17
TORSDOF 7
ENDMDL
MODEL 7
REMARK VINA RESULT:      -7.3      1.555      2.309
REMARK  Name = 
REMARK  7 active torsions:
REMARK  status: ('A' for Active; 'I' for Inactive)
REMARK    1  A    between atoms: C_5  and  C_6
REMARK    2  A    between atoms: C_6  and  O_7
REMARK    3  A    between atoms: O_7  and  C_8
REMARK    4  A    between atoms: C_8  and  C_9
REMARK    5  A    between atoms: N_12  and  C_13
REMARK    6  A    between atoms: C_13  and  C_14
REMARK    7  A    between atoms: C_14  and  C_15
REMARK                            x       y       z     vdW  Elec       q    Type
REMARK                         _______ _______ _______ _____ _____    ______ ____
ROOT
ATOM      1  C   UNL     1       6.722   5.892  18.146  0.00  0.00    +0.000 C 
ATOM      2  C   UNL     1       8.128   6.047  18.733  0.00  0.00    +0.000 C 
ATOM      3  C   UNL     1       8.396   7.523  19.000  0.00  0.00    +0.000 C 
ATOM      4  N   UNL     1       8.239   8.367  17.801  0.00  0.00    +0.000 NA
ATOM      5  C   UNL     1       6.967   8.119  17.090  0.00  0.00    +0.000 C 
ATOM      6  C   UNL     1       6.700   6.631  16.816  0.00  0.00    +0.000 C 
ENDROOT
BRANCH   1   7
ATOM      7  C   UNL     1       6.282   4.435  18.096  0.00  0.00    +0.000 C 
BRANCH   7   8
ATOM      8  O   UNL     1       5.679   4.212  19.365  0.00  0.00    +0.000 OA
BRANCH   8   9
ATOM      9  C   UNL     1       4.559   5.023  19.664  0.00  0.00    +0.000 C 
BRANCH   9  14
ATOM     10  F   UNL     1      -0.064   2.004  18.465  0.00  0.00    +0.000 F 
ATOM     11  C   UNL     1       1.037   2.713  18.747  0.00  0.00    +0.000 A 
ATOM     12  C   UNL     1       1.351   3.827  17.977  0.00  0.00    +0.000 A 
ATOM     13  C   UNL     1       2.494   4.576  18.271  0.00  0.00    +0.000 A 
ATOM     14  C   UNL     1       3.322   4.212  19.343  0.00  0.00    +0.000 A 
ATOM     15  C   UNL     1       2.991   3.067  20.094  0.00  0.00    +0.000 A 
ATOM     16  C   UNL     1       1.848   2.323  19.803  0.00  0.00    +0.000 A 
ENDBRANCH   9  14
ENDBRANCH   8   9
ENDBRANCH   7   8
ENDBRANCH   1   7
BRANCH   4  17
ATOM     17  C   UNL     1       8.309   9.801  18.171  0.00  0.00    +0.000 C 
BRANCH  17  18
ATOM     18  C   UNL     1       9.210  10.092  19.383  0.00  0.00    +0.000 C 
BRANCH  18  19
ATOM     19  C   UNL     1      10.250  11.135  19.056  0.00  0.00    +0.000 A 
ATOM     20  C   UNL     1      10.997  11.736  20.081  0.00  0.00    +0.000 A 
ATOM     21  C   UNL     1      11.944  12.714  19.781  0.00  0.00    +0.000 A 
ATOM     22  C   UNL     1      12.148  13.103  18.458  0.00  0.00    +0.000 A 
ATOM     23  C   UNL     1      11.406  12.516  17.435  0.00  0.00    +0.000 A 
ATOM     24  C   UNL     1      10.457  11.537  17.732  0.00  0.00    +0.000 A 
ENDBRANCH  18  19
ENDBRANCH  17  18
ENDBRANCH   4  17
TORSDOF 7
ENDMDL
MODEL 8
REMARK VINA RESULT:      -7.2      3.558      5.981
REMARK  Name = 
REMARK  7 active torsions:
REMARK  status: ('A' for Active; 'I' for Inactive)
REMARK    1  A    between atoms: C_5  and  C_6
REMARK    2  A    between atoms: C_6  and  O_7
REMARK    3  A    between atoms: O_7  and  C_8
REMARK    4  A    between atoms: C_8  and  C_9
REMARK    5  A    between atoms: N_12  and  C_13
REMARK    6  A    between atoms: C_13  and  C_14
REMARK    7  A    between atoms: C_14  and  C_15
REMARK                            x       y       z     vdW  Elec       q    Type
REMARK                         _______ _______ _______ _____ _____    ______ ____
ROOT
ATOM      1  C   UNL     1       2.116   4.181  19.454  0.00  0.00    +0.000 C 
ATOM      2  C   UNL     1       2.961   2.936  19.739  0.00  0.00    +0.000 C 
ATOM      3  C   UNL     1       4.204   2.966  18.858  0.00  0.00    +0.000 C 
ATOM      4  N   UNL     1       3.893   3.062  17.420  0.00  0.00    +0.000 NA
ATOM      5  C   UNL     1       2.930   4.140  17.114  0.00  0.00    +0.000 C 
ATOM      6  C   UNL     1       1.674   4.108  17.999  0.00  0.00    +0.000 C 
ENDROOT
BRANCH   1   7
ATOM      7  C   UNL     1       0.997   4.359  20.472  0.00  0.00    +0.000 C 
BRANCH   7   8
ATOM      8  O   UNL     1       1.146   5.701  20.918  0.00  0.00    +0.000 OA
BRANCH   8   9
ATOM      9  C   UNL     1       2.314   6.369  20.480  0.00  0.00    +0.000 C 
BRANCH   9  14
ATOM     10  F   UNL     1       0.699  11.338  18.330  0.00  0.00    +0.000 F 
ATOM     11  C   UNL     1       1.074  10.157  18.840  0.00  0.00    +0.000 A 
ATOM     12  C   UNL     1       1.771   9.256  18.044  0.00  0.00    +0.000 A 
ATOM     13  C   UNL     1       2.173   8.026  18.572  0.00  0.00    +0.000 A 
ATOM     14  C   UNL     1       1.879   7.699  19.904  0.00  0.00    +0.000 A 
ATOM     15  C   UNL     1       1.153   8.622  20.683  0.00  0.00    +0.000 A 
ATOM     16  C   UNL     1       0.758   9.851  20.156  0.00  0.00    +0.000 A 
ENDBRANCH   9  14
ENDBRANCH   8   9
ENDBRANCH   7   8
ENDBRANCH   1   7
BRANCH   4  17
ATOM     17  C   UNL     1       5.133   3.294  16.642  0.00  0.00    +0.000 C 
BRANCH  17  18
ATOM     18  C   UNL     1       5.292   4.736  16.130  0.00  0.00    +0.000 C 
BRANCH  18  19
ATOM     19  C   UNL     1       6.251   5.521  16.989  0.00  0.00    +0.000 A 
ATOM     20  C   UNL     1       6.429   6.897  16.776  0.00  0.00    +0.000 A 
ATOM     21  C   UNL     1       7.331   7.619  17.556  0.00  0.00    +0.000 A 
ATOM     22  C   UNL     1       8.064   6.973  18.551  0.00  0.00    +0.000 A 
ATOM     23  C   UNL     1       7.898   5.606  18.765  0.00  0.00    +0.000 A 
ATOM     24  C   UNL     1       6.997   4.880  17.985  0.00  0.00    +0.000 A 
ENDBRANCH  18  19
ENDBRANCH  17  18
ENDBRANCH   4  17
TORSDOF 7
ENDMDL
MODEL 9
REMARK VINA RESULT:      -7.2      4.882      7.500
REMARK  Name = 
REMARK  7 active torsions:
REMARK  status: ('A' for Active; 'I' for Inactive)
REMARK    1  A    between atoms: C_5  and  C_6
REMARK    2  A    between atoms: C_6  and  O_7
REMARK    3  A    between atoms: O_7  and  C_8
REMARK    4  A    between atoms: C_8  and  C_9
REMARK    5  A    between atoms: N_12  and  C_13
REMARK    6  A    between atoms: C_13  and  C_14
REMARK    7  A    between atoms: C_14  and  C_15
REMARK                            x       y       z     vdW  Elec       q    Type
REMARK                         _______ _______ _______ _____ _____    ______ ____
ROOT
ATOM      1  C   UNL     1       3.054   6.556  18.203  0.00  0.00    +0.000 C 
ATOM      2  C   UNL     1       2.849   6.814  19.698  0.00  0.00    +0.000 C 
ATOM      3  C   UNL     1       1.640   7.723  19.885  0.00  0.00    +0.000 C 
ATOM      4  N   UNL     1       1.752   8.997  19.150  0.00  0.00    +0.000 NA
ATOM      5  C   UNL     1       2.134   8.808  17.735  0.00  0.00    +0.000 C 
ATOM      6  C   UNL     1       3.356   7.897  17.547  0.00  0.00    +0.000 C 
ENDROOT
BRANCH   1   7
ATOM      7  C   UNL     1       4.075   5.455  17.948  0.00  0.00    +0.000 C 
BRANCH   7   8
ATOM      8  O   UNL     1       3.391   4.538  17.102  0.00  0.00    +0.000 OA
BRANCH   8   9
ATOM      9  C   UNL     1       3.483   3.175  17.472  0.00  0.00    +0.000 C 
BRANCH   9  14
ATOM     10  F   UNL     1       0.847   2.604  22.436  0.00  0.00    +0.000 F 
ATOM     11  C   UNL     1       1.470   2.749  21.259  0.00  0.00    +0.000 A 
ATOM     12  C   UNL     1       2.843   2.544  21.181  0.00  0.00    +0.000 A 
ATOM     13  C   UNL     1       3.498   2.684  19.954  0.00  0.00    +0.000 A 
ATOM     14  C   UNL     1       2.776   3.025  18.802  0.00  0.00    +0.000 A 
ATOM     15  C   UNL     1       1.389   3.247  18.914  0.00  0.00    +0.000 A 
ATOM     16  C   UNL     1       0.735   3.101  20.137  0.00  0.00    +0.000 A 
ENDBRANCH   9  14
ENDBRANCH   8   9
ENDBRANCH   7   8
ENDBRANCH   1   7
BRANCH   4  17
ATOM     17  C   UNL     1       0.469   9.735  19.206  0.00  0.00    +0.000 C 
BRANCH  17  18
ATOM     18  C   UNL     1      -0.312   9.737  17.880  0.00  0.00    +0.000 C 
BRANCH  18  19
ATOM     19  C   UNL     1      -1.648  10.421  18.031  0.00  0.00    +0.000 A 
ATOM     20  C   UNL     1      -1.849  11.364  19.051  0.00  0.00    +0.000 A 
ATOM     21  C   UNL     1      -3.090  11.981  19.204  0.00  0.00    +0.000 A 
ATOM     22  C   UNL     1      -4.139  11.659  18.343  0.00  0.00    +0.000 A 
ATOM     23  C   UNL     1      -3.949  10.718  17.333  0.00  0.00    +0.000 A 
ATOM     24  C   UNL     1      -2.709  10.098  17.178  0.00  0.00    +0.000 A 
ENDBRANCH  18  19
ENDBRANCH  17  18
ENDBRANCH   4  17
TORSDOF 7
ENDMDL
