MODEL 1
REMARK VINA RESULT:      -9.5      0.000      0.000
REMARK  Name = 
REMARK  4 active torsions:
REMARK  status: ('A' for Active; 'I' for Inactive)
REMARK    1  A    between atoms: C_1  and  C_2
REMARK    2  A    between atoms: C_4  and  C_5
REMARK    3  A    between atoms: C_21  and  C_22
REMARK    4  A    between atoms: C_23  and  N_24
REMARK                            x       y       z     vdW  Elec       q    Type
REMARK                         _______ _______ _______ _____ _____    ______ ____
ROOT
ATOM      1  C   UNL     1       3.180   4.906  18.001  0.00  0.00    +0.000 C 
ATOM      2  N   UNL     1       2.595   3.736  18.024  0.00  0.00    +0.000 NA
ATOM      3  N   UNL     1       1.478   3.515  18.777  0.00  0.00    +0.000 N 
ATOM      4  C   UNL     1       1.392   3.722  20.140  0.00  0.00    +0.000 C 
ATOM      5  O   UNL     1       0.532   3.152  20.811  0.00  0.00    +0.000 OA
ATOM      6  C   UNL     1       2.388   4.679  20.755  0.00  0.00    +0.000 C 
ATOM      7  C   UNL     1       2.293   6.014  20.071  0.00  0.00    +0.000 A 
ATOM      8  C   UNL     1       1.723   7.117  20.722  0.00  0.00    +0.000 A 
ATOM      9  C   UNL     1       1.517   8.262  19.984  0.00  0.00    +0.000 A 
ATOM     10  C   UNL     1       1.888   8.353  18.661  0.00  0.00    +0.000 A 
ATOM     11  C   UNL     1       2.484   7.305  17.995  0.00  0.00    +0.000 A 
ATOM     12  C   UNL     1       2.668   6.113  18.709  0.00  0.00    +0.000 A 
ATOM     13  O   UNL     1       1.552   9.552  18.114  0.00  0.00    +0.000 OA
ATOM     14  C   UNL     1       0.796  10.135  19.196  0.00  0.00    +0.000 C 
ATOM     15  O   UNL     1       0.901   9.390  20.426  0.00  0.00    +0.000 OA
ATOM     16  H   UNL     1       0.896   2.746  18.459  0.00  0.00    +0.000 HD
ENDROOT
BRANCH   1  20
ATOM     17  C   UNL     1       7.656   7.036  17.348  0.00  0.00    +0.000 C 
ATOM     18  C   UNL     1       6.612   6.072  16.852  0.00  0.00    +0.000 A 
ATOM     19  C   UNL     1       5.436   5.908  17.605  0.00  0.00    +0.000 A 
ATOM     20  C   UNL     1       4.432   5.030  17.188  0.00  0.00    +0.000 A 
ATOM     21  C   UNL     1       4.591   4.328  15.989  0.00  0.00    +0.000 A 
ATOM     22  C   UNL     1       5.756   4.483  15.217  0.00  0.00    +0.000 A 
ATOM     23  C   UNL     1       5.866   3.721  13.923  0.00  0.00    +0.000 C 
ATOM     24  C   UNL     1       6.795   5.329  15.665  0.00  0.00    +0.000 A 
BRANCH  24  25
ATOM     25  N   UNL     1       7.886   5.608  14.824  0.00  0.00    +0.000 N 
ATOM     26  H   UNL     1       7.637   5.802  13.861  0.00  0.00    +0.000 HD
ATOM     27  H   UNL     1       8.647   4.940  14.887  0.00  0.00    +0.000 HD
ENDBRANCH  24  25
ENDBRANCH   1  20
TORSDOF 2
ENDMDL
MODEL 2
REMARK VINA RESULT:      -9.3      0.200      1.783
REMARK  Name = 
REMARK  4 active torsions:
REMARK  status: ('A' for Active; 'I' for Inactive)
REMARK    1  A    between atoms: C_1  and  C_2
REMARK    2  A    between atoms: C_4  and  C_5
REMARK    3  A    between atoms: C_21  and  C_22
REMARK    4  A    between atoms: C_23  and  N_24
REMARK                            x       y       z     vdW  Elec       q    Type
REMARK                         _______ _______ _______ _____ _____    ______ ____
ROOT
ATOM      1  C   UNL     1       3.120   5.113  17.959  0.00  0.00    +0.000 C 
ATOM      2  N   UNL     1       2.553   3.935  17.940  0.00  0.00    +0.000 NA
ATOM      3  N   UNL     1       1.451   3.664  18.698  0.00  0.00    +0.000 N 
ATOM      4  C   UNL     1       1.381   3.810  20.069  0.00  0.00    +0.000 C 
ATOM      5  O   UNL     1       0.539   3.199  20.727  0.00  0.00    +0.000 OA
ATOM      6  C   UNL     1       2.371   4.755  20.712  0.00  0.00    +0.000 C 
ATOM      7  C   UNL     1       2.246   6.117  20.087  0.00  0.00    +0.000 A 
ATOM      8  C   UNL     1       1.668   7.182  20.793  0.00  0.00    +0.000 A 
ATOM      9  C   UNL     1       1.434   8.355  20.108  0.00  0.00    +0.000 A 
ATOM     10  C   UNL     1       1.785   8.508  18.785  0.00  0.00    +0.000 A 
ATOM     11  C   UNL     1       2.387   7.500  18.066  0.00  0.00    +0.000 A 
ATOM     12  C   UNL     1       2.599   6.281  18.726  0.00  0.00    +0.000 A 
ATOM     13  O   UNL     1       1.423   9.724  18.295  0.00  0.00    +0.000 OA
ATOM     14  C   UNL     1       0.673  10.248  19.411  0.00  0.00    +0.000 C 
ATOM     15  O   UNL     1       0.808   9.453  20.607  0.00  0.00    +0.000 OA
ATOM     16  H   UNL     1       0.876   2.899  18.354  0.00  0.00    +0.000 HD
ENDROOT
BRANCH   1  20
ATOM     17  C   UNL     1       5.787   3.845  13.925  0.00  0.00    +0.000 C 
ATOM     18  C   UNL     1       5.674   4.673  15.178  0.00  0.00    +0.000 A 
ATOM     19  C   UNL     1       4.513   4.552  15.960  0.00  0.00    +0.000 A 
ATOM     20  C   UNL     1       4.358   5.292  17.135  0.00  0.00    +0.000 A 
ATOM     21  C   UNL     1       5.387   6.143  17.549  0.00  0.00    +0.000 A 
ATOM     22  C   UNL     1       6.560   6.274  16.784  0.00  0.00    +0.000 A 
ATOM     23  C   UNL     1       7.647   7.186  17.287  0.00  0.00    +0.000 C 
ATOM     24  C   UNL     1       6.695   5.566  15.568  0.00  0.00    +0.000 A 
BRANCH  24  25
ATOM     25  N   UNL     1       7.924   5.571  14.885  0.00  0.00    +0.000 N 
ATOM     26  H   UNL     1       8.105   4.739  14.337  0.00  0.00    +0.000 HD
ATOM     27  H   UNL     1       8.721   5.825  15.458  0.00  0.00    +0.000 HD
ENDBRANCH  24  25
ENDBRANCH   1  20
TORSDOF 2
ENDMDL
MODEL 3
REMARK VINA RESULT:      -8.5      3.089      6.082
REMARK  Name = 
REMARK  4 active torsions:
REMARK  status: ('A' for Active; 'I' for Inactive)
REMARK    1  A    between atoms: C_1  and  C_2
REMARK    2  A    between atoms: C_4  and  C_5
REMARK    3  A    between atoms: C_21  and  C_22
REMARK    4  A    between atoms: C_23  and  N_24
REMARK                            x       y       z     vdW  Elec       q    Type
REMARK                         _______ _______ _______ _____ _____    ______ ____
ROOT
ATOM      1  C   UNL     1       2.103   5.741  19.832  0.00  0.00    +0.000 C 
ATOM      2  N   UNL     1       1.342   4.870  20.442  0.00  0.00    +0.000 NA
ATOM      3  N   UNL     1       1.528   3.527  20.281  0.00  0.00    +0.000 N 
ATOM      4  C   UNL     1       1.518   2.869  19.067  0.00  0.00    +0.000 C 
ATOM      5  O   UNL     1       1.297   1.660  19.007  0.00  0.00    +0.000 OA
ATOM      6  C   UNL     1       1.799   3.697  17.834  0.00  0.00    +0.000 C 
ATOM      7  C   UNL     1       3.126   4.388  17.982  0.00  0.00    +0.000 A 
ATOM      8  C   UNL     1       4.240   3.973  17.239  0.00  0.00    +0.000 A 
ATOM      9  C   UNL     1       5.461   4.538  17.541  0.00  0.00    +0.000 A 
ATOM     10  C   UNL     1       5.594   5.505  18.511  0.00  0.00    +0.000 A 
ATOM     11  C   UNL     1       4.520   5.966  19.239  0.00  0.00    +0.000 A 
ATOM     12  C   UNL     1       3.273   5.380  18.981  0.00  0.00    +0.000 A 
ATOM     13  O   UNL     1       6.889   5.890  18.679  0.00  0.00    +0.000 OA
ATOM     14  C   UNL     1       7.560   4.946  17.817  0.00  0.00    +0.000 C 
ATOM     15  O   UNL     1       6.652   4.195  16.985  0.00  0.00    +0.000 OA
ATOM     16  H   UNL     1       1.172   2.955  21.042  0.00  0.00    +0.000 HD
ENDROOT
BRANCH   1  20
ATOM     17  C   UNL     1       0.395   9.370  22.817  0.00  0.00    +0.000 C 
ATOM     18  C   UNL     1       0.938   8.968  21.471  0.00  0.00    +0.000 A 
ATOM     19  C   UNL     1       1.279   7.620  21.260  0.00  0.00    +0.000 A 
ATOM     20  C   UNL     1       1.781   7.191  20.029  0.00  0.00    +0.000 A 
ATOM     21  C   UNL     1       1.920   8.112  18.987  0.00  0.00    +0.000 A 
ATOM     22  C   UNL     1       1.579   9.463  19.175  0.00  0.00    +0.000 A 
ATOM     23  C   UNL     1       1.726  10.409  18.013  0.00  0.00    +0.000 C 
ATOM     24  C   UNL     1       1.122   9.909  20.436  0.00  0.00    +0.000 A 
BRANCH  24  25
ATOM     25  N   UNL     1       0.632  11.219  20.582  0.00  0.00    +0.000 N 
ATOM     26  H   UNL     1      -0.377  11.286  20.655  0.00  0.00    +0.000 HD
ATOM     27  H   UNL     1       1.004  11.884  19.913  0.00  0.00    +0.000 HD
ENDBRANCH  24  25
ENDBRANCH   1  20
TORSDOF 2
ENDMDL
MODEL 4
REMARK VINA RESULT:      -8.5      3.087      6.131
REMARK  Name = 
REMARK  4 active torsions:
REMARK  status: ('A' for Active; 'I' for Inactive)
REMARK    1  A    between atoms: C_1  and  C_2
REMARK    2  A    between atoms: C_4  and  C_5
REMARK    3  A    between atoms: C_21  and  C_22
REMARK    4  A    between atoms: C_23  and  N_24
REMARK                            x       y       z     vdW  Elec       q    Type
REMARK                         _______ _______ _______ _____ _____    ______ ____
ROOT
ATOM      1  C   UNL     1       2.121   5.636  19.818  0.00  0.00    +0.000 C 
ATOM      2  N   UNL     1       1.395   4.751  20.449  0.00  0.00    +0.000 NA
ATOM      3  N   UNL     1       1.629   3.413  20.314  0.00  0.00    +0.000 N 
ATOM      4  C   UNL     1       1.637   2.731  19.112  0.00  0.00    +0.000 C 
ATOM      5  O   UNL     1       1.460   1.514  19.077  0.00  0.00    +0.000 OA
ATOM      6  C   UNL     1       1.882   3.544  17.862  0.00  0.00    +0.000 C 
ATOM      7  C   UNL     1       3.184   4.285  17.989  0.00  0.00    +0.000 A 
ATOM      8  C   UNL     1       4.309   3.896  17.248  0.00  0.00    +0.000 A 
ATOM      9  C   UNL     1       5.509   4.511  17.533  0.00  0.00    +0.000 A 
ATOM     10  C   UNL     1       5.612   5.502  18.483  0.00  0.00    +0.000 A 
ATOM     11  C   UNL     1       4.526   5.937  19.208  0.00  0.00    +0.000 A 
ATOM     12  C   UNL     1       3.299   5.302  18.968  0.00  0.00    +0.000 A 
ATOM     13  O   UNL     1       6.893   5.936  18.636  0.00  0.00    +0.000 OA
ATOM     14  C   UNL     1       7.593   5.001  17.789  0.00  0.00    +0.000 C 
ATOM     15  O   UNL     1       6.710   4.200  16.977  0.00  0.00    +0.000 OA
ATOM     16  H   UNL     1       1.298   2.843  21.087  0.00  0.00    +0.000 HD
ENDROOT
BRANCH   1  20
ATOM     17  C   UNL     1       1.892  10.246  17.896  0.00  0.00    +0.000 C 
ATOM     18  C   UNL     1       1.642   9.332  19.067  0.00  0.00    +0.000 A 
ATOM     19  C   UNL     1       1.954   7.968  18.933  0.00  0.00    +0.000 A 
ATOM     20  C   UNL     1       1.748   7.077  19.989  0.00  0.00    +0.000 A 
ATOM     21  C   UNL     1       1.251   7.558  21.203  0.00  0.00    +0.000 A 
ATOM     22  C   UNL     1       0.940   8.920  21.361  0.00  0.00    +0.000 A 
ATOM     23  C   UNL     1       0.429   9.390  22.698  0.00  0.00    +0.000 C 
ATOM     24  C   UNL     1       1.097   9.813  20.277  0.00  0.00    +0.000 A 
BRANCH  24  25
ATOM     25  N   UNL     1       0.938  11.195  20.477  0.00  0.00    +0.000 N 
ATOM     26  H   UNL     1       0.118  11.452  21.014  0.00  0.00    +0.000 HD
ATOM     27  H   UNL     1       1.025  11.754  19.635  0.00  0.00    +0.000 HD
ENDBRANCH  24  25
ENDBRANCH   1  20
TORSDOF 2
ENDMDL
MODEL 5
REMARK VINA RESULT:      -7.9      2.959      6.571
REMARK  Name = 
REMARK  4 active torsions:
REMARK  status: ('A' for Active; 'I' for Inactive)
REMARK    1  A    between atoms: C_1  and  C_2
REMARK    2  A    between atoms: C_4  and  C_5
REMARK    3  A    between atoms: C_21  and  C_22
REMARK    4  A    between atoms: C_23  and  N_24
REMARK                            x       y       z     vdW  Elec       q    Type
REMARK                         _______ _______ _______ _____ _____    ______ ____
ROOT
ATOM      1  C   UNL     1       3.065   7.250  17.865  0.00  0.00    +0.000 C 
ATOM      2  N   UNL     1       3.781   7.773  16.904  0.00  0.00    +0.000 NA
ATOM      3  N   UNL     1       4.709   7.036  16.226  0.00  0.00    +0.000 N 
ATOM      4  C   UNL     1       5.763   6.364  16.812  0.00  0.00    +0.000 C 
ATOM      5  O   UNL     1       6.760   6.062  16.157  0.00  0.00    +0.000 OA
ATOM      6  C   UNL     1       5.628   6.015  18.277  0.00  0.00    +0.000 C 
ATOM      7  C   UNL     1       4.380   5.205  18.488  0.00  0.00    +0.000 A 
ATOM      8  C   UNL     1       4.452   3.834  18.773  0.00  0.00    +0.000 A 
ATOM      9  C   UNL     1       3.273   3.119  18.793  0.00  0.00    +0.000 A 
ATOM     10  C   UNL     1       2.054   3.720  18.579  0.00  0.00    +0.000 A 
ATOM     11  C   UNL     1       1.936   5.070  18.332  0.00  0.00    +0.000 A 
ATOM     12  C   UNL     1       3.122   5.815  18.265  0.00  0.00    +0.000 A 
ATOM     13  O   UNL     1       1.029   2.825  18.596  0.00  0.00    +0.000 OA
ATOM     14  C   UNL     1       1.762   1.585  18.690  0.00  0.00    +0.000 C 
ATOM     15  O   UNL     1       3.164   1.775  18.966  0.00  0.00    +0.000 OA
ATOM     16  H   UNL     1       4.930   7.383  15.297  0.00  0.00    +0.000 HD
ENDROOT
BRANCH   1  20
ATOM     17  C   UNL     1       1.141   8.855  22.191  0.00  0.00    +0.000 C 
ATOM     18  C   UNL     1       1.159   8.939  20.687  0.00  0.00    +0.000 A 
ATOM     19  C   UNL     1       2.059   8.123  19.980  0.00  0.00    +0.000 A 
ATOM     20  C   UNL     1       2.114   8.157  18.585  0.00  0.00    +0.000 A 
ATOM     21  C   UNL     1       1.241   8.994  17.884  0.00  0.00    +0.000 A 
ATOM     22  C   UNL     1       0.328   9.813  18.573  0.00  0.00    +0.000 A 
ATOM     23  C   UNL     1      -0.606  10.679  17.769  0.00  0.00    +0.000 C 
ATOM     24  C   UNL     1       0.309   9.820  19.985  0.00  0.00    +0.000 A 
BRANCH  24  25
ATOM     25  N   UNL     1      -0.704  10.515  20.670  0.00  0.00    +0.000 N 
ATOM     26  H   UNL     1      -1.472  10.823  20.086  0.00  0.00    +0.000 HD
ATOM     27  H   UNL     1      -0.370  11.257  21.274  0.00  0.00    +0.000 HD
ENDBRANCH  24  25
ENDBRANCH   1  20
TORSDOF 2
ENDMDL
MODEL 6
REMARK VINA RESULT:      -7.8      2.976      6.708
REMARK  Name = 
REMARK  4 active torsions:
REMARK  status: ('A' for Active; 'I' for Inactive)
REMARK    1  A    between atoms: C_1  and  C_2
REMARK    2  A    between atoms: C_4  and  C_5
REMARK    3  A    between atoms: C_21  and  C_22
REMARK    4  A    between atoms: C_23  and  N_24
REMARK                            x       y       z     vdW  Elec       q    Type
REMARK                         _______ _______ _______ _____ _____    ______ ____
ROOT
ATOM      1  C   UNL     1       3.035   7.221  18.018  0.00  0.00    +0.000 C 
ATOM      2  N   UNL     1       3.768   7.783  17.093  0.00  0.00    +0.000 NA
ATOM      3  N   UNL     1       4.720   7.078  16.414  0.00  0.00    +0.000 N 
ATOM      4  C   UNL     1       5.767   6.398  17.003  0.00  0.00    +0.000 C 
ATOM      5  O   UNL     1       6.782   6.127  16.363  0.00  0.00    +0.000 OA
ATOM      6  C   UNL     1       5.600   5.999  18.452  0.00  0.00    +0.000 C 
ATOM      7  C   UNL     1       4.355   5.169  18.606  0.00  0.00    +0.000 A 
ATOM      8  C   UNL     1       4.435   3.791  18.848  0.00  0.00    +0.000 A 
ATOM      9  C   UNL     1       3.264   3.064  18.815  0.00  0.00    +0.000 A 
ATOM     10  C   UNL     1       2.044   3.660  18.592  0.00  0.00    +0.000 A 
ATOM     11  C   UNL     1       1.918   5.016  18.385  0.00  0.00    +0.000 A 
ATOM     12  C   UNL     1       3.097   5.774  18.373  0.00  0.00    +0.000 A 
ATOM     13  O   UNL     1       1.028   2.755  18.554  0.00  0.00    +0.000 OA
ATOM     14  C   UNL     1       1.772   1.520  18.624  0.00  0.00    +0.000 C 
ATOM     15  O   UNL     1       3.165   1.715  18.941  0.00  0.00    +0.000 OA
ATOM     16  H   UNL     1       4.960   7.458  15.503  0.00  0.00    +0.000 HD
ENDROOT
BRANCH   1  20
ATOM     17  C   UNL     1      -0.518  10.734  17.826  0.00  0.00    +0.000 C 
ATOM     18  C   UNL     1       0.332   9.816  18.665  0.00  0.00    +0.000 A 
ATOM     19  C   UNL     1       1.240   8.962  18.015  0.00  0.00    +0.000 A 
ATOM     20  C   UNL     1       2.057   8.095  18.744  0.00  0.00    +0.000 A 
ATOM     21  C   UNL     1       1.988   8.099  20.140  0.00  0.00    +0.000 A 
ATOM     22  C   UNL     1       1.092   8.952  20.810  0.00  0.00    +0.000 A 
ATOM     23  C   UNL     1       1.075   8.934  22.316  0.00  0.00    +0.000 C 
ATOM     24  C   UNL     1       0.227   9.790  20.072  0.00  0.00    +0.000 A 
BRANCH  24  25
ATOM     25  N   UNL     1      -0.554  10.753  20.736  0.00  0.00    +0.000 N 
ATOM     26  H   UNL     1      -1.543  10.713  20.523  0.00  0.00    +0.000 HD
ATOM     27  H   UNL     1      -0.195  11.699  20.676  0.00  0.00    +0.000 HD
ENDBRANCH  24  25
ENDBRANCH   1  20
TORSDOF 2
ENDMDL
MODEL 7
REMARK VINA RESULT:      -7.7      3.131      4.772
REMARK  Name = 
REMARK  4 active torsions:
REMARK  status: ('A' for Active; 'I' for Inactive)
REMARK    1  A    between atoms: C_1  and  C_2
REMARK    2  A    between atoms: C_4  and  C_5
REMARK    3  A    between atoms: C_21  and  C_22
REMARK    4  A    between atoms: C_23  and  N_24
REMARK                            x       y       z     vdW  Elec       q    Type
REMARK                         _______ _______ _______ _____ _____    ______ ____
ROOT
ATOM      1  C   UNL     1       6.769   4.454  16.349  0.00  0.00    +0.000 C 
ATOM      2  N   UNL     1       7.877   4.292  17.025  0.00  0.00    +0.000 NA
ATOM      3  N   UNL     1       7.892   4.347  18.389  0.00  0.00    +0.000 N 
ATOM      4  C   UNL     1       7.447   5.418  19.139  0.00  0.00    +0.000 C 
ATOM      5  O   UNL     1       7.835   5.581  20.296  0.00  0.00    +0.000 OA
ATOM      6  C   UNL     1       6.464   6.358  18.481  0.00  0.00    +0.000 C 
ATOM      7  C   UNL     1       5.264   5.585  18.009  0.00  0.00    +0.000 A 
ATOM      8  C   UNL     1       4.031   5.698  18.667  0.00  0.00    +0.000 A 
ATOM      9  C   UNL     1       3.020   4.842  18.288  0.00  0.00    +0.000 A 
ATOM     10  C   UNL     1       3.184   3.925  17.275  0.00  0.00    +0.000 A 
ATOM     11  C   UNL     1       4.367   3.805  16.580  0.00  0.00    +0.000 A 
ATOM     12  C   UNL     1       5.427   4.635  16.972  0.00  0.00    +0.000 A 
ATOM     13  O   UNL     1       2.079   3.151  17.097  0.00  0.00    +0.000 OA
ATOM     14  C   UNL     1       1.270   3.585  18.210  0.00  0.00    +0.000 C 
ATOM     15  O   UNL     1       1.795   4.754  18.871  0.00  0.00    +0.000 OA
ATOM     16  H   UNL     1       8.667   3.855  18.825  0.00  0.00    +0.000 HD
ENDROOT
BRANCH   1  20
ATOM     17  C   UNL     1       8.762   6.344  12.171  0.00  0.00    +0.000 C 
ATOM     18  C   UNL     1       7.823   5.354  12.808  0.00  0.00    +0.000 A 
ATOM     19  C   UNL     1       7.727   5.327  14.210  0.00  0.00    +0.000 A 
ATOM     20  C   UNL     1       6.868   4.432  14.854  0.00  0.00    +0.000 A 
ATOM     21  C   UNL     1       6.075   3.573  14.089  0.00  0.00    +0.000 A 
ATOM     22  C   UNL     1       6.151   3.589  12.684  0.00  0.00    +0.000 A 
ATOM     23  C   UNL     1       5.257   2.659  11.906  0.00  0.00    +0.000 C 
ATOM     24  C   UNL     1       7.058   4.455  12.034  0.00  0.00    +0.000 A 
BRANCH  24  25
ATOM     25  N   UNL     1       7.024   4.586  10.635  0.00  0.00    +0.000 N 
ATOM     26  H   UNL     1       6.829   3.727  10.135  0.00  0.00    +0.000 HD
ATOM     27  H   UNL     1       7.817   5.078  10.239  0.00  0.00    +0.000 HD
ENDBRANCH  24  25
ENDBRANCH   1  20
TORSDOF 2
ENDMDL
MODEL 8
REMARK VINA RESULT:      -7.6      3.142      5.010
REMARK  Name = 
REMARK  4 active torsions:
REMARK  status: ('A' for Active; 'I' for Inactive)
REMARK    1  A    between atoms: C_1  and  C_2
REMARK    2  A    between atoms: C_4  and  C_5
REMARK    3  A    between atoms: C_21  and  C_22
REMARK    4  A    between atoms: C_23  and  N_24
REMARK                            x       y       z     vdW  Elec       q    Type
REMARK                         _______ _______ _______ _____ _____    ______ ____
ROOT
ATOM      1  C   UNL     1       6.744   4.485  16.352  0.00  0.00    +0.000 C 
ATOM      2  N   UNL     1       7.861   4.312  17.008  0.00  0.00    +0.000 NA
ATOM      3  N   UNL     1       7.893   4.328  18.373  0.00  0.00    +0.000 N 
ATOM      4  C   UNL     1       7.449   5.372  19.161  0.00  0.00    +0.000 C 
ATOM      5  O   UNL     1       7.850   5.505  20.316  0.00  0.00    +0.000 OA
ATOM      6  C   UNL     1       6.449   6.323  18.543  0.00  0.00    +0.000 C 
ATOM      7  C   UNL     1       5.250   5.553  18.063  0.00  0.00    +0.000 A 
ATOM      8  C   UNL     1       4.025   5.636  18.739  0.00  0.00    +0.000 A 
ATOM      9  C   UNL     1       3.016   4.782  18.347  0.00  0.00    +0.000 A 
ATOM     10  C   UNL     1       3.175   3.897  17.306  0.00  0.00    +0.000 A 
ATOM     11  C   UNL     1       4.350   3.808  16.593  0.00  0.00    +0.000 A 
ATOM     12  C   UNL     1       5.408   4.636  16.996  0.00  0.00    +0.000 A 
ATOM     13  O   UNL     1       2.075   3.119  17.119  0.00  0.00    +0.000 OA
ATOM     14  C   UNL     1       1.276   3.512  18.255  0.00  0.00    +0.000 C 
ATOM     15  O   UNL     1       1.800   4.667  18.943  0.00  0.00    +0.000 OA
ATOM     16  H   UNL     1       8.677   3.830  18.785  0.00  0.00    +0.000 HD
ENDROOT
BRANCH   1  20
ATOM     17  C   UNL     1       5.313   2.553  11.968  0.00  0.00    +0.000 C 
ATOM     18  C   UNL     1       6.143   3.566  12.712  0.00  0.00    +0.000 A 
ATOM     19  C   UNL     1       6.071   3.593  14.115  0.00  0.00    +0.000 A 
ATOM     20  C   UNL     1       6.824   4.508  14.855  0.00  0.00    +0.000 A 
ATOM     21  C   UNL     1       7.681   5.388  14.189  0.00  0.00    +0.000 A 
ATOM     22  C   UNL     1       7.773   5.373  12.786  0.00  0.00    +0.000 A 
ATOM     23  C   UNL     1       8.729   6.326  12.119  0.00  0.00    +0.000 C 
ATOM     24  C   UNL     1       6.972   4.485  12.033  0.00  0.00    +0.000 A 
BRANCH  24  25
ATOM     25  N   UNL     1       7.176   4.357  10.648  0.00  0.00    +0.000 N 
ATOM     26  H   UNL     1       6.568   4.932  10.077  0.00  0.00    +0.000 HD
ATOM     27  H   UNL     1       7.209   3.400  10.315  0.00  0.00    +0.000 HD
ENDBRANCH  24  25
ENDBRANCH   1  20
TORSDOF 2
ENDMDL
MODEL 9
REMARK VINA RESULT:      -7.0      4.504      8.097
REMARK  Name = 
REMARK  4 active torsions:
REMARK  status: ('A' for Active; 'I' for Inactive)
REMARK    1  A    between atoms: C_1  and  C_2
REMARK    2  A    between atoms: C_4  and  C_5
REMARK    3  A    between atoms: C_21  and  C_22
REMARK    4  A    between atoms: C_23  and  N_24
REMARK                            x       y       z     vdW  Elec       q    Type
REMARK                         _______ _______ _______ _____ _____    ______ ____
ROOT
ATOM      1  C   UNL     1      -0.790  10.481  19.974  0.00  0.00    +0.000 C 
ATOM      2  N   UNL     1      -0.796  11.175  21.082  0.00  0.00    +0.000 NA
ATOM      3  N   UNL     1       0.099  10.926  22.083  0.00  0.00    +0.000 N 
ATOM      4  C   UNL     1       0.267   9.704  22.704  0.00  0.00    +0.000 C 
ATOM      5  O   UNL     1       0.776   9.631  23.822  0.00  0.00    +0.000 OA
ATOM      6  C   UNL     1      -0.190   8.478  21.947  0.00  0.00    +0.000 C 
ATOM      7  C   UNL     1       0.500   8.424  20.612  0.00  0.00    +0.000 A 
ATOM      8  C   UNL     1       1.506   7.482  20.360  0.00  0.00    +0.000 A 
ATOM      9  C   UNL     1       2.208   7.592  19.179  0.00  0.00    +0.000 A 
ATOM     10  C   UNL     1       1.920   8.565  18.249  0.00  0.00    +0.000 A 
ATOM     11  C   UNL     1       0.916   9.488  18.442  0.00  0.00    +0.000 A 
ATOM     12  C   UNL     1       0.212   9.425  19.653  0.00  0.00    +0.000 A 
ATOM     13  O   UNL     1       2.762   8.522  17.181  0.00  0.00    +0.000 OA
ATOM     14  C   UNL     1       3.699   7.517  17.623  0.00  0.00    +0.000 C 
ATOM     15  O   UNL     1       3.267   6.823  18.812  0.00  0.00    +0.000 OA
ATOM     16  H   UNL     1       0.271  11.711  22.704  0.00  0.00    +0.000 HD
ENDROOT
BRANCH   1  20
ATOM     17  C   UNL     1      -5.175  12.632  18.907  0.00  0.00    +0.000 C 
ATOM     18  C   UNL     1      -3.993  11.828  18.433  0.00  0.00    +0.000 A 
ATOM     19  C   UNL     1      -2.966  11.540  19.348  0.00  0.00    +0.000 A 
ATOM     20  C   UNL     1      -1.850  10.794  18.962  0.00  0.00    +0.000 A 
ATOM     21  C   UNL     1      -1.770  10.305  17.656  0.00  0.00    +0.000 A 
ATOM     22  C   UNL     1      -2.791  10.576  16.726  0.00  0.00    +0.000 A 
ATOM     23  C   UNL     1      -2.667  10.006  15.338  0.00  0.00    +0.000 C 
ATOM     24  C   UNL     1      -3.894  11.376  17.099  0.00  0.00    +0.000 A 
BRANCH  24  25
ATOM     25  N   UNL     1      -4.987  11.516  16.226  0.00  0.00    +0.000 N 
ATOM     26  H   UNL     1      -4.798  12.070  15.399  0.00  0.00    +0.000 HD
ATOM     27  H   UNL     1      -5.851  11.797  16.677  0.00  0.00    +0.000 HD
ENDBRANCH  24  25
ENDBRANCH   1  20
TORSDOF 2
ENDMDL
