MODEL 1
REMARK VINA RESULT:      -8.1      0.000      0.000
REMARK  Name = 
REMARK  5 active torsions:
REMARK  status: ('A' for Active; 'I' for Inactive)
REMARK    1  A    between atoms: C_2  and  C_3
REMARK    2  A    between atoms: C_5  and  N_6
REMARK    3  A    between atoms: C_12  and  N_13
REMARK    4  A    between atoms: C_15  and  C_16
REMARK    5  A    between atoms: N_20  and  C_21
REMARK                            x       y       z     vdW  Elec       q    Type
REMARK                         _______ _______ _______ _____ _____    ______ ____
ROOT
ATOM      1  N   UNL     1       2.029   7.825  19.701  0.00  0.00    +0.000 N 
ATOM      2  C   UNL     1       1.546   6.966  20.640  0.00  0.00    +0.000 A 
ATOM      3  C   UNL     1       1.863   5.689  20.196  0.00  0.00    +0.000 A 
ATOM      4  C   UNL     1       2.538   5.901  18.959  0.00  0.00    +0.000 A 
ATOM      5  N   UNL     1       2.960   4.927  18.116  0.00  0.00    +0.000 N 
ATOM      6  N   UNL     1       2.636   7.204  18.691  0.00  0.00    +0.000 NA
ATOM      7  H   UNL     1       2.555   3.999  18.190  0.00  0.00    +0.000 HD
ENDROOT
BRANCH   5   8
ATOM      8  C   UNL     1       4.034   4.991  17.201  0.00  0.00    +0.000 A 
ATOM      9  C   UNL     1       4.511   6.218  16.707  0.00  0.00    +0.000 A 
ATOM     10  C   UNL     1       5.539   6.273  15.769  0.00  0.00    +0.000 A 
ATOM     11  C   UNL     1       6.096   5.090  15.291  0.00  0.00    +0.000 A 
ATOM     12 CL   UNL     1       7.354   5.146  14.120  0.00  0.00    +0.000 Cl
ATOM     13  C   UNL     1       5.628   3.859  15.755  0.00  0.00    +0.000 A 
ATOM     14  C   UNL     1       4.604   3.814  16.707  0.00  0.00    +0.000 A 
ENDBRANCH   5   8
BRANCH   1  20
ATOM     15  C   UNL     1       0.805   9.739  20.669  0.00  0.00    +0.000 C 
ATOM     16  C   UNL     1      -0.635   9.523  20.175  0.00  0.00    +0.000 C 
ATOM     17  C   UNL     1      -0.888  10.102  18.765  0.00  0.00    +0.000 C 
ATOM     18  C   UNL     1       0.156   9.596  17.750  0.00  0.00    +0.000 C 
ATOM     19  C   UNL     1       1.597   9.797  18.235  0.00  0.00    +0.000 C 
ATOM     20  C   UNL     1       1.870   9.278  19.658  0.00  0.00    +0.000 C 
BRANCH  17  21
ATOM     21  N   UNL     1      -2.240   9.961  18.186  0.00  0.00    +0.000 NA
ATOM     22  C   UNL     1      -2.212   9.860  16.713  0.00  0.00    +0.000 C 
ATOM     23  C   UNL     1      -2.641  11.333  16.611  0.00  0.00    +0.000 C 
ATOM     24  C   UNL     1      -3.032  11.205  18.094  0.00  0.00    +0.000 C 
ENDBRANCH  17  21
BRANCH  15  26
ATOM     25  N   UNL     1       1.165  12.287  21.236  0.00  0.00    +0.000 NA
ATOM     26  C   UNL     1       1.013  11.164  20.994  0.00  0.00    +0.000 C 
ENDBRANCH  15  26
ENDBRANCH   1  20
BRANCH   3  27
ATOM     27  C   UNL     1       1.603   4.442  20.883  0.00  0.00    +0.000 C 
ATOM     28  N   UNL     1       0.551   3.714  20.402  0.00  0.00    +0.000 N 
ATOM     29  O   UNL     1       2.276   4.024  21.818  0.00  0.00    +0.000 OA
ATOM     30  H   UNL     1       0.146   3.902  19.495  0.00  0.00    +0.000 HD
ATOM     31  H   UNL     1       0.394   2.806  20.817  0.00  0.00    +0.000 HD
ENDBRANCH   3  27
TORSDOF 5
ENDMDL
MODEL 2
REMARK VINA RESULT:      -7.2      3.266      7.703
REMARK  Name = 
REMARK  5 active torsions:
REMARK  status: ('A' for Active; 'I' for Inactive)
REMARK    1  A    between atoms: C_2  and  C_3
REMARK    2  A    between atoms: C_5  and  N_6
REMARK    3  A    between atoms: C_12  and  N_13
REMARK    4  A    between atoms: C_15  and  C_16
REMARK    5  A    between atoms: N_20  and  C_21
REMARK                            x       y       z     vdW  Elec       q    Type
REMARK                         _______ _______ _______ _____ _____    ______ ____
ROOT
ATOM      1  N   UNL     1       3.131   5.327  17.981  0.00  0.00    +0.000 N 
ATOM      2  C   UNL     1       2.830   4.176  18.642  0.00  0.00    +0.000 A 
ATOM      3  C   UNL     1       2.267   4.560  19.852  0.00  0.00    +0.000 A 
ATOM      4  C   UNL     1       2.286   5.985  19.815  0.00  0.00    +0.000 A 
ATOM      5  N   UNL     1       1.911   6.803  20.828  0.00  0.00    +0.000 N 
ATOM      6  N   UNL     1       2.802   6.421  18.664  0.00  0.00    +0.000 NA
ATOM      7  H   UNL     1       1.870   6.434  21.773  0.00  0.00    +0.000 HD
ENDROOT
BRANCH   5   8
ATOM      8  C   UNL     1       1.411   8.120  20.726  0.00  0.00    +0.000 A 
ATOM      9  C   UNL     1       1.387   8.808  19.500  0.00  0.00    +0.000 A 
ATOM     10  C   UNL     1       0.938  10.124  19.413  0.00  0.00    +0.000 A 
ATOM     11  C   UNL     1       0.521  10.783  20.566  0.00  0.00    +0.000 A 
ATOM     12 CL   UNL     1      -0.020  12.413  20.474  0.00  0.00    +0.000 Cl
ATOM     13  C   UNL     1       0.550  10.126  21.798  0.00  0.00    +0.000 A 
ATOM     14  C   UNL     1       0.991   8.801  21.873  0.00  0.00    +0.000 A 
ENDBRANCH   5   8
BRANCH   1  20
ATOM     15  C   UNL     1       4.757   4.261  16.458  0.00  0.00    +0.000 C 
ATOM     16  C   UNL     1       6.080   4.349  17.236  0.00  0.00    +0.000 C 
ATOM     17  C   UNL     1       6.812   5.696  17.040  0.00  0.00    +0.000 C 
ATOM     18  C   UNL     1       5.884   6.892  17.333  0.00  0.00    +0.000 C 
ATOM     19  C   UNL     1       4.557   6.811  16.570  0.00  0.00    +0.000 C 
ATOM     20  C   UNL     1       3.826   5.462  16.701  0.00  0.00    +0.000 C 
BRANCH  17  21
ATOM     21  N   UNL     1       8.101   5.896  17.734  0.00  0.00    +0.000 NA
ATOM     22  C   UNL     1       8.351   4.868  18.763  0.00  0.00    +0.000 C 
ATOM     23  C   UNL     1       7.943   5.870  19.855  0.00  0.00    +0.000 C 
ATOM     24  C   UNL     1       8.115   6.949  18.771  0.00  0.00    +0.000 C 
ENDBRANCH  17  21
BRANCH  15  26
ATOM     25  N   UNL     1       5.268   4.023  13.883  0.00  0.00    +0.000 NA
ATOM     26  C   UNL     1       5.034   4.133  15.013  0.00  0.00    +0.000 C 
ENDBRANCH  15  26
ENDBRANCH   1  20
BRANCH   3  27
ATOM     27  C   UNL     1       1.737   3.689  20.878  0.00  0.00    +0.000 C 
ATOM     28  N   UNL     1       0.662   2.930  20.509  0.00  0.00    +0.000 N 
ATOM     29  O   UNL     1       2.213   3.592  22.004  0.00  0.00    +0.000 OA
ATOM     30  H   UNL     1       0.412   2.801  19.539  0.00  0.00    +0.000 HD
ATOM     31  H   UNL     1       0.320   2.261  21.184  0.00  0.00    +0.000 HD
ENDBRANCH   3  27
TORSDOF 5
ENDMDL
MODEL 3
REMARK VINA RESULT:      -7.1      3.450      7.410
REMARK  Name = 
REMARK  5 active torsions:
REMARK  status: ('A' for Active; 'I' for Inactive)
REMARK    1  A    between atoms: C_2  and  C_3
REMARK    2  A    between atoms: C_5  and  N_6
REMARK    3  A    between atoms: C_12  and  N_13
REMARK    4  A    between atoms: C_15  and  C_16
REMARK    5  A    between atoms: N_20  and  C_21
REMARK                            x       y       z     vdW  Elec       q    Type
REMARK                         _______ _______ _______ _____ _____    ______ ____
ROOT
ATOM      1  N   UNL     1       4.760   5.137  18.879  0.00  0.00    +0.000 N 
ATOM      2  C   UNL     1       4.258   3.873  18.930  0.00  0.00    +0.000 A 
ATOM      3  C   UNL     1       3.048   3.965  19.606  0.00  0.00    +0.000 A 
ATOM      4  C   UNL     1       2.925   5.348  19.927  0.00  0.00    +0.000 A 
ATOM      5  N   UNL     1       1.934   5.898  20.669  0.00  0.00    +0.000 N 
ATOM      6  N   UNL     1       3.970   6.035  19.462  0.00  0.00    +0.000 NA
ATOM      7  H   UNL     1       1.382   5.302  21.278  0.00  0.00    +0.000 HD
ENDROOT
BRANCH   5   8
ATOM      8  C   UNL     1       1.448   7.223  20.603  0.00  0.00    +0.000 A 
ATOM      9  C   UNL     1       0.603   7.749  21.597  0.00  0.00    +0.000 A 
ATOM     10  C   UNL     1       0.087   9.040  21.502  0.00  0.00    +0.000 A 
ATOM     11  C   UNL     1       0.395   9.822  20.393  0.00  0.00    +0.000 A 
ATOM     12 CL   UNL     1      -0.250  11.411  20.259  0.00  0.00    +0.000 Cl
ATOM     13  C   UNL     1       1.220   9.315  19.386  0.00  0.00    +0.000 A 
ATOM     14  C   UNL     1       1.743   8.023  19.496  0.00  0.00    +0.000 A 
ENDBRANCH   5   8
BRANCH   1  20
ATOM     15  C   UNL     1       5.915   6.839  17.511  0.00  0.00    +0.000 C 
ATOM     16  C   UNL     1       5.374   6.580  16.095  0.00  0.00    +0.000 C 
ATOM     17  C   UNL     1       6.150   5.477  15.341  0.00  0.00    +0.000 C 
ATOM     18  C   UNL     1       6.246   4.183  16.172  0.00  0.00    +0.000 C 
ATOM     19  C   UNL     1       6.776   4.429  17.590  0.00  0.00    +0.000 C 
ATOM     20  C   UNL     1       6.058   5.558  18.352  0.00  0.00    +0.000 C 
BRANCH  17  21
ATOM     21  N   UNL     1       5.726   5.143  13.965  0.00  0.00    +0.000 NA
ATOM     22  C   UNL     1       5.221   3.761  13.852  0.00  0.00    +0.000 C 
ATOM     23  C   UNL     1       6.559   3.329  13.231  0.00  0.00    +0.000 C 
ATOM     24  C   UNL     1       6.815   4.830  13.015  0.00  0.00    +0.000 C 
ENDBRANCH  17  21
BRANCH  15  26
ATOM     25  N   UNL     1       8.234   8.084  17.375  0.00  0.00    +0.000 NA
ATOM     26  C   UNL     1       7.218   7.528  17.429  0.00  0.00    +0.000 C 
ENDBRANCH  15  26
ENDBRANCH   1  20
BRANCH   3  27
ATOM     27  C   UNL     1       2.115   2.889  19.864  0.00  0.00    +0.000 C 
ATOM     28  N   UNL     1       2.174   1.837  18.995  0.00  0.00    +0.000 N 
ATOM     29  O   UNL     1       1.331   2.878  20.807  0.00  0.00    +0.000 OA
ATOM     30  H   UNL     1       2.962   1.704  18.376  0.00  0.00    +0.000 HD
ATOM     31  H   UNL     1       1.584   1.042  19.196  0.00  0.00    +0.000 HD
ENDBRANCH   3  27
TORSDOF 5
ENDMDL
MODEL 4
REMARK VINA RESULT:      -6.8      3.984      6.496
REMARK  Name = 
REMARK  5 active torsions:
REMARK  status: ('A' for Active; 'I' for Inactive)
REMARK    1  A    between atoms: C_2  and  C_3
REMARK    2  A    between atoms: C_5  and  N_6
REMARK    3  A    between atoms: C_12  and  N_13
REMARK    4  A    between atoms: C_15  and  C_16
REMARK    5  A    between atoms: N_20  and  C_21
REMARK                            x       y       z     vdW  Elec       q    Type
REMARK                         _______ _______ _______ _____ _____    ______ ____
ROOT
ATOM      1  N   UNL     1       4.163   6.612  17.735  0.00  0.00    +0.000 N 
ATOM      2  C   UNL     1       4.523   5.512  17.019  0.00  0.00    +0.000 A 
ATOM      3  C   UNL     1       5.820   5.745  16.579  0.00  0.00    +0.000 A 
ATOM      4  C   UNL     1       6.140   7.037  17.088  0.00  0.00    +0.000 A 
ATOM      5  N   UNL     1       7.283   7.720  16.835  0.00  0.00    +0.000 N 
ATOM      6  N   UNL     1       5.123   7.531  17.795  0.00  0.00    +0.000 NA
ATOM      7  H   UNL     1       7.846   7.464  16.031  0.00  0.00    +0.000 HD
ENDROOT
BRANCH   5   8
ATOM      8  C   UNL     1       7.899   8.692  17.654  0.00  0.00    +0.000 A 
ATOM      9  C   UNL     1       7.921  10.052  17.297  0.00  0.00    +0.000 A 
ATOM     10  C   UNL     1       8.572  11.000  18.084  0.00  0.00    +0.000 A 
ATOM     11  C   UNL     1       9.234  10.594  19.239  0.00  0.00    +0.000 A 
ATOM     12 CL   UNL     1      10.055  11.752  20.209  0.00  0.00    +0.000 Cl
ATOM     13  C   UNL     1       9.239   9.246  19.606  0.00  0.00    +0.000 A 
ATOM     14  C   UNL     1       8.572   8.304  18.817  0.00  0.00    +0.000 A 
ENDBRANCH   5   8
BRANCH   1  20
ATOM     15  C   UNL     1       2.890   6.656  19.851  0.00  0.00    +0.000 C 
ATOM     16  C   UNL     1       2.790   5.170  20.233  0.00  0.00    +0.000 C 
ATOM     17  C   UNL     1       1.603   4.447  19.559  0.00  0.00    +0.000 C 
ATOM     18  C   UNL     1       1.607   4.655  18.031  0.00  0.00    +0.000 C 
ATOM     19  C   UNL     1       1.716   6.133  17.637  0.00  0.00    +0.000 C 
ATOM     20  C   UNL     1       2.858   6.897  18.331  0.00  0.00    +0.000 C 
BRANCH  17  21
ATOM     21  N   UNL     1       1.399   3.014  19.856  0.00  0.00    +0.000 NA
ATOM     22  C   UNL     1       2.628   2.361  20.348  0.00  0.00    +0.000 C 
ATOM     23  C   UNL     1       2.847   1.741  18.958  0.00  0.00    +0.000 C 
ATOM     24  C   UNL     1       1.379   2.112  18.685  0.00  0.00    +0.000 C 
ENDBRANCH  17  21
BRANCH  15  26
ATOM     25  N   UNL     1       0.941   8.016  20.989  0.00  0.00    +0.000 NA
ATOM     26  C   UNL     1       1.799   7.412  20.497  0.00  0.00    +0.000 C 
ENDBRANCH  15  26
ENDBRANCH   1  20
BRANCH   3  27
ATOM     27  C   UNL     1       6.654   4.838  15.820  0.00  0.00    +0.000 C 
ATOM     28  N   UNL     1       6.290   3.522  15.870  0.00  0.00    +0.000 N 
ATOM     29  O   UNL     1       7.612   5.196  15.144  0.00  0.00    +0.000 OA
ATOM     30  H   UNL     1       5.380   3.236  16.201  0.00  0.00    +0.000 HD
ATOM     31  H   UNL     1       6.813   2.880  15.290  0.00  0.00    +0.000 HD
ENDBRANCH   3  27
TORSDOF 5
ENDMDL
MODEL 5
REMARK VINA RESULT:      -6.8      3.373      7.356
REMARK  Name = 
REMARK  5 active torsions:
REMARK  status: ('A' for Active; 'I' for Inactive)
REMARK    1  A    between atoms: C_2  and  C_3
REMARK    2  A    between atoms: C_5  and  N_6
REMARK    3  A    between atoms: C_12  and  N_13
REMARK    4  A    between atoms: C_15  and  C_16
REMARK    5  A    between atoms: N_20  and  C_21
REMARK                            x       y       z     vdW  Elec       q    Type
REMARK                         _______ _______ _______ _____ _____    ______ ____
ROOT
ATOM      1  N   UNL     1       4.427   5.212  19.173  0.00  0.00    +0.000 N 
ATOM      2  C   UNL     1       3.732   4.042  19.142  0.00  0.00    +0.000 A 
ATOM      3  C   UNL     1       2.482   4.319  19.681  0.00  0.00    +0.000 A 
ATOM      4  C   UNL     1       2.540   5.704  20.015  0.00  0.00    +0.000 A 
ATOM      5  N   UNL     1       1.568   6.400  20.653  0.00  0.00    +0.000 N 
ATOM      6  N   UNL     1       3.724   6.221  19.683  0.00  0.00    +0.000 NA
ATOM      7  H   UNL     1       0.865   5.895  21.184  0.00  0.00    +0.000 HD
ENDROOT
BRANCH   5   8
ATOM      8  C   UNL     1       1.303   7.784  20.560  0.00  0.00    +0.000 A 
ATOM      9  C   UNL     1       1.387   8.471  19.336  0.00  0.00    +0.000 A 
ATOM     10  C   UNL     1       1.172   9.846  19.258  0.00  0.00    +0.000 A 
ATOM     11  C   UNL     1       0.887  10.562  20.417  0.00  0.00    +0.000 A 
ATOM     12 CL   UNL     1       0.636  12.261  20.335  0.00  0.00    +0.000 Cl
ATOM     13  C   UNL     1       0.814   9.904  21.647  0.00  0.00    +0.000 A 
ATOM     14  C   UNL     1       1.019   8.522  21.713  0.00  0.00    +0.000 A 
ENDBRANCH   5   8
BRANCH   1  20
ATOM     15  C   UNL     1       5.995   6.772  18.074  0.00  0.00    +0.000 C 
ATOM     16  C   UNL     1       5.565   6.723  16.599  0.00  0.00    +0.000 C 
ATOM     17  C   UNL     1       6.210   5.557  15.816  0.00  0.00    +0.000 C 
ATOM     18  C   UNL     1       5.992   4.208  16.530  0.00  0.00    +0.000 C 
ATOM     19  C   UNL     1       6.409   4.246  18.005  0.00  0.00    +0.000 C 
ATOM     20  C   UNL     1       5.825   5.427  18.803  0.00  0.00    +0.000 C 
BRANCH  17  21
ATOM     21  N   UNL     1       5.877   5.411  14.384  0.00  0.00    +0.000 NA
ATOM     22  C   UNL     1       5.194   4.135  14.093  0.00  0.00    +0.000 C 
ATOM     23  C   UNL     1       6.511   3.563  13.544  0.00  0.00    +0.000 C 
ATOM     24  C   UNL     1       6.997   5.022  13.501  0.00  0.00    +0.000 C 
ENDBRANCH  17  21
BRANCH  15  26
ATOM     25  N   UNL     1       8.497   7.581  18.248  0.00  0.00    +0.000 NA
ATOM     26  C   UNL     1       7.400   7.215  18.171  0.00  0.00    +0.000 C 
ENDBRANCH  15  26
ENDBRANCH   1  20
BRANCH   3  27
ATOM     27  C   UNL     1       1.371   3.402  19.812  0.00  0.00    +0.000 C 
ATOM     28  N   UNL     1       1.037   3.063  21.093  0.00  0.00    +0.000 N 
ATOM     29  O   UNL     1       0.734   2.962  18.862  0.00  0.00    +0.000 OA
ATOM     30  H   UNL     1       1.369   3.593  21.886  0.00  0.00    +0.000 HD
ATOM     31  H   UNL     1       0.219   2.481  21.214  0.00  0.00    +0.000 HD
ENDBRANCH   3  27
TORSDOF 5
ENDMDL
MODEL 6
REMARK VINA RESULT:      -6.7      3.363      7.750
REMARK  Name = 
REMARK  5 active torsions:
REMARK  status: ('A' for Active; 'I' for Inactive)
REMARK    1  A    between atoms: C_2  and  C_3
REMARK    2  A    between atoms: C_5  and  N_6
REMARK    3  A    between atoms: C_12  and  N_13
REMARK    4  A    between atoms: C_15  and  C_16
REMARK    5  A    between atoms: N_20  and  C_21
REMARK                            x       y       z     vdW  Elec       q    Type
REMARK                         _______ _______ _______ _____ _____    ______ ____
ROOT
ATOM      1  N   UNL     1       3.455   4.853  17.086  0.00  0.00    +0.000 N 
ATOM      2  C   UNL     1       2.944   3.663  17.503  0.00  0.00    +0.000 A 
ATOM      3  C   UNL     1       2.238   3.932  18.669  0.00  0.00    +0.000 A 
ATOM      4  C   UNL     1       2.402   5.334  18.867  0.00  0.00    +0.000 A 
ATOM      5  N   UNL     1       1.955   6.035  19.936  0.00  0.00    +0.000 N 
ATOM      6  N   UNL     1       3.131   5.867  17.885  0.00  0.00    +0.000 NA
ATOM      7  H   UNL     1       1.730   5.540  20.794  0.00  0.00    +0.000 HD
ENDROOT
BRANCH   5   8
ATOM      8  C   UNL     1       1.607   7.404  19.981  0.00  0.00    +0.000 A 
ATOM      9  C   UNL     1       1.745   8.237  18.856  0.00  0.00    +0.000 A 
ATOM     10  C   UNL     1       1.447   9.596  18.919  0.00  0.00    +0.000 A 
ATOM     11  C   UNL     1       1.021  10.150  20.122  0.00  0.00    +0.000 A 
ATOM     12 CL   UNL     1       0.665  11.830  20.215  0.00  0.00    +0.000 Cl
ATOM     13  C   UNL     1       0.891   9.346  21.257  0.00  0.00    +0.000 A 
ATOM     14  C   UNL     1       1.181   7.979  21.181  0.00  0.00    +0.000 A 
ENDBRANCH   5   8
BRANCH   1  20
ATOM     15  C   UNL     1       5.421   3.986  15.869  0.00  0.00    +0.000 C 
ATOM     16  C   UNL     1       6.569   4.174  16.874  0.00  0.00    +0.000 C 
ATOM     17  C   UNL     1       7.191   5.587  16.830  0.00  0.00    +0.000 C 
ATOM     18  C   UNL     1       6.116   6.683  16.965  0.00  0.00    +0.000 C 
ATOM     19  C   UNL     1       4.961   6.503  15.973  0.00  0.00    +0.000 C 
ATOM     20  C   UNL     1       4.351   5.089  15.954  0.00  0.00    +0.000 C 
BRANCH  17  21
ATOM     21  N   UNL     1       8.310   5.886  17.747  0.00  0.00    +0.000 NA
ATOM     22  C   UNL     1       8.408   4.911  18.851  0.00  0.00    +0.000 C 
ATOM     23  C   UNL     1       7.747   5.925  19.797  0.00  0.00    +0.000 C 
ATOM     24  C   UNL     1       8.072   6.974  18.719  0.00  0.00    +0.000 C 
ENDBRANCH  17  21
BRANCH  15  26
ATOM     25  N   UNL     1       6.406   3.881  13.427  0.00  0.00    +0.000 NA
ATOM     26  C   UNL     1       5.963   3.926  14.497  0.00  0.00    +0.000 C 
ENDBRANCH  15  26
ENDBRANCH   1  20
BRANCH   3  27
ATOM     27  C   UNL     1       1.473   2.990  19.457  0.00  0.00    +0.000 C 
ATOM     28  N   UNL     1       1.610   1.678  19.102  0.00  0.00    +0.000 N 
ATOM     29  O   UNL     1       0.761   3.311  20.402  0.00  0.00    +0.000 OA
ATOM     30  H   UNL     1       2.366   1.365  18.508  0.00  0.00    +0.000 HD
ATOM     31  H   UNL     1       1.143   0.995  19.682  0.00  0.00    +0.000 HD
ENDBRANCH   3  27
TORSDOF 5
ENDMDL
MODEL 7
REMARK VINA RESULT:      -6.7      4.783      6.753
REMARK  Name = 
REMARK  5 active torsions:
REMARK  status: ('A' for Active; 'I' for Inactive)
REMARK    1  A    between atoms: C_2  and  C_3
REMARK    2  A    between atoms: C_5  and  N_6
REMARK    3  A    between atoms: C_12  and  N_13
REMARK    4  A    between atoms: C_15  and  C_16
REMARK    5  A    between atoms: N_20  and  C_21
REMARK                            x       y       z     vdW  Elec       q    Type
REMARK                         _______ _______ _______ _____ _____    ______ ____
ROOT
ATOM      1  N   UNL     1       2.031  13.224  19.110  0.00  0.00    +0.000 N 
ATOM      2  C   UNL     1       0.735  13.626  19.005  0.00  0.00    +0.000 A 
ATOM      3  C   UNL     1       0.008  12.499  18.646  0.00  0.00    +0.000 A 
ATOM      4  C   UNL     1       0.983  11.463  18.553  0.00  0.00    +0.000 A 
ATOM      5  N   UNL     1       0.745  10.194  18.143  0.00  0.00    +0.000 N 
ATOM      6  N   UNL     1       2.197  11.929  18.854  0.00  0.00    +0.000 NA
ATOM      7  H   UNL     1      -0.091   9.996  17.603  0.00  0.00    +0.000 HD
ENDROOT
BRANCH   5   8
ATOM      8  C   UNL     1       1.460   9.029  18.500  0.00  0.00    +0.000 A 
ATOM      9  C   UNL     1       1.365   8.470  19.787  0.00  0.00    +0.000 A 
ATOM     10  C   UNL     1       2.109   7.349  20.149  0.00  0.00    +0.000 A 
ATOM     11  C   UNL     1       2.982   6.779  19.227  0.00  0.00    +0.000 A 
ATOM     12 CL   UNL     1       3.918   5.405  19.668  0.00  0.00    +0.000 Cl
ATOM     13  C   UNL     1       3.105   7.325  17.947  0.00  0.00    +0.000 A 
ATOM     14  C   UNL     1       2.344   8.443  17.589  0.00  0.00    +0.000 A 
ENDBRANCH   5   8
BRANCH   1  20
ATOM     15  C   UNL     1       2.923  15.040  20.527  0.00  0.00    +0.000 C 
ATOM     16  C   UNL     1       2.095  16.262  20.097  0.00  0.00    +0.000 C 
ATOM     17  C   UNL     1       2.669  16.978  18.854  0.00  0.00    +0.000 C 
ATOM     18  C   UNL     1       2.901  15.994  17.691  0.00  0.00    +0.000 C 
ATOM     19  C   UNL     1       3.718  14.766  18.109  0.00  0.00    +0.000 C 
ATOM     20  C   UNL     1       3.203  14.058  19.376  0.00  0.00    +0.000 C 
BRANCH  17  21
ATOM     21  N   UNL     1       1.963  18.173  18.349  0.00  0.00    +0.000 NA
ATOM     22  C   UNL     1       0.613  18.316  18.930  0.00  0.00    +0.000 C 
ATOM     23  C   UNL     1       0.003  17.767  17.630  0.00  0.00    +0.000 C 
ATOM     24  C   UNL     1       1.377  18.051  16.998  0.00  0.00    +0.000 C 
ENDBRANCH  17  21
BRANCH  15  26
ATOM     25  N   UNL     1       5.202  15.817  21.597  0.00  0.00    +0.000 NA
ATOM     26  C   UNL     1       4.198  15.485  21.122  0.00  0.00    +0.000 C 
ENDBRANCH  15  26
ENDBRANCH   1  20
BRANCH   3  27
ATOM     27  C   UNL     1      -1.425  12.412  18.465  0.00  0.00    +0.000 C 
ATOM     28  N   UNL     1      -1.844  12.188  17.184  0.00  0.00    +0.000 N 
ATOM     29  O   UNL     1      -2.235  12.500  19.381  0.00  0.00    +0.000 OA
ATOM     30  H   UNL     1      -1.209  11.865  16.467  0.00  0.00    +0.000 HD
ATOM     31  H   UNL     1      -2.835  12.051  17.043  0.00  0.00    +0.000 HD
ENDBRANCH   3  27
TORSDOF 5
ENDMDL
MODEL 8
REMARK VINA RESULT:      -6.6      3.392      7.278
REMARK  Name = 
REMARK  5 active torsions:
REMARK  status: ('A' for Active; 'I' for Inactive)
REMARK    1  A    between atoms: C_2  and  C_3
REMARK    2  A    between atoms: C_5  and  N_6
REMARK    3  A    between atoms: C_12  and  N_13
REMARK    4  A    between atoms: C_15  and  C_16
REMARK    5  A    between atoms: N_20  and  C_21
REMARK                            x       y       z     vdW  Elec       q    Type
REMARK                         _______ _______ _______ _____ _____    ______ ____
ROOT
ATOM      1  N   UNL     1       1.593   8.410  20.081  0.00  0.00    +0.000 N 
ATOM      2  C   UNL     1       1.302   8.589  21.398  0.00  0.00    +0.000 A 
ATOM      3  C   UNL     1       0.217   9.456  21.440  0.00  0.00    +0.000 A 
ATOM      4  C   UNL     1      -0.059   9.744  20.072  0.00  0.00    +0.000 A 
ATOM      5  N   UNL     1      -0.990  10.622  19.626  0.00  0.00    +0.000 N 
ATOM      6  N   UNL     1       0.781   9.085  19.272  0.00  0.00    +0.000 NA
ATOM      7  H   UNL     1      -1.340  11.336  20.257  0.00  0.00    +0.000 HD
ENDROOT
BRANCH   5   8
ATOM      8  C   UNL     1      -1.675  10.591  18.391  0.00  0.00    +0.000 A 
ATOM      9  C   UNL     1      -2.787  11.416  18.144  0.00  0.00    +0.000 A 
ATOM     10  C   UNL     1      -3.489  11.348  16.942  0.00  0.00    +0.000 A 
ATOM     11  C   UNL     1      -3.097  10.431  15.970  0.00  0.00    +0.000 A 
ATOM     12 CL   UNL     1      -3.966  10.327  14.490  0.00  0.00    +0.000 Cl
ATOM     13  C   UNL     1      -2.005   9.591  16.199  0.00  0.00    +0.000 A 
ATOM     14  C   UNL     1      -1.299   9.676  17.403  0.00  0.00    +0.000 A 
ENDBRANCH   5   8
BRANCH   1  20
ATOM     15  C   UNL     1       2.441   7.318  18.034  0.00  0.00    +0.000 C 
ATOM     16  C   UNL     1       1.486   6.128  17.848  0.00  0.00    +0.000 C 
ATOM     17  C   UNL     1       1.903   4.881  18.660  0.00  0.00    +0.000 C 
ATOM     18  C   UNL     1       2.123   5.222  20.147  0.00  0.00    +0.000 C 
ATOM     19  C   UNL     1       3.067   6.414  20.347  0.00  0.00    +0.000 C 
ATOM     20  C   UNL     1       2.710   7.657  19.511  0.00  0.00    +0.000 C 
BRANCH  17  21
ATOM     21  N   UNL     1       1.064   3.669  18.556  0.00  0.00    +0.000 NA
ATOM     22  C   UNL     1       0.827   3.035  19.868  0.00  0.00    +0.000 C 
ATOM     23  C   UNL     1       1.889   1.973  19.540  0.00  0.00    +0.000 C 
ATOM     24  C   UNL     1       1.753   2.449  18.083  0.00  0.00    +0.000 C 
ENDBRANCH  17  21
BRANCH  15  26
ATOM     25  N   UNL     1       4.718   6.814  16.805  0.00  0.00    +0.000 NA
ATOM     26  C   UNL     1       3.719   7.046  17.347  0.00  0.00    +0.000 C 
ENDBRANCH  15  26
ENDBRANCH   1  20
BRANCH   3  27
ATOM     27  C   UNL     1      -0.488   9.906  22.620  0.00  0.00    +0.000 C 
ATOM     28  N   UNL     1      -0.148   9.278  23.785  0.00  0.00    +0.000 N 
ATOM     29  O   UNL     1      -1.320  10.806  22.617  0.00  0.00    +0.000 OA
ATOM     30  H   UNL     1       0.695   8.724  23.863  0.00  0.00    +0.000 HD
ATOM     31  H   UNL     1      -0.573   9.624  24.634  0.00  0.00    +0.000 HD
ENDBRANCH   3  27
TORSDOF 5
ENDMDL
MODEL 9
REMARK VINA RESULT:      -6.6      6.661      9.765
REMARK  Name = 
REMARK  5 active torsions:
REMARK  status: ('A' for Active; 'I' for Inactive)
REMARK    1  A    between atoms: C_2  and  C_3
REMARK    2  A    between atoms: C_5  and  N_6
REMARK    3  A    between atoms: C_12  and  N_13
REMARK    4  A    between atoms: C_15  and  C_16
REMARK    5  A    between atoms: N_20  and  C_21
REMARK                            x       y       z     vdW  Elec       q    Type
REMARK                         _______ _______ _______ _____ _____    ______ ____
ROOT
ATOM      1  N   UNL     1      -1.810  12.486  21.364  0.00  0.00    +0.000 N 
ATOM      2  C   UNL     1      -2.046  12.246  22.682  0.00  0.00    +0.000 A 
ATOM      3  C   UNL     1      -3.275  12.827  22.968  0.00  0.00    +0.000 A 
ATOM      4  C   UNL     1      -3.689  13.404  21.732  0.00  0.00    +0.000 A 
ATOM      5  N   UNL     1      -4.801  14.157  21.549  0.00  0.00    +0.000 N 
ATOM      6  N   UNL     1      -2.789  13.169  20.776  0.00  0.00    +0.000 NA
ATOM      7  H   UNL     1      -5.243  14.590  22.354  0.00  0.00    +0.000 HD
ENDROOT
BRANCH   5   8
ATOM      8  C   UNL     1      -5.544  14.314  20.359  0.00  0.00    +0.000 A 
ATOM      9  C   UNL     1      -5.870  13.217  19.542  0.00  0.00    +0.000 A 
ATOM     10  C   UNL     1      -6.562  13.383  18.344  0.00  0.00    +0.000 A 
ATOM     11  C   UNL     1      -6.923  14.663  17.933  0.00  0.00    +0.000 A 
ATOM     12 CL   UNL     1      -7.762  14.881  16.448  0.00  0.00    +0.000 Cl
ATOM     13  C   UNL     1      -6.596  15.770  18.719  0.00  0.00    +0.000 A 
ATOM     14  C   UNL     1      -5.913  15.591  19.927  0.00  0.00    +0.000 A 
ENDBRANCH   5   8
BRANCH   1  20
ATOM     15  C   UNL     1      -0.582  12.922  19.265  0.00  0.00    +0.000 C 
ATOM     16  C   UNL     1      -1.486  12.296  18.191  0.00  0.00    +0.000 C 
ATOM     17  C   UNL     1      -1.240  10.783  17.996  0.00  0.00    +0.000 C 
ATOM     18  C   UNL     1      -1.314  10.020  19.333  0.00  0.00    +0.000 C 
ATOM     19  C   UNL     1      -0.423  10.640  20.416  0.00  0.00    +0.000 C 
ATOM     20  C   UNL     1      -0.606  12.158  20.601  0.00  0.00    +0.000 C 
BRANCH  17  21
ATOM     21  N   UNL     1      -2.046  10.070  16.983  0.00  0.00    +0.000 NA
ATOM     22  C   UNL     1      -2.667  10.990  16.009  0.00  0.00    +0.000 C 
ATOM     23  C   UNL     1      -4.009  10.854  16.746  0.00  0.00    +0.000 C 
ATOM     24  C   UNL     1      -3.384   9.623  17.424  0.00  0.00    +0.000 C 
ENDBRANCH  17  21
BRANCH  15  26
ATOM     25  N   UNL     1       1.899  13.067  18.390  0.00  0.00    +0.000 NA
ATOM     26  C   UNL     1       0.804  13.005  18.765  0.00  0.00    +0.000 C 
ENDBRANCH  15  26
ENDBRANCH   1  20
BRANCH   3  27
ATOM     27  C   UNL     1      -3.978  12.793  24.232  0.00  0.00    +0.000 C 
ATOM     28  N   UNL     1      -3.792  13.880  25.038  0.00  0.00    +0.000 N 
ATOM     29  O   UNL     1      -4.720  11.880  24.576  0.00  0.00    +0.000 OA
ATOM     30  H   UNL     1      -3.401  14.743  24.684  0.00  0.00    +0.000 HD
ATOM     31  H   UNL     1      -4.329  13.914  25.893  0.00  0.00    +0.000 HD
ENDBRANCH   3  27
TORSDOF 5
ENDMDL
