MODEL 1
REMARK VINA RESULT:      -8.7      0.000      0.000
REMARK  Name = 
REMARK  5 active torsions:
REMARK  status: ('A' for Active; 'I' for Inactive)
REMARK    1  A    between atoms: N_10  and  C_11
REMARK    2  A    between atoms: N_14  and  C_15
REMARK    3  A    between atoms: N_18  and  C_19
REMARK    4  A    between atoms: C_19  and  C_20
REMARK    5  A    between atoms: C_25  and  N_26
REMARK                            x       y       z     vdW  Elec       q    Type
REMARK                         _______ _______ _______ _____ _____    ______ ____
ROOT
ATOM      1  C   UNL     1       1.857   7.518  19.160  0.00  0.00    +0.000 C 
ATOM      2  C   UNL     1       1.886   8.141  20.552  0.00  0.00    +0.000 C 
ATOM      3  C   UNL     1       0.680   9.102  20.630  0.00  0.00    +0.000 C 
ATOM      4  N   UNL     1       0.627  10.105  19.550  0.00  0.00    +0.000 NA
ATOM      5  C   UNL     1       1.040   9.636  18.229  0.00  0.00    +0.000 C 
ATOM      6  C   UNL     1       2.175   8.634  18.180  0.00  0.00    +0.000 C 
ENDROOT
BRANCH   1  16
ATOM      7  O   UNL     1       4.110   7.067  17.161  0.00  0.00    +0.000 OA
ATOM      8  C   UNL     1       3.581   6.195  17.831  0.00  0.00    +0.000 A 
ATOM      9  N   UNL     1       3.719   4.811  17.617  0.00  0.00    +0.000 N 
ATOM     10  C   UNL     1       2.871   4.129  18.478  0.00  0.00    +0.000 A 
ATOM     11  C   UNL     1       2.595   2.779  18.554  0.00  0.00    +0.000 A 
ATOM     12  C   UNL     1       1.635   2.377  19.489  0.00  0.00    +0.000 A 
ATOM     13  C   UNL     1       0.984   3.315  20.310  0.00  0.00    +0.000 A 
ATOM     14  C   UNL     1       1.275   4.678  20.207  0.00  0.00    +0.000 A 
ATOM     15  C   UNL     1       2.227   5.061  19.279  0.00  0.00    +0.000 A 
ATOM     16  N   UNL     1       2.673   6.349  18.901  0.00  0.00    +0.000 N 
ATOM     17  H   UNL     1       4.251   4.417  16.858  0.00  0.00    +0.000 HD
ENDBRANCH   1  16
BRANCH   4  18
ATOM     18  C   UNL     1      -0.615  10.929  19.565  0.00  0.00    +0.000 C 
ATOM     19  C   UNL     1      -0.930  11.828  18.355  0.00  0.00    +0.000 C 
ATOM     20  C   UNL     1      -0.077  13.090  18.271  0.00  0.00    +0.000 C 
ATOM     21  N   UNL     1       0.012  13.895  19.498  0.00  0.00    +0.000 NA
ATOM     22  C   UNL     1       0.025  13.138  20.759  0.00  0.00    +0.000 C 
ATOM     23  C   UNL     1      -0.777  11.826  20.806  0.00  0.00    +0.000 C 
BRANCH  21  24
ATOM     24  C   UNL     1       1.192  14.812  19.442  0.00  0.00    +0.000 C 
BRANCH  24  25
ATOM     25  C   UNL     1       0.868  16.124  18.750  0.00  0.00    +0.000 A 
ATOM     26  C   UNL     1      -0.463  16.577  18.831  0.00  0.00    +0.000 A 
ATOM     27  C   UNL     1      -0.920  17.629  18.037  0.00  0.00    +0.000 A 
ATOM     28  C   UNL     1      -0.046  18.300  17.188  0.00  0.00    +0.000 A 
ATOM     29  C   UNL     1       1.303  17.953  17.169  0.00  0.00    +0.000 A 
ATOM     30  C   UNL     1       1.753  16.873  17.946  0.00  0.00    +0.000 A 
BRANCH  30  31
ATOM     31  N   UNL     1       3.178  16.580  17.869  0.00  0.00    +0.000 N 
ATOM     32  O   UNL     1       3.933  17.211  18.628  0.00  0.00    +0.000 OA
ATOM     33  O   UNL     1       3.530  15.690  17.095  0.00  0.00    +0.000 OA
ENDBRANCH  30  31
ENDBRANCH  24  25
ENDBRANCH  21  24
ENDBRANCH   4  18
TORSDOF 5
ENDMDL
MODEL 2
REMARK VINA RESULT:      -8.3      1.506      2.513
REMARK  Name = 
REMARK  5 active torsions:
REMARK  status: ('A' for Active; 'I' for Inactive)
REMARK    1  A    between atoms: N_10  and  C_11
REMARK    2  A    between atoms: N_14  and  C_15
REMARK    3  A    between atoms: N_18  and  C_19
REMARK    4  A    between atoms: C_19  and  C_20
REMARK    5  A    between atoms: C_25  and  N_26
REMARK                            x       y       z     vdW  Elec       q    Type
REMARK                         _______ _______ _______ _____ _____    ______ ____
ROOT
ATOM      1  C   UNL     1       2.193   6.988  18.412  0.00  0.00    +0.000 C 
ATOM      2  C   UNL     1       2.479   7.309  19.875  0.00  0.00    +0.000 C 
ATOM      3  C   UNL     1       1.352   8.251  20.350  0.00  0.00    +0.000 C 
ATOM      4  N   UNL     1       1.172   9.456  19.519  0.00  0.00    +0.000 NA
ATOM      5  C   UNL     1       1.340   9.264  18.080  0.00  0.00    +0.000 C 
ATOM      6  C   UNL     1       2.401   8.278  17.637  0.00  0.00    +0.000 C 
ENDROOT
BRANCH   1  16
ATOM      7  O   UNL     1       1.482   4.034  18.204  0.00  0.00    +0.000 OA
ATOM      8  C   UNL     1       2.558   4.520  17.896  0.00  0.00    +0.000 A 
ATOM      9  N   UNL     1       3.737   3.792  17.650  0.00  0.00    +0.000 N 
ATOM     10  C   UNL     1       4.790   4.678  17.465  0.00  0.00    +0.000 A 
ATOM     11  C   UNL     1       6.136   4.420  17.302  0.00  0.00    +0.000 A 
ATOM     12  C   UNL     1       6.987   5.527  17.201  0.00  0.00    +0.000 A 
ATOM     13  C   UNL     1       6.483   6.839  17.267  0.00  0.00    +0.000 A 
ATOM     14  C   UNL     1       5.117   7.071  17.443  0.00  0.00    +0.000 A 
ATOM     15  C   UNL     1       4.287   5.969  17.539  0.00  0.00    +0.000 A 
ATOM     16  N   UNL     1       2.897   5.886  17.788  0.00  0.00    +0.000 N 
ATOM     17  H   UNL     1       3.801   2.791  17.741  0.00  0.00    +0.000 HD
ENDBRANCH   1  16
BRANCH   4  18
ATOM     18  C   UNL     1      -0.009  10.277  19.911  0.00  0.00    +0.000 C 
ATOM     19  C   UNL     1      -0.667  11.188  18.858  0.00  0.00    +0.000 C 
ATOM     20  C   UNL     1       0.124  12.453  18.539  0.00  0.00    +0.000 C 
ATOM     21  N   UNL     1       0.574  13.245  19.694  0.00  0.00    +0.000 NA
ATOM     22  C   UNL     1       0.959  12.474  20.887  0.00  0.00    +0.000 C 
ATOM     23  C   UNL     1       0.205  11.160  21.154  0.00  0.00    +0.000 C 
BRANCH  21  24
ATOM     24  C   UNL     1       1.685  14.165  19.302  0.00  0.00    +0.000 C 
BRANCH  24  25
ATOM     25  C   UNL     1       1.179  15.541  18.907  0.00  0.00    +0.000 A 
ATOM     26  C   UNL     1      -0.175  15.823  19.172  0.00  0.00    +0.000 A 
ATOM     27  C   UNL     1      -0.798  16.951  18.635  0.00  0.00    +0.000 A 
ATOM     28  C   UNL     1      -0.071  17.862  17.875  0.00  0.00    +0.000 A 
ATOM     29  C   UNL     1       1.297  17.672  17.692  0.00  0.00    +0.000 A 
ATOM     30  C   UNL     1       1.913  16.521  18.205  0.00  0.00    +0.000 A 
BRANCH  30  31
ATOM     31  N   UNL     1       3.347  16.404  17.969  0.00  0.00    +0.000 N 
ATOM     32  O   UNL     1       3.716  15.637  17.064  0.00  0.00    +0.000 OA
ATOM     33  O   UNL     1       4.090  17.113  18.648  0.00  0.00    +0.000 OA
ENDBRANCH  30  31
ENDBRANCH  24  25
ENDBRANCH  21  24
ENDBRANCH   4  18
TORSDOF 5
ENDMDL
MODEL 3
REMARK VINA RESULT:      -8.2      1.600      1.934
REMARK  Name = 
REMARK  5 active torsions:
REMARK  status: ('A' for Active; 'I' for Inactive)
REMARK    1  A    between atoms: N_10  and  C_11
REMARK    2  A    between atoms: N_14  and  C_15
REMARK    3  A    between atoms: N_18  and  C_19
REMARK    4  A    between atoms: C_19  and  C_20
REMARK    5  A    between atoms: C_25  and  N_26
REMARK                            x       y       z     vdW  Elec       q    Type
REMARK                         _______ _______ _______ _____ _____    ______ ____
ROOT
ATOM      1  C   UNL     1       2.095   7.082  18.918  0.00  0.00    +0.000 C 
ATOM      2  C   UNL     1       2.139   7.615  20.346  0.00  0.00    +0.000 C 
ATOM      3  C   UNL     1       0.968   8.612  20.481  0.00  0.00    +0.000 C 
ATOM      4  N   UNL     1       0.955   9.681  19.466  0.00  0.00    +0.000 NA
ATOM      5  C   UNL     1       1.358   9.281  18.119  0.00  0.00    +0.000 C 
ATOM      6  C   UNL     1       2.458   8.245  18.010  0.00  0.00    +0.000 C 
ENDROOT
BRANCH   1  16
ATOM      7  O   UNL     1       4.492   6.728  17.072  0.00  0.00    +0.000 OA
ATOM      8  C   UNL     1       3.863   5.818  17.587  0.00  0.00    +0.000 A 
ATOM      9  N   UNL     1       3.949   4.462  17.220  0.00  0.00    +0.000 N 
ATOM     10  C   UNL     1       2.994   3.739  17.921  0.00  0.00    +0.000 A 
ATOM     11  C   UNL     1       2.645   2.408  17.811  0.00  0.00    +0.000 A 
ATOM     12  C   UNL     1       1.586   1.960  18.609  0.00  0.00    +0.000 A 
ATOM     13  C   UNL     1       0.913   2.836  19.481  0.00  0.00    +0.000 A 
ATOM     14  C   UNL     1       1.280   4.181  19.565  0.00  0.00    +0.000 A 
ATOM     15  C   UNL     1       2.329   4.609  18.772  0.00  0.00    +0.000 A 
ATOM     16  N   UNL     1       2.871   5.903  18.589  0.00  0.00    +0.000 N 
ATOM     17  H   UNL     1       4.525   4.127  16.466  0.00  0.00    +0.000 HD
ENDBRANCH   1  16
BRANCH   4  18
ATOM     18  C   UNL     1      -0.257  10.547  19.528  0.00  0.00    +0.000 C 
ATOM     19  C   UNL     1      -0.433  11.663  18.482  0.00  0.00    +0.000 C 
ATOM     20  C   UNL     1       0.462  12.878  18.703  0.00  0.00    +0.000 C 
ATOM     21  N   UNL     1       0.464  13.443  20.061  0.00  0.00    +0.000 NA
ATOM     22  C   UNL     1       0.339  12.471  21.158  0.00  0.00    +0.000 C 
ATOM     23  C   UNL     1      -0.503  11.211  20.895  0.00  0.00    +0.000 C 
BRANCH  21  24
ATOM     24  C   UNL     1       1.672  14.299  20.274  0.00  0.00    +0.000 C 
BRANCH  24  25
ATOM     25  C   UNL     1       1.941  15.217  19.095  0.00  0.00    +0.000 A 
ATOM     26  C   UNL     1       3.003  14.863  18.241  0.00  0.00    +0.000 A 
ATOM     27  C   UNL     1       3.489  15.753  17.282  0.00  0.00    +0.000 A 
ATOM     28  C   UNL     1       2.885  16.994  17.104  0.00  0.00    +0.000 A 
ATOM     29  C   UNL     1       1.759  17.328  17.854  0.00  0.00    +0.000 A 
ATOM     30  C   UNL     1       1.294  16.444  18.839  0.00  0.00    +0.000 A 
BRANCH  30  31
ATOM     31  N   UNL     1       0.111  16.872  19.574  0.00  0.00    +0.000 N 
ATOM     32  O   UNL     1       0.277  17.671  20.511  0.00  0.00    +0.000 OA
ATOM     33  O   UNL     1      -0.979  16.454  19.182  0.00  0.00    +0.000 OA
ENDBRANCH  30  31
ENDBRANCH  24  25
ENDBRANCH  21  24
ENDBRANCH   4  18
TORSDOF 5
ENDMDL
MODEL 4
REMARK VINA RESULT:      -8.2      3.806      9.308
REMARK  Name = 
REMARK  5 active torsions:
REMARK  status: ('A' for Active; 'I' for Inactive)
REMARK    1  A    between atoms: N_10  and  C_11
REMARK    2  A    between atoms: N_14  and  C_15
REMARK    3  A    between atoms: N_18  and  C_19
REMARK    4  A    between atoms: C_19  and  C_20
REMARK    5  A    between atoms: C_25  and  N_26
REMARK                            x       y       z     vdW  Elec       q    Type
REMARK                         _______ _______ _______ _____ _____    ______ ____
ROOT
ATOM      1  C   UNL     1       1.109   8.420  19.577  0.00  0.00    +0.000 C 
ATOM      2  C   UNL     1       2.221   8.076  18.591  0.00  0.00    +0.000 C 
ATOM      3  C   UNL     1       2.197   6.542  18.417  0.00  0.00    +0.000 C 
ATOM      4  N   UNL     1       2.288   5.782  19.677  0.00  0.00    +0.000 NA
ATOM      5  C   UNL     1       1.566   6.350  20.813  0.00  0.00    +0.000 C 
ATOM      6  C   UNL     1       1.537   7.861  20.923  0.00  0.00    +0.000 C 
ENDROOT
BRANCH   1  16
ATOM      7  O   UNL     1       1.489  10.428  21.835  0.00  0.00    +0.000 OA
ATOM      8  C   UNL     1       0.769  10.592  20.863  0.00  0.00    +0.000 A 
ATOM      9  N   UNL     1      -0.209  11.597  20.738  0.00  0.00    +0.000 N 
ATOM     10  C   UNL     1      -0.924  11.394  19.565  0.00  0.00    +0.000 A 
ATOM     11  C   UNL     1      -2.032  12.061  19.086  0.00  0.00    +0.000 A 
ATOM     12  C   UNL     1      -2.591  11.591  17.891  0.00  0.00    +0.000 A 
ATOM     13  C   UNL     1      -2.039  10.485  17.218  0.00  0.00    +0.000 A 
ATOM     14  C   UNL     1      -0.922   9.821  17.732  0.00  0.00    +0.000 A 
ATOM     15  C   UNL     1      -0.381  10.297  18.911  0.00  0.00    +0.000 A 
ATOM     16  N   UNL     1       0.685   9.800  19.698  0.00  0.00    +0.000 N 
ATOM     17  H   UNL     1      -0.423  12.258  21.466  0.00  0.00    +0.000 HD
ENDBRANCH   1  16
BRANCH   4  18
ATOM     18  C   UNL     1       2.122   4.311  19.497  0.00  0.00    +0.000 C 
ATOM     19  C   UNL     1       3.244   3.370  19.974  0.00  0.00    +0.000 C 
ATOM     20  C   UNL     1       4.476   3.354  19.075  0.00  0.00    +0.000 C 
ATOM     21  N   UNL     1       4.227   3.169  17.637  0.00  0.00    +0.000 NA
ATOM     22  C   UNL     1       3.001   3.793  17.116  0.00  0.00    +0.000 C 
ATOM     23  C   UNL     1       1.789   3.872  18.060  0.00  0.00    +0.000 C 
BRANCH  21  24
ATOM     24  C   UNL     1       5.407   3.616  16.835  0.00  0.00    +0.000 C 
BRANCH  24  25
ATOM     25  C   UNL     1       5.695   5.096  17.013  0.00  0.00    +0.000 A 
ATOM     26  C   UNL     1       4.807   5.997  16.397  0.00  0.00    +0.000 A 
ATOM     27  C   UNL     1       5.110   7.356  16.291  0.00  0.00    +0.000 A 
ATOM     28  C   UNL     1       6.276   7.862  16.855  0.00  0.00    +0.000 A 
ATOM     29  C   UNL     1       7.121   7.016  17.572  0.00  0.00    +0.000 A 
ATOM     30  C   UNL     1       6.829   5.646  17.649  0.00  0.00    +0.000 A 
BRANCH  30  31
ATOM     31  N   UNL     1       7.762   4.836  18.420  0.00  0.00    +0.000 N 
ATOM     32  O   UNL     1       8.476   4.034  17.794  0.00  0.00    +0.000 OA
ATOM     33  O   UNL     1       7.818   5.039  19.633  0.00  0.00    +0.000 OA
ENDBRANCH  30  31
ENDBRANCH  24  25
ENDBRANCH  21  24
ENDBRANCH   4  18
TORSDOF 5
ENDMDL
MODEL 5
REMARK VINA RESULT:      -8.1      3.841      4.974
REMARK  Name = 
REMARK  5 active torsions:
REMARK  status: ('A' for Active; 'I' for Inactive)
REMARK    1  A    between atoms: N_10  and  C_11
REMARK    2  A    between atoms: N_14  and  C_15
REMARK    3  A    between atoms: N_18  and  C_19
REMARK    4  A    between atoms: C_19  and  C_20
REMARK    5  A    between atoms: C_25  and  N_26
REMARK                            x       y       z     vdW  Elec       q    Type
REMARK                         _______ _______ _______ _____ _____    ______ ____
ROOT
ATOM      1  C   UNL     1       2.618   7.408  19.103  0.00  0.00    +0.000 C 
ATOM      2  C   UNL     1       1.716   7.506  17.877  0.00  0.00    +0.000 C 
ATOM      3  C   UNL     1       1.406   9.005  17.675  0.00  0.00    +0.000 C 
ATOM      4  N   UNL     1       0.843   9.677  18.861  0.00  0.00    +0.000 NA
ATOM      5  C   UNL     1       1.399   9.263  20.147  0.00  0.00    +0.000 C 
ATOM      6  C   UNL     1       1.768   7.802  20.298  0.00  0.00    +0.000 C 
ENDROOT
BRANCH   1  16
ATOM      7  O   UNL     1       5.301   6.404  18.069  0.00  0.00    +0.000 OA
ATOM      8  C   UNL     1       4.491   5.732  18.686  0.00  0.00    +0.000 A 
ATOM      9  N   UNL     1       4.517   4.329  18.798  0.00  0.00    +0.000 N 
ATOM     10  C   UNL     1       3.370   3.902  19.452  0.00  0.00    +0.000 A 
ATOM     11  C   UNL     1       2.921   2.619  19.692  0.00  0.00    +0.000 A 
ATOM     12  C   UNL     1       1.679   2.487  20.324  0.00  0.00    +0.000 A 
ATOM     13  C   UNL     1       0.929   3.619  20.693  0.00  0.00    +0.000 A 
ATOM     14  C   UNL     1       1.402   4.907  20.429  0.00  0.00    +0.000 A 
ATOM     15  C   UNL     1       2.631   5.022  19.806  0.00  0.00    +0.000 A 
ATOM     16  N   UNL     1       3.325   6.168  19.352  0.00  0.00    +0.000 N 
ATOM     17  H   UNL     1       5.203   3.749  18.343  0.00  0.00    +0.000 HD
ENDBRANCH   1  16
BRANCH   4  18
ATOM     18  C   UNL     1       0.684  11.150  18.689  0.00  0.00    +0.000 C 
ATOM     19  C   UNL     1       1.356  12.096  19.701  0.00  0.00    +0.000 C 
ATOM     20  C   UNL     1       0.659  12.165  21.056  0.00  0.00    +0.000 C 
ATOM     21  N   UNL     1      -0.793  12.393  21.028  0.00  0.00    +0.000 NA
ATOM     22  C   UNL     1      -1.517  11.762  19.912  0.00  0.00    +0.000 C 
ATOM     23  C   UNL     1      -0.775  11.629  18.571  0.00  0.00    +0.000 C 
BRANCH  21  24
ATOM     24  C   UNL     1      -1.415  11.994  22.328  0.00  0.00    +0.000 C 
BRANCH  24  25
ATOM     25  C   UNL     1      -1.860  13.195  23.144  0.00  0.00    +0.000 A 
ATOM     26  C   UNL     1      -0.905  14.206  23.364  0.00  0.00    +0.000 A 
ATOM     27  C   UNL     1      -1.128  15.223  24.293  0.00  0.00    +0.000 A 
ATOM     28  C   UNL     1      -2.336  15.297  24.979  0.00  0.00    +0.000 A 
ATOM     29  C   UNL     1      -3.346  14.379  24.700  0.00  0.00    +0.000 A 
ATOM     30  C   UNL     1      -3.107  13.338  23.789  0.00  0.00    +0.000 A 
BRANCH  30  31
ATOM     31  N   UNL     1      -4.218  12.426  23.555  0.00  0.00    +0.000 N 
ATOM     32  O   UNL     1      -4.669  12.359  22.399  0.00  0.00    +0.000 OA
ATOM     33  O   UNL     1      -4.599  11.743  24.506  0.00  0.00    +0.000 OA
ENDBRANCH  30  31
ENDBRANCH  24  25
ENDBRANCH  21  24
ENDBRANCH   4  18
TORSDOF 5
ENDMDL
MODEL 6
REMARK VINA RESULT:      -8.0      5.636      9.064
REMARK  Name = 
REMARK  5 active torsions:
REMARK  status: ('A' for Active; 'I' for Inactive)
REMARK    1  A    between atoms: N_10  and  C_11
REMARK    2  A    between atoms: N_14  and  C_15
REMARK    3  A    between atoms: N_18  and  C_19
REMARK    4  A    between atoms: C_19  and  C_20
REMARK    5  A    between atoms: C_25  and  N_26
REMARK                            x       y       z     vdW  Elec       q    Type
REMARK                         _______ _______ _______ _____ _____    ______ ____
ROOT
ATOM      1  C   UNL     1       7.776  15.175  18.568  0.00  0.00    +0.000 C 
ATOM      2  C   UNL     1       6.866  14.359  17.656  0.00  0.00    +0.000 C 
ATOM      3  C   UNL     1       5.436  14.909  17.853  0.00  0.00    +0.000 C 
ATOM      4  N   UNL     1       4.978  14.932  19.253  0.00  0.00    +0.000 NA
ATOM      5  C   UNL     1       5.989  15.293  20.245  0.00  0.00    +0.000 C 
ATOM      6  C   UNL     1       7.402  14.807  19.994  0.00  0.00    +0.000 C 
ENDROOT
BRANCH   1  16
ATOM      7  O   UNL     1       9.739  17.221  17.456  0.00  0.00    +0.000 OA
ATOM      8  C   UNL     1      10.000  16.052  17.689  0.00  0.00    +0.000 A 
ATOM      9  N   UNL     1      11.150  15.373  17.244  0.00  0.00    +0.000 N 
ATOM     10  C   UNL     1      11.045  14.030  17.578  0.00  0.00    +0.000 A 
ATOM     11  C   UNL     1      11.877  12.977  17.256  0.00  0.00    +0.000 A 
ATOM     12  C   UNL     1      11.482  11.702  17.678  0.00  0.00    +0.000 A 
ATOM     13  C   UNL     1      10.287  11.513  18.396  0.00  0.00    +0.000 A 
ATOM     14  C   UNL     1       9.457  12.596  18.699  0.00  0.00    +0.000 A 
ATOM     15  C   UNL     1       9.861  13.849  18.278  0.00  0.00    +0.000 A 
ATOM     16  N   UNL     1       9.209  15.102  18.371  0.00  0.00    +0.000 N 
ATOM     17  H   UNL     1      11.852  15.795  16.658  0.00  0.00    +0.000 HD
ENDBRANCH   1  16
BRANCH   4  18
ATOM     18  C   UNL     1       3.655  15.595  19.435  0.00  0.00    +0.000 C 
ATOM     19  C   UNL     1       2.970  15.531  20.813  0.00  0.00    +0.000 C 
ATOM     20  C   UNL     1       2.353  14.177  21.146  0.00  0.00    +0.000 C 
ATOM     21  N   UNL     1       1.485  13.588  20.116  0.00  0.00    +0.000 NA
ATOM     22  C   UNL     1       1.889  13.837  18.723  0.00  0.00    +0.000 C 
ATOM     23  C   UNL     1       2.580  15.176  18.414  0.00  0.00    +0.000 C 
BRANCH  21  24
ATOM     24  C   UNL     1       1.318  12.120  20.343  0.00  0.00    +0.000 C 
BRANCH  24  25
ATOM     25  C   UNL     1       0.134  11.808  21.241  0.00  0.00    +0.000 A 
ATOM     26  C   UNL     1      -0.870  12.790  21.336  0.00  0.00    +0.000 A 
ATOM     27  C   UNL     1      -1.867  12.714  22.309  0.00  0.00    +0.000 A 
ATOM     28  C   UNL     1      -1.929  11.623  23.170  0.00  0.00    +0.000 A 
ATOM     29  C   UNL     1      -1.019  10.577  23.026  0.00  0.00    +0.000 A 
ATOM     30  C   UNL     1       0.002  10.673  22.068  0.00  0.00    +0.000 A 
BRANCH  30  31
ATOM     31  N   UNL     1       0.907   9.534  21.983  0.00  0.00    +0.000 N 
ATOM     32  O   UNL     1       0.758   8.754  21.027  0.00  0.00    +0.000 OA
ATOM     33  O   UNL     1       1.793   9.451  22.835  0.00  0.00    +0.000 OA
ENDBRANCH  30  31
ENDBRANCH  24  25
ENDBRANCH  21  24
ENDBRANCH   4  18
TORSDOF 5
ENDMDL
MODEL 7
REMARK VINA RESULT:      -8.0      2.102      3.079
REMARK  Name = 
REMARK  5 active torsions:
REMARK  status: ('A' for Active; 'I' for Inactive)
REMARK    1  A    between atoms: N_10  and  C_11
REMARK    2  A    between atoms: N_14  and  C_15
REMARK    3  A    between atoms: N_18  and  C_19
REMARK    4  A    between atoms: C_19  and  C_20
REMARK    5  A    between atoms: C_25  and  N_26
REMARK                            x       y       z     vdW  Elec       q    Type
REMARK                         _______ _______ _______ _____ _____    ______ ____
ROOT
ATOM      1  C   UNL     1       2.451   6.581  18.306  0.00  0.00    +0.000 C 
ATOM      2  C   UNL     1       2.746   6.702  19.798  0.00  0.00    +0.000 C 
ATOM      3  C   UNL     1       1.599   7.536  20.409  0.00  0.00    +0.000 C 
ATOM      4  N   UNL     1       1.377   8.839  19.757  0.00  0.00    +0.000 NA
ATOM      5  C   UNL     1       1.532   8.856  18.304  0.00  0.00    +0.000 C 
ATOM      6  C   UNL     1       2.614   7.972  17.719  0.00  0.00    +0.000 C 
ENDROOT
BRANCH   1  16
ATOM      7  O   UNL     1       1.766   3.698  17.602  0.00  0.00    +0.000 OA
ATOM      8  C   UNL     1       2.845   4.232  17.403  0.00  0.00    +0.000 A 
ATOM      9  N   UNL     1       4.035   3.558  17.070  0.00  0.00    +0.000 N 
ATOM     10  C   UNL     1       5.085   4.466  17.058  0.00  0.00    +0.000 A 
ATOM     11  C   UNL     1       6.436   4.243  16.886  0.00  0.00    +0.000 A 
ATOM     12  C   UNL     1       7.282   5.354  16.988  0.00  0.00    +0.000 A 
ATOM     13  C   UNL     1       6.767   6.636  17.254  0.00  0.00    +0.000 A 
ATOM     14  C   UNL     1       5.395   6.832  17.433  0.00  0.00    +0.000 A 
ATOM     15  C   UNL     1       4.572   5.726  17.329  0.00  0.00    +0.000 A 
ATOM     16  N   UNL     1       3.177   5.599  17.528  0.00  0.00    +0.000 N 
ATOM     17  H   UNL     1       4.104   2.556  16.998  0.00  0.00    +0.000 HD
ENDBRANCH   1  16
BRANCH   4  18
ATOM     18  C   UNL     1       0.179   9.563  20.270  0.00  0.00    +0.000 C 
ATOM     19  C   UNL     1      -0.736  10.295  19.271  0.00  0.00    +0.000 C 
ATOM     20  C   UNL     1      -0.161  11.601  18.732  0.00  0.00    +0.000 C 
ATOM     21  N   UNL     1       0.360  12.543  19.734  0.00  0.00    +0.000 NA
ATOM     22  C   UNL     1       1.012  11.934  20.904  0.00  0.00    +0.000 C 
ATOM     23  C   UNL     1       0.471  10.578  21.391  0.00  0.00    +0.000 C 
BRANCH  21  24
ATOM     24  C   UNL     1       1.280  13.535  19.097  0.00  0.00    +0.000 C 
BRANCH  24  25
ATOM     25  C   UNL     1       0.914  14.966  19.449  0.00  0.00    +0.000 A 
ATOM     26  C   UNL     1      -0.154  15.544  18.737  0.00  0.00    +0.000 A 
ATOM     27  C   UNL     1      -0.412  16.914  18.805  0.00  0.00    +0.000 A 
ATOM     28  C   UNL     1       0.346  17.732  19.637  0.00  0.00    +0.000 A 
ATOM     29  C   UNL     1       1.336  17.172  20.442  0.00  0.00    +0.000 A 
ATOM     30  C   UNL     1       1.614  15.800  20.347  0.00  0.00    +0.000 A 
BRANCH  30  31
ATOM     31  N   UNL     1       2.661  15.297  21.226  0.00  0.00    +0.000 N 
ATOM     32  O   UNL     1       3.839  15.474  20.872  0.00  0.00    +0.000 OA
ATOM     33  O   UNL     1       2.308  14.779  22.286  0.00  0.00    +0.000 OA
ENDBRANCH  30  31
ENDBRANCH  24  25
ENDBRANCH  21  24
ENDBRANCH   4  18
TORSDOF 5
ENDMDL
MODEL 8
REMARK VINA RESULT:      -7.9      3.607      5.040
REMARK  Name = 
REMARK  5 active torsions:
REMARK  status: ('A' for Active; 'I' for Inactive)
REMARK    1  A    between atoms: N_10  and  C_11
REMARK    2  A    between atoms: N_14  and  C_15
REMARK    3  A    between atoms: N_18  and  C_19
REMARK    4  A    between atoms: C_19  and  C_20
REMARK    5  A    between atoms: C_25  and  N_26
REMARK                            x       y       z     vdW  Elec       q    Type
REMARK                         _______ _______ _______ _____ _____    ______ ____
ROOT
ATOM      1  C   UNL     1       2.517   7.635  19.019  0.00  0.00    +0.000 C 
ATOM      2  C   UNL     1       1.723   8.283  17.889  0.00  0.00    +0.000 C 
ATOM      3  C   UNL     1       1.524   9.763  18.282  0.00  0.00    +0.000 C 
ATOM      4  N   UNL     1       0.911   9.966  19.608  0.00  0.00    +0.000 NA
ATOM      5  C   UNL     1       1.336   9.035  20.651  0.00  0.00    +0.000 C 
ATOM      6  C   UNL     1       1.600   7.605  20.230  0.00  0.00    +0.000 C 
ENDROOT
BRANCH   1  16
ATOM      7  O   UNL     1       4.720   6.778  17.099  0.00  0.00    +0.000 OA
ATOM      8  C   UNL     1       4.026   6.018  17.754  0.00  0.00    +0.000 A 
ATOM      9  N   UNL     1       3.926   4.629  17.550  0.00  0.00    +0.000 N 
ATOM     10  C   UNL     1       2.943   4.115  18.385  0.00  0.00    +0.000 A 
ATOM     11  C   UNL     1       2.433   2.835  18.456  0.00  0.00    +0.000 A 
ATOM     12  C   UNL     1       1.387   2.616  19.360  0.00  0.00    +0.000 A 
ATOM     13  C   UNL     1       0.885   3.662  20.155  0.00  0.00    +0.000 A 
ATOM     14  C   UNL     1       1.413   4.952  20.056  0.00  0.00    +0.000 A 
ATOM     15  C   UNL     1       2.447   5.153  19.160  0.00  0.00    +0.000 A 
ATOM     16  N   UNL     1       3.124   6.339  18.792  0.00  0.00    +0.000 N 
ATOM     17  H   UNL     1       4.404   4.141  16.811  0.00  0.00    +0.000 HD
ENDBRANCH   1  16
BRANCH   4  18
ATOM     18  C   UNL     1       0.857  11.397  20.025  0.00  0.00    +0.000 C 
ATOM     19  C   UNL     1       0.015  11.785  21.254  0.00  0.00    +0.000 C 
ATOM     20  C   UNL     1      -1.490  11.785  21.010  0.00  0.00    +0.000 C 
ATOM     21  N   UNL     1      -1.954  12.514  19.820  0.00  0.00    +0.000 NA
ATOM     22  C   UNL     1      -1.066  12.455  18.648  0.00  0.00    +0.000 C 
ATOM     23  C   UNL     1       0.448  12.377  18.910  0.00  0.00    +0.000 C 
BRANCH  21  24
ATOM     24  C   UNL     1      -3.332  12.077  19.438  0.00  0.00    +0.000 C 
BRANCH  24  25
ATOM     25  C   UNL     1      -3.336  11.222  18.183  0.00  0.00    +0.000 A 
ATOM     26  C   UNL     1      -2.205  10.415  17.958  0.00  0.00    +0.000 A 
ATOM     27  C   UNL     1      -1.998   9.785  16.730  0.00  0.00    +0.000 A 
ATOM     28  C   UNL     1      -2.946   9.888  15.718  0.00  0.00    +0.000 A 
ATOM     29  C   UNL     1      -4.131  10.583  15.949  0.00  0.00    +0.000 A 
ATOM     30  C   UNL     1      -4.321  11.243  17.173  0.00  0.00    +0.000 A 
BRANCH  30  31
ATOM     31  N   UNL     1      -5.589  11.943  17.332  0.00  0.00    +0.000 N 
ATOM     32  O   UNL     1      -6.439  11.426  18.077  0.00  0.00    +0.000 OA
ATOM     33  O   UNL     1      -5.712  13.026  16.759  0.00  0.00    +0.000 OA
ENDBRANCH  30  31
ENDBRANCH  24  25
ENDBRANCH  21  24
ENDBRANCH   4  18
TORSDOF 5
ENDMDL
MODEL 9
REMARK VINA RESULT:      -7.9      2.202      3.252
REMARK  Name = 
REMARK  5 active torsions:
REMARK  status: ('A' for Active; 'I' for Inactive)
REMARK    1  A    between atoms: N_10  and  C_11
REMARK    2  A    between atoms: N_14  and  C_15
REMARK    3  A    between atoms: N_18  and  C_19
REMARK    4  A    between atoms: C_19  and  C_20
REMARK    5  A    between atoms: C_25  and  N_26
REMARK                            x       y       z     vdW  Elec       q    Type
REMARK                         _______ _______ _______ _____ _____    ______ ____
ROOT
ATOM      1  C   UNL     1       2.545   6.737  18.203  0.00  0.00    +0.000 C 
ATOM      2  C   UNL     1       2.630   6.998  19.704  0.00  0.00    +0.000 C 
ATOM      3  C   UNL     1       1.457   7.937  20.056  0.00  0.00    +0.000 C 
ATOM      4  N   UNL     1       1.405   9.176  19.258  0.00  0.00    +0.000 NA
ATOM      5  C   UNL     1       1.767   9.037  17.849  0.00  0.00    +0.000 C 
ATOM      6  C   UNL     1       2.870   8.053  17.517  0.00  0.00    +0.000 C 
ENDROOT
BRANCH   1  16
ATOM      7  O   UNL     1       1.932   3.762  17.986  0.00  0.00    +0.000 OA
ATOM      8  C   UNL     1       3.011   4.276  17.741  0.00  0.00    +0.000 A 
ATOM      9  N   UNL     1       4.224   3.580  17.579  0.00  0.00    +0.000 N 
ATOM     10  C   UNL     1       5.261   4.494  17.450  0.00  0.00    +0.000 A 
ATOM     11  C   UNL     1       6.621   4.274  17.375  0.00  0.00    +0.000 A 
ATOM     12  C   UNL     1       7.446   5.404  17.315  0.00  0.00    +0.000 A 
ATOM     13  C   UNL     1       6.902   6.701  17.332  0.00  0.00    +0.000 A 
ATOM     14  C   UNL     1       5.521   6.895  17.419  0.00  0.00    +0.000 A 
ATOM     15  C   UNL     1       4.718   5.771  17.477  0.00  0.00    +0.000 A 
ATOM     16  N   UNL     1       3.318   5.650  17.638  0.00  0.00    +0.000 N 
ATOM     17  H   UNL     1       4.310   2.583  17.686  0.00  0.00    +0.000 HD
ENDBRANCH   1  16
BRANCH   4  18
ATOM     18  C   UNL     1       0.188   9.999  19.516  0.00  0.00    +0.000 C 
ATOM     19  C   UNL     1      -0.122  11.186  18.585  0.00  0.00    +0.000 C 
ATOM     20  C   UNL     1       0.767  12.405  18.804  0.00  0.00    +0.000 C 
ATOM     21  N   UNL     1       0.905  12.866  20.194  0.00  0.00    +0.000 NA
ATOM     22  C   UNL     1       0.918  11.810  21.219  0.00  0.00    +0.000 C 
ATOM     23  C   UNL     1       0.078  10.551  20.949  0.00  0.00    +0.000 C 
BRANCH  21  24
ATOM     24  C   UNL     1       2.110  13.738  20.344  0.00  0.00    +0.000 C 
BRANCH  24  25
ATOM     25  C   UNL     1       2.224  14.759  19.227  0.00  0.00    +0.000 A 
ATOM     26  C   UNL     1       3.279  14.588  18.311  0.00  0.00    +0.000 A 
ATOM     27  C   UNL     1       3.620  15.591  17.402  0.00  0.00    +0.000 A 
ATOM     28  C   UNL     1       2.876  16.765  17.339  0.00  0.00    +0.000 A 
ATOM     29  C   UNL     1       1.755  16.917  18.152  0.00  0.00    +0.000 A 
ATOM     30  C   UNL     1       1.435  15.921  19.087  0.00  0.00    +0.000 A 
BRANCH  30  31
ATOM     31  N   UNL     1       0.246  16.160  19.894  0.00  0.00    +0.000 N 
ATOM     32  O   UNL     1       0.393  16.789  20.956  0.00  0.00    +0.000 OA
ATOM     33  O   UNL     1      -0.832  15.769  19.444  0.00  0.00    +0.000 OA
ENDBRANCH  30  31
ENDBRANCH  24  25
ENDBRANCH  21  24
ENDBRANCH   4  18
TORSDOF 5
ENDMDL
