MODEL 1
REMARK VINA RESULT:      -7.9      0.000      0.000
REMARK  Name = 
REMARK  13 active torsions:
REMARK  status: ('A' for Active; 'I' for Inactive)
REMARK    1  A    between atoms: C_1  and  C_2
REMARK    2  A    between atoms: C_8  and  C_9
REMARK    3  A    between atoms: C_9  and  C_10
REMARK    4  A    between atoms: C_10  and  C_11
REMARK    5  A    between atoms: C_13  and  C_14
REMARK    6  A    between atoms: N_20  and  C_21
REMARK    7  A    between atoms: C_21  and  C_22
REMARK    8  A    between atoms: C_22  and  O_23
REMARK    9  A    between atoms: C_22  and  C_24
REMARK   10  A    between atoms: C_24  and  N_25
REMARK   11  A    between atoms: N_25  and  C_26
REMARK   12  A    between atoms: N_25  and  C_27
REMARK   13  A    between atoms: C_27  and  C_28
REMARK                            x       y       z     vdW  Elec       q    Type
REMARK                         _______ _______ _______ _____ _____    ______ ____
ROOT
ATOM      1  C   UNL     1       7.263   6.492  17.180  0.00  0.00    +0.000 A 
ATOM      2  N   UNL     1       7.524   6.276  15.903  0.00  0.00    +0.000 NA
ATOM      3  C   UNL     1       6.716   5.233  15.518  0.00  0.00    +0.000 A 
ATOM      4  C   UNL     1       5.944   4.811  16.571  0.00  0.00    +0.000 A 
ATOM      5  N   UNL     1       6.358   5.561  17.634  0.00  0.00    +0.000 N 
ENDROOT
BRANCH   3   6
ATOM      6  C   UNL     1       6.693   4.639  14.150  0.00  0.00    +0.000 A 
ATOM      7  C   UNL     1       5.758   3.718  13.730  0.00  0.00    +0.000 A 
ATOM      8  C   UNL     1       5.970   3.321  12.376  0.00  0.00    +0.000 A 
ATOM      9  C   UNL     1       7.072   3.938  11.823  0.00  0.00    +0.000 A 
ATOM     10  S   UNL     1       7.808   5.026  12.914  0.00  0.00    +0.000 S 
ENDBRANCH   3   6
BRANCH   1  11
ATOM     11  C   UNL     1       7.906   7.550  18.028  0.00  0.00    +0.000 C 
BRANCH  11  12
ATOM     12  C   UNL     1       7.504   8.952  17.576  0.00  0.00    +0.000 C 
BRANCH  12  20
ATOM     13  C   UNL     1       8.937  14.208  17.751  0.00  0.00    +0.000 C 
ATOM     14  C   UNL     1       9.623  13.232  18.652  0.00  0.00    +0.000 A 
ATOM     15  C   UNL     1      10.611  13.588  19.507  0.00  0.00    +0.000 A 
ATOM     16  C   UNL     1      11.230  12.577  20.350  0.00  0.00    +0.000 A 
ATOM     17  C   UNL     1      10.850  11.288  20.298  0.00  0.00    +0.000 A 
ATOM     18  C   UNL     1       9.813  10.897  19.408  0.00  0.00    +0.000 A 
ATOM     19  N   UNL     1       9.264   9.730  19.165  0.00  0.00    +0.000 NA
ATOM     20  C   UNL     1       8.338  10.015  18.201  0.00  0.00    +0.000 A 
ATOM     21  N   UNL     1       8.268  11.300  17.834  0.00  0.00    +0.000 NA
ATOM     22  N   UNL     1       9.228  11.884  18.608  0.00  0.00    +0.000 N 
ENDBRANCH  12  20
ENDBRANCH  11  12
ENDBRANCH   1  11
BRANCH   5  23
ATOM     23  C   UNL     1       5.907   5.337  18.992  0.00  0.00    +0.000 C 
BRANCH  23  24
ATOM     24  C   UNL     1       4.776   4.299  19.058  0.00  0.00    +0.000 C 
BRANCH  24  25
ATOM     25  O   UNL     1       5.248   3.030  19.533  0.00  0.00    +0.000 OA
ATOM     26  H   UNL     1       6.079   3.162  20.018  0.00  0.00    +0.000 HD
ENDBRANCH  24  25
BRANCH  24  27
ATOM     27  C   UNL     1       3.686   4.789  20.019  0.00  0.00    +0.000 C 
BRANCH  27  28
ATOM     28  N   UNL     1       2.381   5.040  19.374  0.00  0.00    +0.000 NA
ATOM     29  C   UNL     1       2.395   4.693  17.956  0.00  0.00    +0.000 C 
BRANCH  28  30
ATOM     30  C   UNL     1       1.301   4.342  20.096  0.00  0.00    +0.000 C 
BRANCH  30  31
ATOM     31  C   UNL     1       0.847   3.153  19.266  0.00  0.00    +0.000 C 
ATOM     32  N   UNL     1       0.470   2.165  18.577  0.00  0.00    +0.000 NA
ENDBRANCH  30  31
ENDBRANCH  28  30
ENDBRANCH  27  28
ENDBRANCH  24  27
ENDBRANCH  23  24
ENDBRANCH   5  23
TORSDOF 11
ENDMDL
MODEL 2
REMARK VINA RESULT:      -7.9      1.012      1.405
REMARK  Name = 
REMARK  13 active torsions:
REMARK  status: ('A' for Active; 'I' for Inactive)
REMARK    1  A    between atoms: C_1  and  C_2
REMARK    2  A    between atoms: C_8  and  C_9
REMARK    3  A    between atoms: C_9  and  C_10
REMARK    4  A    between atoms: C_10  and  C_11
REMARK    5  A    between atoms: C_13  and  C_14
REMARK    6  A    between atoms: N_20  and  C_21
REMARK    7  A    between atoms: C_21  and  C_22
REMARK    8  A    between atoms: C_22  and  O_23
REMARK    9  A    between atoms: C_22  and  C_24
REMARK   10  A    between atoms: C_24  and  N_25
REMARK   11  A    between atoms: N_25  and  C_26
REMARK   12  A    between atoms: N_25  and  C_27
REMARK   13  A    between atoms: C_27  and  C_28
REMARK                            x       y       z     vdW  Elec       q    Type
REMARK                         _______ _______ _______ _____ _____    ______ ____
ROOT
ATOM      1  C   UNL     1       7.348   6.471  17.350  0.00  0.00    +0.000 A 
ATOM      2  N   UNL     1       7.636   6.268  16.078  0.00  0.00    +0.000 NA
ATOM      3  C   UNL     1       6.775   5.289  15.640  0.00  0.00    +0.000 A 
ATOM      4  C   UNL     1       5.943   4.894  16.658  0.00  0.00    +0.000 A 
ATOM      5  N   UNL     1       6.369   5.591  17.752  0.00  0.00    +0.000 N 
ENDROOT
BRANCH   3   6
ATOM      6  C   UNL     1       6.759   4.731  14.258  0.00  0.00    +0.000 A 
ATOM      7  C   UNL     1       5.824   3.824  13.809  0.00  0.00    +0.000 A 
ATOM      8  C   UNL     1       6.043   3.460  12.447  0.00  0.00    +0.000 A 
ATOM      9  C   UNL     1       7.150   4.088  11.917  0.00  0.00    +0.000 A 
ATOM     10  S   UNL     1       7.882   5.146  13.039  0.00  0.00    +0.000 S 
ENDBRANCH   3   6
BRANCH   1  11
ATOM     11  C   UNL     1       8.030   7.463  18.246  0.00  0.00    +0.000 C 
BRANCH  11  12
ATOM     12  C   UNL     1       7.697   8.899  17.846  0.00  0.00    +0.000 C 
BRANCH  12  20
ATOM     13  C   UNL     1       9.450  12.028  21.950  0.00  0.00    +0.000 C 
ATOM     14  C   UNL     1      10.160  12.079  20.636  0.00  0.00    +0.000 A 
ATOM     15  C   UNL     1      11.220  12.890  20.403  0.00  0.00    +0.000 A 
ATOM     16  C   UNL     1      11.856  12.883  19.095  0.00  0.00    +0.000 A 
ATOM     17  C   UNL     1      11.413  12.091  18.102  0.00  0.00    +0.000 A 
ATOM     18  C   UNL     1      10.303  11.232  18.330  0.00  0.00    +0.000 A 
ATOM     19  N   UNL     1       9.684  10.379  17.548  0.00  0.00    +0.000 NA
ATOM     20  C   UNL     1       8.697   9.880  18.351  0.00  0.00    +0.000 A 
ATOM     21  N   UNL     1       8.671  10.365  19.598  0.00  0.00    +0.000 NA
ATOM     22  N   UNL     1       9.707  11.251  19.595  0.00  0.00    +0.000 N 
ENDBRANCH  12  20
ENDBRANCH  11  12
ENDBRANCH   1  11
BRANCH   5  23
ATOM     23  C   UNL     1       5.861   5.365  19.089  0.00  0.00    +0.000 C 
BRANCH  23  24
ATOM     24  C   UNL     1       4.737   4.317  19.106  0.00  0.00    +0.000 C 
BRANCH  24  25
ATOM     25  O   UNL     1       5.149   3.109  19.760  0.00  0.00    +0.000 OA
ATOM     26  H   UNL     1       4.389   2.507  19.825  0.00  0.00    +0.000 HD
ENDBRANCH  24  25
BRANCH  24  27
ATOM     27  C   UNL     1       3.526   4.876  19.864  0.00  0.00    +0.000 C 
BRANCH  27  28
ATOM     28  N   UNL     1       2.470   5.427  18.991  0.00  0.00    +0.000 NA
ATOM     29  C   UNL     1       2.787   6.777  18.532  0.00  0.00    +0.000 C 
BRANCH  28  30
ATOM     30  C   UNL     1       2.200   4.516  17.863  0.00  0.00    +0.000 C 
BRANCH  30  31
ATOM     31  C   UNL     1       1.406   3.326  18.375  0.00  0.00    +0.000 C 
ATOM     32  N   UNL     1       0.746   2.338  18.801  0.00  0.00    +0.000 NA
ENDBRANCH  30  31
ENDBRANCH  28  30
ENDBRANCH  27  28
ENDBRANCH  24  27
ENDBRANCH  23  24
ENDBRANCH   5  23
TORSDOF 11
ENDMDL
MODEL 3
REMARK VINA RESULT:      -7.7      4.509      5.481
REMARK  Name = 
REMARK  13 active torsions:
REMARK  status: ('A' for Active; 'I' for Inactive)
REMARK    1  A    between atoms: C_1  and  C_2
REMARK    2  A    between atoms: C_8  and  C_9
REMARK    3  A    between atoms: C_9  and  C_10
REMARK    4  A    between atoms: C_10  and  C_11
REMARK    5  A    between atoms: C_13  and  C_14
REMARK    6  A    between atoms: N_20  and  C_21
REMARK    7  A    between atoms: C_21  and  C_22
REMARK    8  A    between atoms: C_22  and  O_23
REMARK    9  A    between atoms: C_22  and  C_24
REMARK   10  A    between atoms: C_24  and  N_25
REMARK   11  A    between atoms: N_25  and  C_26
REMARK   12  A    between atoms: N_25  and  C_27
REMARK   13  A    between atoms: C_27  and  C_28
REMARK                            x       y       z     vdW  Elec       q    Type
REMARK                         _______ _______ _______ _____ _____    ______ ____
ROOT
ATOM      1  C   UNL     1       5.044   6.191  16.905  0.00  0.00    +0.000 A 
ATOM      2  N   UNL     1       5.351   6.260  15.622  0.00  0.00    +0.000 NA
ATOM      3  C   UNL     1       5.968   5.072  15.311  0.00  0.00    +0.000 A 
ATOM      4  C   UNL     1       6.033   4.261  16.417  0.00  0.00    +0.000 A 
ATOM      5  N   UNL     1       5.518   5.012  17.434  0.00  0.00    +0.000 N 
ENDROOT
BRANCH   3   6
ATOM      6  C   UNL     1       6.501   4.722  13.963  0.00  0.00    +0.000 A 
ATOM      7  C   UNL     1       7.568   5.362  13.370  0.00  0.00    +0.000 A 
ATOM      8  C   UNL     1       7.867   4.823  12.084  0.00  0.00    +0.000 A 
ATOM      9  C   UNL     1       7.003   3.808  11.735  0.00  0.00    +0.000 A 
ATOM     10  S   UNL     1       5.878   3.474  12.975  0.00  0.00    +0.000 S 
ENDBRANCH   3   6
BRANCH   1  11
ATOM     11  C   UNL     1       4.345   7.263  17.688  0.00  0.00    +0.000 C 
BRANCH  11  12
ATOM     12  C   UNL     1       2.829   7.081  17.657  0.00  0.00    +0.000 C 
BRANCH  12  20
ATOM     13  C   UNL     1       0.151  11.658  18.916  0.00  0.00    +0.000 C 
ATOM     14  C   UNL     1       0.445  10.664  19.991  0.00  0.00    +0.000 A 
ATOM     15  C   UNL     1       0.093  10.852  21.285  0.00  0.00    +0.000 A 
ATOM     16  C   UNL     1       0.417   9.836  22.274  0.00  0.00    +0.000 A 
ATOM     17  C   UNL     1       1.067   8.708  21.936  0.00  0.00    +0.000 A 
ATOM     18  C   UNL     1       1.442   8.492  20.582  0.00  0.00    +0.000 A 
ATOM     19  N   UNL     1       2.072   7.500  19.997  0.00  0.00    +0.000 NA
ATOM     20  C   UNL     1       2.134   7.896  18.690  0.00  0.00    +0.000 A 
ATOM     21  N   UNL     1       1.567   9.078  18.421  0.00  0.00    +0.000 NA
ATOM     22  N   UNL     1       1.119   9.480  19.646  0.00  0.00    +0.000 N 
ENDBRANCH  12  20
ENDBRANCH  11  12
ENDBRANCH   1  11
BRANCH   5  23
ATOM     23  C   UNL     1       5.534   4.594  18.820  0.00  0.00    +0.000 C 
BRANCH  23  24
ATOM     24  C   UNL     1       4.561   3.434  19.082  0.00  0.00    +0.000 C 
BRANCH  24  25
ATOM     25  O   UNL     1       5.100   2.491  20.019  0.00  0.00    +0.000 OA
ATOM     26  H   UNL     1       4.371   1.989  20.419  0.00  0.00    +0.000 HD
ENDBRANCH  24  25
BRANCH  24  27
ATOM     27  C   UNL     1       3.252   3.984  19.664  0.00  0.00    +0.000 C 
BRANCH  27  28
ATOM     28  N   UNL     1       2.047   3.609  18.898  0.00  0.00    +0.000 NA
ATOM     29  C   UNL     1       2.335   3.419  17.480  0.00  0.00    +0.000 C 
BRANCH  28  30
ATOM     30  C   UNL     1       1.405   2.419  19.489  0.00  0.00    +0.000 C 
BRANCH  30  31
ATOM     31  C   UNL     1       1.458   2.537  21.004  0.00  0.00    +0.000 C 
ATOM     32  N   UNL     1       1.503   2.635  22.261  0.00  0.00    +0.000 NA
ENDBRANCH  30  31
ENDBRANCH  28  30
ENDBRANCH  27  28
ENDBRANCH  24  27
ENDBRANCH  23  24
ENDBRANCH   5  23
TORSDOF 11
ENDMDL
MODEL 4
REMARK VINA RESULT:      -7.7      4.643      5.609
REMARK  Name = 
REMARK  13 active torsions:
REMARK  status: ('A' for Active; 'I' for Inactive)
REMARK    1  A    between atoms: C_1  and  C_2
REMARK    2  A    between atoms: C_8  and  C_9
REMARK    3  A    between atoms: C_9  and  C_10
REMARK    4  A    between atoms: C_10  and  C_11
REMARK    5  A    between atoms: C_13  and  C_14
REMARK    6  A    between atoms: N_20  and  C_21
REMARK    7  A    between atoms: C_21  and  C_22
REMARK    8  A    between atoms: C_22  and  O_23
REMARK    9  A    between atoms: C_22  and  C_24
REMARK   10  A    between atoms: C_24  and  N_25
REMARK   11  A    between atoms: N_25  and  C_26
REMARK   12  A    between atoms: N_25  and  C_27
REMARK   13  A    between atoms: C_27  and  C_28
REMARK                            x       y       z     vdW  Elec       q    Type
REMARK                         _______ _______ _______ _____ _____    ______ ____
ROOT
ATOM      1  C   UNL     1       4.911   5.877  17.045  0.00  0.00    +0.000 A 
ATOM      2  N   UNL     1       5.150   5.955  15.749  0.00  0.00    +0.000 NA
ATOM      3  C   UNL     1       5.750   4.770  15.397  0.00  0.00    +0.000 A 
ATOM      4  C   UNL     1       5.873   3.952  16.492  0.00  0.00    +0.000 A 
ATOM      5  N   UNL     1       5.412   4.695  17.541  0.00  0.00    +0.000 N 
ENDROOT
BRANCH   3   6
ATOM      6  C   UNL     1       6.212   4.429  14.021  0.00  0.00    +0.000 A 
ATOM      7  C   UNL     1       5.563   3.541  13.192  0.00  0.00    +0.000 A 
ATOM      8  C   UNL     1       6.220   3.406  11.933  0.00  0.00    +0.000 A 
ATOM      9  C   UNL     1       7.358   4.180  11.859  0.00  0.00    +0.000 A 
ATOM     10  S   UNL     1       7.596   5.101  13.276  0.00  0.00    +0.000 S 
ENDBRANCH   3   6
BRANCH   1  11
ATOM     11  C   UNL     1       4.254   6.943  17.871  0.00  0.00    +0.000 C 
BRANCH  11  12
ATOM     12  C   UNL     1       3.123   7.628  17.106  0.00  0.00    +0.000 C 
BRANCH  12  20
ATOM     13  C   UNL     1       0.712   8.483  21.919  0.00  0.00    +0.000 C 
ATOM     14  C   UNL     1       0.556   9.497  20.832  0.00  0.00    +0.000 A 
ATOM     15  C   UNL     1      -0.180  10.624  20.977  0.00  0.00    +0.000 A 
ATOM     16  C   UNL     1      -0.284  11.562  19.869  0.00  0.00    +0.000 A 
ATOM     17  C   UNL     1       0.332  11.335  18.695  0.00  0.00    +0.000 A 
ATOM     18  C   UNL     1       1.111  10.158  18.527  0.00  0.00    +0.000 A 
ATOM     19  N   UNL     1       1.799   9.705  17.505  0.00  0.00    +0.000 NA
ATOM     20  C   UNL     1       2.308   8.524  17.970  0.00  0.00    +0.000 A 
ATOM     21  N   UNL     1       1.986   8.218  19.232  0.00  0.00    +0.000 NA
ATOM     22  N   UNL     1       1.201   9.270  19.604  0.00  0.00    +0.000 N 
ENDBRANCH  12  20
ENDBRANCH  11  12
ENDBRANCH   1  11
BRANCH   5  23
ATOM     23  C   UNL     1       5.501   4.268  18.921  0.00  0.00    +0.000 C 
BRANCH  23  24
ATOM     24  C   UNL     1       4.507   3.139  19.238  0.00  0.00    +0.000 C 
BRANCH  24  25
ATOM     25  O   UNL     1       5.052   2.202  20.178  0.00  0.00    +0.000 OA
ATOM     26  H   UNL     1       4.493   2.189  20.973  0.00  0.00    +0.000 HD
ENDBRANCH  24  25
BRANCH  24  27
ATOM     27  C   UNL     1       3.232   3.734  19.848  0.00  0.00    +0.000 C 
BRANCH  27  28
ATOM     28  N   UNL     1       2.025   3.554  19.016  0.00  0.00    +0.000 NA
ATOM     29  C   UNL     1       2.171   2.451  18.070  0.00  0.00    +0.000 C 
BRANCH  28  30
ATOM     30  C   UNL     1       0.828   3.392  19.864  0.00  0.00    +0.000 C 
BRANCH  30  31
ATOM     31  C   UNL     1       1.252   2.802  21.199  0.00  0.00    +0.000 C 
ATOM     32  N   UNL     1       1.604   2.313  22.308  0.00  0.00    +0.000 NA
ENDBRANCH  30  31
ENDBRANCH  28  30
ENDBRANCH  27  28
ENDBRANCH  24  27
ENDBRANCH  23  24
ENDBRANCH   5  23
TORSDOF 11
ENDMDL
MODEL 5
REMARK VINA RESULT:      -7.6      0.880      1.520
REMARK  Name = 
REMARK  13 active torsions:
REMARK  status: ('A' for Active; 'I' for Inactive)
REMARK    1  A    between atoms: C_1  and  C_2
REMARK    2  A    between atoms: C_8  and  C_9
REMARK    3  A    between atoms: C_9  and  C_10
REMARK    4  A    between atoms: C_10  and  C_11
REMARK    5  A    between atoms: C_13  and  C_14
REMARK    6  A    between atoms: N_20  and  C_21
REMARK    7  A    between atoms: C_21  and  C_22
REMARK    8  A    between atoms: C_22  and  O_23
REMARK    9  A    between atoms: C_22  and  C_24
REMARK   10  A    between atoms: C_24  and  N_25
REMARK   11  A    between atoms: N_25  and  C_26
REMARK   12  A    between atoms: N_25  and  C_27
REMARK   13  A    between atoms: C_27  and  C_28
REMARK                            x       y       z     vdW  Elec       q    Type
REMARK                         _______ _______ _______ _____ _____    ______ ____
ROOT
ATOM      1  C   UNL     1       7.103   6.270  17.240  0.00  0.00    +0.000 A 
ATOM      2  N   UNL     1       7.350   6.154  15.948  0.00  0.00    +0.000 NA
ATOM      3  C   UNL     1       6.645   5.054  15.520  0.00  0.00    +0.000 A 
ATOM      4  C   UNL     1       5.950   4.495  16.563  0.00  0.00    +0.000 A 
ATOM      5  N   UNL     1       6.311   5.225  17.659  0.00  0.00    +0.000 N 
ENDROOT
BRANCH   3   6
ATOM      6  C   UNL     1       6.647   4.539  14.121  0.00  0.00    +0.000 A 
ATOM      7  C   UNL     1       5.702   3.668  13.623  0.00  0.00    +0.000 A 
ATOM      8  C   UNL     1       5.943   3.342  12.256  0.00  0.00    +0.000 A 
ATOM      9  C   UNL     1       7.075   3.958  11.770  0.00  0.00    +0.000 A 
ATOM     10  S   UNL     1       7.806   4.964  12.940  0.00  0.00    +0.000 S 
ENDBRANCH   3   6
BRANCH   1  11
ATOM     11  C   UNL     1       7.655   7.340  18.136  0.00  0.00    +0.000 C 
BRANCH  11  12
ATOM     12  C   UNL     1       8.164   8.535  17.332  0.00  0.00    +0.000 C 
BRANCH  12  20
ATOM     13  C   UNL     1       8.559  13.939  17.922  0.00  0.00    +0.000 C 
ATOM     14  C   UNL     1       9.031  13.046  19.024  0.00  0.00    +0.000 A 
ATOM     15  C   UNL     1       9.577  13.518  20.170  0.00  0.00    +0.000 A 
ATOM     16  C   UNL     1      10.014  12.582  21.195  0.00  0.00    +0.000 A 
ATOM     17  C   UNL     1       9.893  11.253  21.032  0.00  0.00    +0.000 A 
ATOM     18  C   UNL     1       9.319  10.741  19.836  0.00  0.00    +0.000 A 
ATOM     19  N   UNL     1       9.092   9.513  19.432  0.00  0.00    +0.000 NA
ATOM     20  C   UNL     1       8.535   9.689  18.196  0.00  0.00    +0.000 A 
ATOM     21  N   UNL     1       8.390  10.961  17.808  0.00  0.00    +0.000 NA
ATOM     22  N   UNL     1       8.903  11.656  18.863  0.00  0.00    +0.000 N 
ENDBRANCH  12  20
ENDBRANCH  11  12
ENDBRANCH   1  11
BRANCH   5  23
ATOM     23  C   UNL     1       5.924   4.879  19.010  0.00  0.00    +0.000 C 
BRANCH  23  24
ATOM     24  C   UNL     1       4.902   3.732  19.039  0.00  0.00    +0.000 C 
BRANCH  24  25
ATOM     25  O   UNL     1       5.251   2.735  20.010  0.00  0.00    +0.000 OA
ATOM     26  H   UNL     1       5.659   1.979  19.556  0.00  0.00    +0.000 HD
ENDBRANCH  24  25
BRANCH  24  27
ATOM     27  C   UNL     1       3.519   4.286  19.405  0.00  0.00    +0.000 C 
BRANCH  27  28
ATOM     28  N   UNL     1       2.445   3.894  18.470  0.00  0.00    +0.000 NA
ATOM     29  C   UNL     1       1.574   2.867  19.034  0.00  0.00    +0.000 C 
BRANCH  28  30
ATOM     30  C   UNL     1       1.682   5.077  18.029  0.00  0.00    +0.000 C 
BRANCH  30  31
ATOM     31  C   UNL     1       2.629   6.262  17.935  0.00  0.00    +0.000 C 
ATOM     32  N   UNL     1       3.414   7.246  17.856  0.00  0.00    +0.000 NA
ENDBRANCH  30  31
ENDBRANCH  28  30
ENDBRANCH  27  28
ENDBRANCH  24  27
ENDBRANCH  23  24
ENDBRANCH   5  23
TORSDOF 11
ENDMDL
MODEL 6
REMARK VINA RESULT:      -7.5      1.227      1.362
REMARK  Name = 
REMARK  13 active torsions:
REMARK  status: ('A' for Active; 'I' for Inactive)
REMARK    1  A    between atoms: C_1  and  C_2
REMARK    2  A    between atoms: C_8  and  C_9
REMARK    3  A    between atoms: C_9  and  C_10
REMARK    4  A    between atoms: C_10  and  C_11
REMARK    5  A    between atoms: C_13  and  C_14
REMARK    6  A    between atoms: N_20  and  C_21
REMARK    7  A    between atoms: C_21  and  C_22
REMARK    8  A    between atoms: C_22  and  O_23
REMARK    9  A    between atoms: C_22  and  C_24
REMARK   10  A    between atoms: C_24  and  N_25
REMARK   11  A    between atoms: N_25  and  C_26
REMARK   12  A    between atoms: N_25  and  C_27
REMARK   13  A    between atoms: C_27  and  C_28
REMARK                            x       y       z     vdW  Elec       q    Type
REMARK                         _______ _______ _______ _____ _____    ______ ____
ROOT
ATOM      1  C   UNL     1       7.320   6.477  17.270  0.00  0.00    +0.000 A 
ATOM      2  N   UNL     1       7.543   6.272  15.984  0.00  0.00    +0.000 NA
ATOM      3  C   UNL     1       6.748   5.211  15.622  0.00  0.00    +0.000 A 
ATOM      4  C   UNL     1       6.024   4.765  16.699  0.00  0.00    +0.000 A 
ATOM      5  N   UNL     1       6.454   5.522  17.751  0.00  0.00    +0.000 N 
ENDROOT
BRANCH   3   6
ATOM      6  C   UNL     1       6.693   4.622  14.253  0.00  0.00    +0.000 A 
ATOM      7  C   UNL     1       7.587   4.928  13.250  0.00  0.00    +0.000 A 
ATOM      8  C   UNL     1       7.302   4.220  12.045  0.00  0.00    +0.000 A 
ATOM      9  C   UNL     1       6.188   3.418  12.168  0.00  0.00    +0.000 A 
ATOM     10  S   UNL     1       5.528   3.481  13.742  0.00  0.00    +0.000 S 
ENDBRANCH   3   6
BRANCH   1  11
ATOM     11  C   UNL     1       7.965   7.547  18.102  0.00  0.00    +0.000 C 
BRANCH  11  12
ATOM     12  C   UNL     1       7.505   8.940  17.678  0.00  0.00    +0.000 C 
BRANCH  12  20
ATOM     13  C   UNL     1       9.184  14.120  17.446  0.00  0.00    +0.000 C 
ATOM     14  C   UNL     1       9.767  13.207  18.476  0.00  0.00    +0.000 A 
ATOM     15  C   UNL     1      10.719  13.602  19.355  0.00  0.00    +0.000 A 
ATOM     16  C   UNL     1      11.237  12.651  20.327  0.00  0.00    +0.000 A 
ATOM     17  C   UNL     1      10.796  11.381  20.373  0.00  0.00    +0.000 A 
ATOM     18  C   UNL     1       9.796  10.951  19.460  0.00  0.00    +0.000 A 
ATOM     19  N   UNL     1       9.205   9.790  19.294  0.00  0.00    +0.000 NA
ATOM     20  C   UNL     1       8.352  10.021  18.251  0.00  0.00    +0.000 A 
ATOM     21  N   UNL     1       8.368  11.266  17.761  0.00  0.00    +0.000 NA
ATOM     22  N   UNL     1       9.308  11.880  18.535  0.00  0.00    +0.000 N 
ENDBRANCH  12  20
ENDBRANCH  11  12
ENDBRANCH   1  11
BRANCH   5  23
ATOM     23  C   UNL     1       6.056   5.281  19.122  0.00  0.00    +0.000 C 
BRANCH  23  24
ATOM     24  C   UNL     1       4.604   5.711  19.383  0.00  0.00    +0.000 C 
BRANCH  24  25
ATOM     25  O   UNL     1       4.089   6.516  18.313  0.00  0.00    +0.000 OA
ATOM     26  H   UNL     1       3.370   7.074  18.653  0.00  0.00    +0.000 HD
ENDBRANCH  24  25
BRANCH  24  27
ATOM     27  C   UNL     1       3.716   4.467  19.509  0.00  0.00    +0.000 C 
BRANCH  27  28
ATOM     28  N   UNL     1       2.277   4.730  19.305  0.00  0.00    +0.000 NA
ATOM     29  C   UNL     1       1.654   3.732  18.440  0.00  0.00    +0.000 C 
BRANCH  28  30
ATOM     30  C   UNL     1       1.580   4.842  20.601  0.00  0.00    +0.000 C 
BRANCH  30  31
ATOM     31  C   UNL     1       1.801   3.560  21.387  0.00  0.00    +0.000 C 
ATOM     32  N   UNL     1       1.984   2.495  22.039  0.00  0.00    +0.000 NA
ENDBRANCH  30  31
ENDBRANCH  28  30
ENDBRANCH  27  28
ENDBRANCH  24  27
ENDBRANCH  23  24
ENDBRANCH   5  23
TORSDOF 11
ENDMDL
MODEL 7
REMARK VINA RESULT:      -7.4      1.025      1.119
REMARK  Name = 
REMARK  13 active torsions:
REMARK  status: ('A' for Active; 'I' for Inactive)
REMARK    1  A    between atoms: C_1  and  C_2
REMARK    2  A    between atoms: C_8  and  C_9
REMARK    3  A    between atoms: C_9  and  C_10
REMARK    4  A    between atoms: C_10  and  C_11
REMARK    5  A    between atoms: C_13  and  C_14
REMARK    6  A    between atoms: N_20  and  C_21
REMARK    7  A    between atoms: C_21  and  C_22
REMARK    8  A    between atoms: C_22  and  O_23
REMARK    9  A    between atoms: C_22  and  C_24
REMARK   10  A    between atoms: C_24  and  N_25
REMARK   11  A    between atoms: N_25  and  C_26
REMARK   12  A    between atoms: N_25  and  C_27
REMARK   13  A    between atoms: C_27  and  C_28
REMARK                            x       y       z     vdW  Elec       q    Type
REMARK                         _______ _______ _______ _____ _____    ______ ____
ROOT
ATOM      1  C   UNL     1       6.400   6.557  17.030  0.00  0.00    +0.000 A 
ATOM      2  N   UNL     1       6.704   6.390  15.756  0.00  0.00    +0.000 NA
ATOM      3  C   UNL     1       6.233   5.146  15.409  0.00  0.00    +0.000 A 
ATOM      4  C   UNL     1       5.625   4.548  16.485  0.00  0.00    +0.000 A 
ATOM      5  N   UNL     1       5.808   5.417  17.522  0.00  0.00    +0.000 N 
ENDROOT
BRANCH   3   6
ATOM      6  C   UNL     1       6.374   4.532  14.058  0.00  0.00    +0.000 A 
ATOM      7  C   UNL     1       5.483   3.623  13.531  0.00  0.00    +0.000 A 
ATOM      8  C   UNL     1       5.860   3.201  12.222  0.00  0.00    +0.000 A 
ATOM      9  C   UNL     1       7.037   3.788  11.809  0.00  0.00    +0.000 A 
ATOM     10  S   UNL     1       7.648   4.878  12.972  0.00  0.00    +0.000 S 
ENDBRANCH   3   6
BRANCH   1  11
ATOM     11  C   UNL     1       6.713   7.780  17.842  0.00  0.00    +0.000 C 
BRANCH  11  12
ATOM     12  C   UNL     1       8.217   7.956  18.034  0.00  0.00    +0.000 C 
BRANCH  12  20
ATOM     13  C   UNL     1       7.691  13.314  17.185  0.00  0.00    +0.000 C 
ATOM     14  C   UNL     1       8.624  12.830  18.246  0.00  0.00    +0.000 A 
ATOM     15  C   UNL     1       9.372  13.665  19.006  0.00  0.00    +0.000 A 
ATOM     16  C   UNL     1      10.260  13.114  20.019  0.00  0.00    +0.000 A 
ATOM     17  C   UNL     1      10.362  11.788  20.218  0.00  0.00    +0.000 A 
ATOM     18  C   UNL     1       9.582  10.897  19.432  0.00  0.00    +0.000 A 
ATOM     19  N   UNL     1       9.496   9.587  19.423  0.00  0.00    +0.000 NA
ATOM     20  C   UNL     1       8.585   9.342  18.434  0.00  0.00    +0.000 A 
ATOM     21  N   UNL     1       8.087  10.427  17.830  0.00  0.00    +0.000 NA
ATOM     22  N   UNL     1       8.733  11.446  18.465  0.00  0.00    +0.000 N 
ENDBRANCH  12  20
ENDBRANCH  11  12
ENDBRANCH   1  11
BRANCH   5  23
ATOM     23  C   UNL     1       5.452   5.111  18.891  0.00  0.00    +0.000 C 
BRANCH  23  24
ATOM     24  C   UNL     1       4.540   3.877  18.985  0.00  0.00    +0.000 C 
BRANCH  24  25
ATOM     25  O   UNL     1       5.179   2.797  19.679  0.00  0.00    +0.000 OA
ATOM     26  H   UNL     1       4.598   2.492  20.396  0.00  0.00    +0.000 HD
ENDBRANCH  24  25
BRANCH  24  27
ATOM     27  C   UNL     1       3.262   4.243  19.752  0.00  0.00    +0.000 C 
BRANCH  27  28
ATOM     28  N   UNL     1       2.030   4.162  18.942  0.00  0.00    +0.000 NA
ATOM     29  C   UNL     1       2.218   3.363  17.735  0.00  0.00    +0.000 C 
BRANCH  28  30
ATOM     30  C   UNL     1       0.904   3.666  19.756  0.00  0.00    +0.000 C 
BRANCH  30  31
ATOM     31  C   UNL     1       1.453   3.102  21.057  0.00  0.00    +0.000 C 
ATOM     32  N   UNL     1       1.908   2.635  22.136  0.00  0.00    +0.000 NA
ENDBRANCH  30  31
ENDBRANCH  28  30
ENDBRANCH  27  28
ENDBRANCH  24  27
ENDBRANCH  23  24
ENDBRANCH   5  23
TORSDOF 11
ENDMDL
MODEL 8
REMARK VINA RESULT:      -7.4      4.959      5.873
REMARK  Name = 
REMARK  13 active torsions:
REMARK  status: ('A' for Active; 'I' for Inactive)
REMARK    1  A    between atoms: C_1  and  C_2
REMARK    2  A    between atoms: C_8  and  C_9
REMARK    3  A    between atoms: C_9  and  C_10
REMARK    4  A    between atoms: C_10  and  C_11
REMARK    5  A    between atoms: C_13  and  C_14
REMARK    6  A    between atoms: N_20  and  C_21
REMARK    7  A    between atoms: C_21  and  C_22
REMARK    8  A    between atoms: C_22  and  O_23
REMARK    9  A    between atoms: C_22  and  C_24
REMARK   10  A    between atoms: C_24  and  N_25
REMARK   11  A    between atoms: N_25  and  C_26
REMARK   12  A    between atoms: N_25  and  C_27
REMARK   13  A    between atoms: C_27  and  C_28
REMARK                            x       y       z     vdW  Elec       q    Type
REMARK                         _______ _______ _______ _____ _____    ______ ____
ROOT
ATOM      1  C   UNL     1       4.448   5.615  17.447  0.00  0.00    +0.000 A 
ATOM      2  N   UNL     1       4.821   5.839  16.200  0.00  0.00    +0.000 NA
ATOM      3  C   UNL     1       5.560   4.745  15.818  0.00  0.00    +0.000 A 
ATOM      4  C   UNL     1       5.633   3.835  16.844  0.00  0.00    +0.000 A 
ATOM      5  N   UNL     1       4.994   4.433  17.892  0.00  0.00    +0.000 N 
ENDROOT
BRANCH   3   6
ATOM      6  C   UNL     1       6.200   4.579  14.482  0.00  0.00    +0.000 A 
ATOM      7  C   UNL     1       7.335   5.253  14.086  0.00  0.00    +0.000 A 
ATOM      8  C   UNL     1       7.730   4.902  12.761  0.00  0.00    +0.000 A 
ATOM      9  C   UNL     1       6.869   3.991  12.189  0.00  0.00    +0.000 A 
ATOM     10  S   UNL     1       5.628   3.524  13.265  0.00  0.00    +0.000 S 
ENDBRANCH   3   6
BRANCH   1  11
ATOM     11  C   UNL     1       3.610   6.541  18.281  0.00  0.00    +0.000 C 
BRANCH  11  12
ATOM     12  C   UNL     1       3.056   7.696  17.450  0.00  0.00    +0.000 C 
BRANCH  12  20
ATOM     13  C   UNL     1       0.783   8.919  22.250  0.00  0.00    +0.000 C 
ATOM     14  C   UNL     1       0.374   9.682  21.032  0.00  0.00    +0.000 A 
ATOM     15  C   UNL     1      -0.560  10.663  21.056  0.00  0.00    +0.000 A 
ATOM     16  C   UNL     1      -0.903  11.357  19.824  0.00  0.00    +0.000 A 
ATOM     17  C   UNL     1      -0.318  11.046  18.654  0.00  0.00    +0.000 A 
ATOM     18  C   UNL     1       0.666  10.021  18.611  0.00  0.00    +0.000 A 
ATOM     19  N   UNL     1       1.374   9.531  17.620  0.00  0.00    +0.000 NA
ATOM     20  C   UNL     1       2.128   8.564  18.225  0.00  0.00    +0.000 A 
ATOM     21  N   UNL     1       1.939   8.428  19.542  0.00  0.00    +0.000 NA
ATOM     22  N   UNL     1       0.985   9.367  19.805  0.00  0.00    +0.000 N 
ENDBRANCH  12  20
ENDBRANCH  11  12
ENDBRANCH   1  11
BRANCH   5  23
ATOM     23  C   UNL     1       4.967   3.881  19.229  0.00  0.00    +0.000 C 
BRANCH  23  24
ATOM     24  C   UNL     1       4.005   2.687  19.339  0.00  0.00    +0.000 C 
BRANCH  24  25
ATOM     25  O   UNL     1       4.704   1.436  19.284  0.00  0.00    +0.000 OA
ATOM     26  H   UNL     1       4.667   1.013  20.158  0.00  0.00    +0.000 HD
ENDBRANCH  24  25
BRANCH  24  27
ATOM     27  C   UNL     1       3.256   2.753  20.676  0.00  0.00    +0.000 C 
BRANCH  27  28
ATOM     28  N   UNL     1       1.807   3.006  20.543  0.00  0.00    +0.000 NA
ATOM     29  C   UNL     1       1.496   4.433  20.552  0.00  0.00    +0.000 C 
BRANCH  28  30
ATOM     30  C   UNL     1       1.271   2.337  19.342  0.00  0.00    +0.000 C 
BRANCH  30  31
ATOM     31  C   UNL     1       1.200   3.349  18.210  0.00  0.00    +0.000 C 
ATOM     32  N   UNL     1       1.142   4.188  17.270  0.00  0.00    +0.000 NA
ENDBRANCH  30  31
ENDBRANCH  28  30
ENDBRANCH  27  28
ENDBRANCH  24  27
ENDBRANCH  23  24
ENDBRANCH   5  23
TORSDOF 11
ENDMDL
MODEL 9
REMARK VINA RESULT:      -7.4      1.483      1.904
REMARK  Name = 
REMARK  13 active torsions:
REMARK  status: ('A' for Active; 'I' for Inactive)
REMARK    1  A    between atoms: C_1  and  C_2
REMARK    2  A    between atoms: C_8  and  C_9
REMARK    3  A    between atoms: C_9  and  C_10
REMARK    4  A    between atoms: C_10  and  C_11
REMARK    5  A    between atoms: C_13  and  C_14
REMARK    6  A    between atoms: N_20  and  C_21
REMARK    7  A    between atoms: C_21  and  C_22
REMARK    8  A    between atoms: C_22  and  O_23
REMARK    9  A    between atoms: C_22  and  C_24
REMARK   10  A    between atoms: C_24  and  N_25
REMARK   11  A    between atoms: N_25  and  C_26
REMARK   12  A    between atoms: N_25  and  C_27
REMARK   13  A    between atoms: C_27  and  C_28
REMARK                            x       y       z     vdW  Elec       q    Type
REMARK                         _______ _______ _______ _____ _____    ______ ____
ROOT
ATOM      1  C   UNL     1       7.334   6.479  17.393  0.00  0.00    +0.000 A 
ATOM      2  N   UNL     1       7.575   6.309  16.106  0.00  0.00    +0.000 NA
ATOM      3  C   UNL     1       6.792   5.253  15.705  0.00  0.00    +0.000 A 
ATOM      4  C   UNL     1       6.055   4.776  16.761  0.00  0.00    +0.000 A 
ATOM      5  N   UNL     1       6.467   5.508  17.837  0.00  0.00    +0.000 N 
ENDROOT
BRANCH   3   6
ATOM      6  C   UNL     1       6.759   4.699  14.322  0.00  0.00    +0.000 A 
ATOM      7  C   UNL     1       7.642   5.064  13.328  0.00  0.00    +0.000 A 
ATOM      8  C   UNL     1       7.383   4.378  12.105  0.00  0.00    +0.000 A 
ATOM      9  C   UNL     1       6.299   3.533  12.205  0.00  0.00    +0.000 A 
ATOM     10  S   UNL     1       5.637   3.530  13.779  0.00  0.00    +0.000 S 
ENDBRANCH   3   6
BRANCH   1  11
ATOM     11  C   UNL     1       7.962   7.531  18.260  0.00  0.00    +0.000 C 
BRANCH  11  12
ATOM     12  C   UNL     1       8.150   8.843  17.503  0.00  0.00    +0.000 C 
BRANCH  12  20
ATOM     13  C   UNL     1       8.596  11.423  22.283  0.00  0.00    +0.000 C 
ATOM     14  C   UNL     1       9.454  11.852  21.137  0.00  0.00    +0.000 A 
ATOM     15  C   UNL     1      10.335  12.877  21.221  0.00  0.00    +0.000 A 
ATOM     16  C   UNL     1      11.133  13.235  20.058  0.00  0.00    +0.000 A 
ATOM     17  C   UNL     1      11.014  12.574  18.893  0.00  0.00    +0.000 A 
ATOM     18  C   UNL     1      10.096  11.494  18.788  0.00  0.00    +0.000 A 
ATOM     19  N   UNL     1       9.791  10.701  17.788  0.00  0.00    +0.000 NA
ATOM     20  C   UNL     1       8.834   9.883  18.319  0.00  0.00    +0.000 A 
ATOM     21  N   UNL     1       8.530  10.112  19.602  0.00  0.00    +0.000 NA
ATOM     22  N   UNL     1       9.340  11.163  19.917  0.00  0.00    +0.000 N 
ENDBRANCH  12  20
ENDBRANCH  11  12
ENDBRANCH   1  11
BRANCH   5  23
ATOM     23  C   UNL     1       6.051   5.230  19.196  0.00  0.00    +0.000 C 
BRANCH  23  24
ATOM     24  C   UNL     1       4.580   5.605  19.435  0.00  0.00    +0.000 C 
BRANCH  24  25
ATOM     25  O   UNL     1       4.047   6.378  18.351  0.00  0.00    +0.000 OA
ATOM     26  H   UNL     1       4.431   7.270  18.378  0.00  0.00    +0.000 HD
ENDBRANCH  24  25
BRANCH  24  27
ATOM     27  C   UNL     1       3.740   4.327  19.563  0.00  0.00    +0.000 C 
BRANCH  27  28
ATOM     28  N   UNL     1       2.330   4.488  19.153  0.00  0.00    +0.000 NA
ATOM     29  C   UNL     1       1.887   3.408  18.277  0.00  0.00    +0.000 C 
BRANCH  28  30
ATOM     30  C   UNL     1       1.458   4.626  20.335  0.00  0.00    +0.000 C 
BRANCH  30  31
ATOM     31  C   UNL     1       1.762   3.493  21.302  0.00  0.00    +0.000 C 
ATOM     32  N   UNL     1       2.015   2.552  22.104  0.00  0.00    +0.000 NA
ENDBRANCH  30  31
ENDBRANCH  28  30
ENDBRANCH  27  28
ENDBRANCH  24  27
ENDBRANCH  23  24
ENDBRANCH   5  23
TORSDOF 11
ENDMDL
