MODEL 1
REMARK VINA RESULT:      -6.9      0.000      0.000
REMARK  Name = 
REMARK  7 active torsions:
REMARK  status: ('A' for Active; 'I' for Inactive)
REMARK    1  A    between atoms: C_4  and  C_5
REMARK    2  A    between atoms: C_11  and  C_12
REMARK    3  A    between atoms: N_19  and  C_20
REMARK    4  A    between atoms: C_20  and  C_21
REMARK    5  A    between atoms: C_24  and  S_25
REMARK    6  A    between atoms: N_26  and  C_27
REMARK    7  A    between atoms: C_30  and  N_31
REMARK                            x       y       z     vdW  Elec       q    Type
REMARK                         _______ _______ _______ _____ _____    ______ ____
ROOT
ATOM      1  O   UNL     1       1.072  13.964  22.316  0.00  0.00    +0.000 OA
ATOM      2  C   UNL     1       0.632  13.419  21.304  0.00  0.00    +0.000 A 
ATOM      3  N   UNL     1       1.048  12.163  20.949  0.00  0.00    +0.000 NA
ATOM      4  C   UNL     1       0.515  11.581  19.920  0.00  0.00    +0.000 A 
ATOM      5  C   UNL     1      -0.655  12.230  19.195  0.00  0.00    +0.000 A 
ATOM      6  N   UNL     1      -0.917  13.484  19.412  0.00  0.00    +0.000 NA
ATOM      7  N   UNL     1      -0.231  14.097  20.439  0.00  0.00    +0.000 N 
ENDROOT
BRANCH   4   8
ATOM      8  C   UNL     1       1.124  10.300  19.459  0.00  0.00    +0.000 A 
ATOM      9  C   UNL     1       1.172   9.218  20.347  0.00  0.00    +0.000 A 
ATOM     10  C   UNL     1       1.701   7.993  19.935  0.00  0.00    +0.000 A 
ATOM     11  C   UNL     1       2.182   7.844  18.634  0.00  0.00    +0.000 A 
ATOM     12  C   UNL     1       2.161   8.925  17.754  0.00  0.00    +0.000 A 
ATOM     13  C   UNL     1       1.657  10.159  18.171  0.00  0.00    +0.000 A 
ENDBRANCH   4   8
BRANCH   5  14
ATOM     14  C   UNL     1      -1.537  11.473  18.261  0.00  0.00    +0.000 A 
ATOM     15  C   UNL     1      -1.757  11.912  16.949  0.00  0.00    +0.000 A 
ATOM     16  C   UNL     1      -2.639  11.222  16.117  0.00  0.00    +0.000 A 
ATOM     17  C   UNL     1      -3.259  10.058  16.567  0.00  0.00    +0.000 A 
ATOM     18  C   UNL     1      -2.997   9.580  17.850  0.00  0.00    +0.000 A 
ATOM     19  C   UNL     1      -2.140  10.287  18.699  0.00  0.00    +0.000 A 
ENDBRANCH   5  14
BRANCH   7  20
ATOM     20  C   UNL     1      -0.598  15.473  20.756  0.00  0.00    +0.000 C 
BRANCH  20  21
ATOM     21  C   UNL     1      -0.618  16.334  19.533  0.00  0.00    +0.000 A 
ATOM     22  N   UNL     1      -1.681  16.945  19.041  0.00  0.00    +0.000 NA
ATOM     23  N   UNL     1      -1.279  17.768  18.028  0.00  0.00    +0.000 NA
ATOM     24  C   UNL     1       0.018  17.638  17.898  0.00  0.00    +0.000 A 
ATOM     25  N   UNL     1       0.508  16.706  18.798  0.00  0.00    +0.000 N 
BRANCH  25  26
ATOM     26  C   UNL     1       1.835  16.189  18.907  0.00  0.00    +0.000 A 
ATOM     27  C   UNL     1       2.797  16.872  19.671  0.00  0.00    +0.000 A 
ATOM     28  C   UNL     1       4.126  16.439  19.692  0.00  0.00    +0.000 A 
ATOM     29  C   UNL     1       4.497  15.309  18.957  0.00  0.00    +0.000 A 
ATOM     30  C   UNL     1       3.537  14.591  18.230  0.00  0.00    +0.000 A 
ATOM     31  C   UNL     1       2.208  15.032  18.204  0.00  0.00    +0.000 A 
BRANCH  29  32
ATOM     32  N   UNL     1       5.905  14.892  18.922  0.00  0.00    +0.000 N 
ATOM     33  O   UNL     1       6.534  14.897  19.990  0.00  0.00    +0.000 OA
ATOM     34  O   UNL     1       6.382  14.572  17.825  0.00  0.00    +0.000 OA
ENDBRANCH  29  32
ENDBRANCH  25  26
BRANCH  24  35
ATOM     35  S   UNL     1       0.901  18.395  16.612  0.00  0.00    +0.000 S 
ATOM     36  H   UNL     1       1.642  19.199  17.387  0.00  0.00    +0.000 HD
ENDBRANCH  24  35
ENDBRANCH  20  21
ENDBRANCH   7  20
TORSDOF 7
ENDMDL
MODEL 2
REMARK VINA RESULT:      -6.8      4.774      7.261
REMARK  Name = 
REMARK  7 active torsions:
REMARK  status: ('A' for Active; 'I' for Inactive)
REMARK    1  A    between atoms: C_4  and  C_5
REMARK    2  A    between atoms: C_11  and  C_12
REMARK    3  A    between atoms: N_19  and  C_20
REMARK    4  A    between atoms: C_20  and  C_21
REMARK    5  A    between atoms: C_24  and  S_25
REMARK    6  A    between atoms: N_26  and  C_27
REMARK    7  A    between atoms: C_30  and  N_31
REMARK                            x       y       z     vdW  Elec       q    Type
REMARK                         _______ _______ _______ _____ _____    ______ ____
ROOT
ATOM      1  O   UNL     1      -4.317  12.007  24.486  0.00  0.00    +0.000 OA
ATOM      2  C   UNL     1      -3.325  12.354  23.846  0.00  0.00    +0.000 A 
ATOM      3  N   UNL     1      -2.535  11.425  23.221  0.00  0.00    +0.000 NA
ATOM      4  C   UNL     1      -1.540  11.821  22.492  0.00  0.00    +0.000 A 
ATOM      5  C   UNL     1      -1.329  13.304  22.224  0.00  0.00    +0.000 A 
ATOM      6  N   UNL     1      -1.953  14.175  22.959  0.00  0.00    +0.000 NA
ATOM      7  N   UNL     1      -2.920  13.691  23.814  0.00  0.00    +0.000 N 
ENDROOT
BRANCH   4   8
ATOM      8  C   UNL     1      -0.599  10.780  21.984  0.00  0.00    +0.000 A 
ATOM      9  C   UNL     1       0.117  10.009  22.910  0.00  0.00    +0.000 A 
ATOM     10  C   UNL     1       0.977   9.001  22.468  0.00  0.00    +0.000 A 
ATOM     11  C   UNL     1       1.124   8.759  21.103  0.00  0.00    +0.000 A 
ATOM     12  C   UNL     1       0.435   9.540  20.176  0.00  0.00    +0.000 A 
ATOM     13  C   UNL     1      -0.406  10.566  20.613  0.00  0.00    +0.000 A 
ENDBRANCH   4   8
BRANCH   5  14
ATOM     14  C   UNL     1      -0.453  13.802  21.125  0.00  0.00    +0.000 A 
ATOM     15  C   UNL     1      -0.970  14.102  19.858  0.00  0.00    +0.000 A 
ATOM     16  C   UNL     1      -0.118  14.503  18.829  0.00  0.00    +0.000 A 
ATOM     17  C   UNL     1       1.244  14.665  19.072  0.00  0.00    +0.000 A 
ATOM     18  C   UNL     1       1.758  14.428  20.347  0.00  0.00    +0.000 A 
ATOM     19  C   UNL     1       0.912  13.994  21.372  0.00  0.00    +0.000 A 
ENDBRANCH   5  14
BRANCH   7  20
ATOM     20  C   UNL     1      -3.697  14.673  24.564  0.00  0.00    +0.000 C 
BRANCH  20  21
ATOM     21  C   UNL     1      -4.239  15.744  23.671  0.00  0.00    +0.000 A 
ATOM     22  N   UNL     1      -4.073  17.044  23.842  0.00  0.00    +0.000 NA
ATOM     23  N   UNL     1      -4.561  17.692  22.743  0.00  0.00    +0.000 NA
ATOM     24  C   UNL     1      -5.037  16.787  21.924  0.00  0.00    +0.000 A 
ATOM     25  N   UNL     1      -4.905  15.519  22.466  0.00  0.00    +0.000 N 
BRANCH  25  26
ATOM     26  C   UNL     1      -5.395  14.279  21.954  0.00  0.00    +0.000 A 
ATOM     27  C   UNL     1      -4.755  13.663  20.866  0.00  0.00    +0.000 A 
ATOM     28  C   UNL     1      -5.292  12.511  20.284  0.00  0.00    +0.000 A 
ATOM     29  C   UNL     1      -6.469  11.961  20.799  0.00  0.00    +0.000 A 
ATOM     30  C   UNL     1      -7.091  12.538  21.916  0.00  0.00    +0.000 A 
ATOM     31  C   UNL     1      -6.555  13.697  22.491  0.00  0.00    +0.000 A 
BRANCH  29  32
ATOM     32  N   UNL     1      -7.073  10.791  20.149  0.00  0.00    +0.000 N 
ATOM     33  O   UNL     1      -7.482   9.874  20.876  0.00  0.00    +0.000 OA
ATOM     34  O   UNL     1      -7.125  10.784  18.911  0.00  0.00    +0.000 OA
ENDBRANCH  29  32
ENDBRANCH  25  26
BRANCH  24  35
ATOM     35  S   UNL     1      -5.893  17.207  20.476  0.00  0.00    +0.000 S 
ATOM     36  H   UNL     1      -5.773  16.016  19.875  0.00  0.00    +0.000 HD
ENDBRANCH  24  35
ENDBRANCH  20  21
ENDBRANCH   7  20
TORSDOF 7
ENDMDL
MODEL 3
REMARK VINA RESULT:      -6.7      4.638      7.391
REMARK  Name = 
REMARK  7 active torsions:
REMARK  status: ('A' for Active; 'I' for Inactive)
REMARK    1  A    between atoms: C_4  and  C_5
REMARK    2  A    between atoms: C_11  and  C_12
REMARK    3  A    between atoms: N_19  and  C_20
REMARK    4  A    between atoms: C_20  and  C_21
REMARK    5  A    between atoms: C_24  and  S_25
REMARK    6  A    between atoms: N_26  and  C_27
REMARK    7  A    between atoms: C_30  and  N_31
REMARK                            x       y       z     vdW  Elec       q    Type
REMARK                         _______ _______ _______ _____ _____    ______ ____
ROOT
ATOM      1  O   UNL     1      -1.015  15.039  24.849  0.00  0.00    +0.000 OA
ATOM      2  C   UNL     1      -1.051  14.515  23.737  0.00  0.00    +0.000 A 
ATOM      3  N   UNL     1      -0.030  14.701  22.842  0.00  0.00    +0.000 NA
ATOM      4  C   UNL     1      -0.055  14.078  21.706  0.00  0.00    +0.000 A 
ATOM      5  C   UNL     1      -1.138  13.047  21.422  0.00  0.00    +0.000 A 
ATOM      6  N   UNL     1      -2.194  13.012  22.181  0.00  0.00    +0.000 NA
ATOM      7  N   UNL     1      -2.171  13.792  23.317  0.00  0.00    +0.000 N 
ENDROOT
BRANCH   4   8
ATOM      8  C   UNL     1       0.972  14.450  20.691  0.00  0.00    +0.000 A 
ATOM      9  C   UNL     1       2.203  13.780  20.700  0.00  0.00    +0.000 A 
ATOM     10  C   UNL     1       3.173  14.078  19.740  0.00  0.00    +0.000 A 
ATOM     11  C   UNL     1       2.917  15.044  18.767  0.00  0.00    +0.000 A 
ATOM     12  C   UNL     1       1.704  15.732  18.769  0.00  0.00    +0.000 A 
ATOM     13  C   UNL     1       0.743  15.456  19.744  0.00  0.00    +0.000 A 
ENDBRANCH   4   8
BRANCH   5  14
ATOM     14  C   UNL     1      -1.024  12.049  20.321  0.00  0.00    +0.000 A 
ATOM     15  C   UNL     1      -0.231  10.902  20.454  0.00  0.00    +0.000 A 
ATOM     16  C   UNL     1      -0.089  10.018  19.385  0.00  0.00    +0.000 A 
ATOM     17  C   UNL     1      -0.783  10.240  18.198  0.00  0.00    +0.000 A 
ATOM     18  C   UNL     1      -1.624  11.346  18.078  0.00  0.00    +0.000 A 
ATOM     19  C   UNL     1      -1.743  12.252  19.136  0.00  0.00    +0.000 A 
ENDBRANCH   5  14
BRANCH   7  20
ATOM     20  C   UNL     1      -3.307  13.676  24.226  0.00  0.00    +0.000 C 
BRANCH  20  21
ATOM     21  C   UNL     1      -4.304  14.769  24.004  0.00  0.00    +0.000 A 
ATOM     22  N   UNL     1      -4.365  15.902  24.681  0.00  0.00    +0.000 NA
ATOM     23  N   UNL     1      -5.287  16.714  24.085  0.00  0.00    +0.000 NA
ATOM     24  C   UNL     1      -5.792  16.066  23.065  0.00  0.00    +0.000 A 
ATOM     25  N   UNL     1      -5.243  14.797  22.973  0.00  0.00    +0.000 N 
BRANCH  25  26
ATOM     26  C   UNL     1      -5.599  13.738  22.084  0.00  0.00    +0.000 A 
ATOM     27  C   UNL     1      -4.947  13.607  20.846  0.00  0.00    +0.000 A 
ATOM     28  C   UNL     1      -5.365  12.646  19.920  0.00  0.00    +0.000 A 
ATOM     29  C   UNL     1      -6.432  11.800  20.235  0.00  0.00    +0.000 A 
ATOM     30  C   UNL     1      -7.060  11.888  21.486  0.00  0.00    +0.000 A 
ATOM     31  C   UNL     1      -6.644  12.857  22.408  0.00  0.00    +0.000 A 
BRANCH  29  32
ATOM     32  N   UNL     1      -6.917  10.836  19.239  0.00  0.00    +0.000 N 
ATOM     33  O   UNL     1      -7.069  11.236  18.076  0.00  0.00    +0.000 OA
ATOM     34  O   UNL     1      -7.159   9.684  19.625  0.00  0.00    +0.000 OA
ENDBRANCH  29  32
ENDBRANCH  25  26
BRANCH  24  35
ATOM     35  S   UNL     1      -7.116  16.688  22.135  0.00  0.00    +0.000 S 
ATOM     36  H   UNL     1      -6.857  15.996  21.017  0.00  0.00    +0.000 HD
ENDBRANCH  24  35
ENDBRANCH  20  21
ENDBRANCH   7  20
TORSDOF 7
ENDMDL
MODEL 4
REMARK VINA RESULT:      -6.7      0.693      1.125
REMARK  Name = 
REMARK  7 active torsions:
REMARK  status: ('A' for Active; 'I' for Inactive)
REMARK    1  A    between atoms: C_4  and  C_5
REMARK    2  A    between atoms: C_11  and  C_12
REMARK    3  A    between atoms: N_19  and  C_20
REMARK    4  A    between atoms: C_20  and  C_21
REMARK    5  A    between atoms: C_24  and  S_25
REMARK    6  A    between atoms: N_26  and  C_27
REMARK    7  A    between atoms: C_30  and  N_31
REMARK                            x       y       z     vdW  Elec       q    Type
REMARK                         _______ _______ _______ _____ _____    ______ ____
ROOT
ATOM      1  O   UNL     1       1.025  14.377  22.423  0.00  0.00    +0.000 OA
ATOM      2  C   UNL     1       0.492  13.778  21.490  0.00  0.00    +0.000 A 
ATOM      3  N   UNL     1       0.907  12.521  21.138  0.00  0.00    +0.000 NA
ATOM      4  C   UNL     1       0.280  11.881  20.201  0.00  0.00    +0.000 A 
ATOM      5  C   UNL     1      -0.985  12.464  19.590  0.00  0.00    +0.000 A 
ATOM      6  N   UNL     1      -1.263  13.719  19.787  0.00  0.00    +0.000 NA
ATOM      7  N   UNL     1      -0.486  14.393  20.704  0.00  0.00    +0.000 N 
ENDROOT
BRANCH   4   8
ATOM      8  C   UNL     1       0.876  10.600  19.723  0.00  0.00    +0.000 A 
ATOM      9  C   UNL     1       1.449  10.558  18.444  0.00  0.00    +0.000 A 
ATOM     10  C   UNL     1       2.048   9.385  17.981  0.00  0.00    +0.000 A 
ATOM     11  C   UNL     1       2.079   8.251  18.791  0.00  0.00    +0.000 A 
ATOM     12  C   UNL     1       1.488   8.278  20.054  0.00  0.00    +0.000 A 
ATOM     13  C   UNL     1       0.864   9.441  20.510  0.00  0.00    +0.000 A 
ENDBRANCH   4   8
BRANCH   5  14
ATOM     14  C   UNL     1      -1.941  11.643  18.793  0.00  0.00    +0.000 A 
ATOM     15  C   UNL     1      -1.496  10.611  17.958  0.00  0.00    +0.000 A 
ATOM     16  C   UNL     1      -2.405   9.901  17.172  0.00  0.00    +0.000 A 
ATOM     17  C   UNL     1      -3.768  10.176  17.260  0.00  0.00    +0.000 A 
ATOM     18  C   UNL     1      -4.225  11.161  18.136  0.00  0.00    +0.000 A 
ATOM     19  C   UNL     1      -3.315  11.896  18.900  0.00  0.00    +0.000 A 
ENDBRANCH   5  14
BRANCH   7  20
ATOM     20  C   UNL     1      -0.860  15.771  21.008  0.00  0.00    +0.000 C 
BRANCH  20  21
ATOM     21  C   UNL     1      -0.923  16.610  19.772  0.00  0.00    +0.000 A 
ATOM     22  N   UNL     1      -1.994  17.243  19.326  0.00  0.00    +0.000 NA
ATOM     23  N   UNL     1      -1.625  18.036  18.278  0.00  0.00    +0.000 NA
ATOM     24  C   UNL     1      -0.342  17.866  18.080  0.00  0.00    +0.000 A 
ATOM     25  N   UNL     1       0.171  16.937  18.970  0.00  0.00    +0.000 N 
BRANCH  25  26
ATOM     26  C   UNL     1       1.487  16.384  19.017  0.00  0.00    +0.000 A 
ATOM     27  C   UNL     1       2.498  17.033  19.745  0.00  0.00    +0.000 A 
ATOM     28  C   UNL     1       3.815  16.565  19.705  0.00  0.00    +0.000 A 
ATOM     29  C   UNL     1       4.124  15.434  18.944  0.00  0.00    +0.000 A 
ATOM     30  C   UNL     1       3.115  14.749  18.251  0.00  0.00    +0.000 A 
ATOM     31  C   UNL     1       1.798  15.225  18.287  0.00  0.00    +0.000 A 
BRANCH  29  32
ATOM     32  N   UNL     1       5.517  14.980  18.845  0.00  0.00    +0.000 N 
ATOM     33  O   UNL     1       6.201  14.986  19.878  0.00  0.00    +0.000 OA
ATOM     34  O   UNL     1       5.929  14.630  17.730  0.00  0.00    +0.000 OA
ENDBRANCH  29  32
ENDBRANCH  25  26
BRANCH  24  35
ATOM     35  S   UNL     1       0.490  18.575  16.734  0.00  0.00    +0.000 S 
ATOM     36  H   UNL     1       1.465  17.659  16.656  0.00  0.00    +0.000 HD
ENDBRANCH  24  35
ENDBRANCH  20  21
ENDBRANCH   7  20
TORSDOF 7
ENDMDL
MODEL 5
REMARK VINA RESULT:      -6.5      5.065      7.748
REMARK  Name = 
REMARK  7 active torsions:
REMARK  status: ('A' for Active; 'I' for Inactive)
REMARK    1  A    between atoms: C_4  and  C_5
REMARK    2  A    between atoms: C_11  and  C_12
REMARK    3  A    between atoms: N_19  and  C_20
REMARK    4  A    between atoms: C_20  and  C_21
REMARK    5  A    between atoms: C_24  and  S_25
REMARK    6  A    between atoms: N_26  and  C_27
REMARK    7  A    between atoms: C_30  and  N_31
REMARK                            x       y       z     vdW  Elec       q    Type
REMARK                         _______ _______ _______ _____ _____    ______ ____
ROOT
ATOM      1  O   UNL     1      -4.266  10.501  15.602  0.00  0.00    +0.000 OA
ATOM      2  C   UNL     1      -3.842  10.815  16.714  0.00  0.00    +0.000 A 
ATOM      3  N   UNL     1      -2.578  10.462  17.106  0.00  0.00    +0.000 NA
ATOM      4  C   UNL     1      -2.128  10.870  18.252  0.00  0.00    +0.000 A 
ATOM      5  C   UNL     1      -2.944  11.840  19.093  0.00  0.00    +0.000 A 
ATOM      6  N   UNL     1      -4.201  12.020  18.813  0.00  0.00    +0.000 NA
ATOM      7  N   UNL     1      -4.665  11.459  17.643  0.00  0.00    +0.000 N 
ENDROOT
BRANCH   4   8
ATOM      8  C   UNL     1      -0.827  10.313  18.720  0.00  0.00    +0.000 A 
ATOM      9  C   UNL     1      -0.698   9.938  20.065  0.00  0.00    +0.000 A 
ATOM     10  C   UNL     1       0.495   9.378  20.527  0.00  0.00    +0.000 A 
ATOM     11  C   UNL     1       1.562   9.188  19.650  0.00  0.00    +0.000 A 
ATOM     12  C   UNL     1       1.449   9.582  18.317  0.00  0.00    +0.000 A 
ATOM     13  C   UNL     1       0.267  10.168  17.857  0.00  0.00    +0.000 A 
ENDBRANCH   4   8
BRANCH   5  14
ATOM     14  C   UNL     1      -2.350  12.622  20.215  0.00  0.00    +0.000 A 
ATOM     15  C   UNL     1      -2.742  12.405  21.543  0.00  0.00    +0.000 A 
ATOM     16  C   UNL     1      -2.220  13.195  22.567  0.00  0.00    +0.000 A 
ATOM     17  C   UNL     1      -1.260  14.164  22.282  0.00  0.00    +0.000 A 
ATOM     18  C   UNL     1      -0.818  14.343  20.972  0.00  0.00    +0.000 A 
ATOM     19  C   UNL     1      -1.364  13.576  19.938  0.00  0.00    +0.000 A 
ENDBRANCH   5  14
BRANCH   7  20
ATOM     20  C   UNL     1      -6.046  11.746  17.270  0.00  0.00    +0.000 C 
BRANCH  20  21
ATOM     21  C   UNL     1      -6.315  13.217  17.242  0.00  0.00    +0.000 A 
ATOM     22  N   UNL     1      -6.268  13.987  16.169  0.00  0.00    +0.000 NA
ATOM     23  N   UNL     1      -6.736  15.225  16.502  0.00  0.00    +0.000 NA
ATOM     24  C   UNL     1      -7.045  15.207  17.775  0.00  0.00    +0.000 A 
ATOM     25  N   UNL     1      -6.764  13.969  18.328  0.00  0.00    +0.000 N 
BRANCH  25  26
ATOM     26  C   UNL     1      -6.844  13.569  19.697  0.00  0.00    +0.000 A 
ATOM     27  C   UNL     1      -5.977  14.133  20.648  0.00  0.00    +0.000 A 
ATOM     28  C   UNL     1      -5.968  13.667  21.966  0.00  0.00    +0.000 A 
ATOM     29  C   UNL     1      -6.839  12.641  22.343  0.00  0.00    +0.000 A 
ATOM     30  C   UNL     1      -7.743  12.103  21.415  0.00  0.00    +0.000 A 
ATOM     31  C   UNL     1      -7.744  12.566  20.093  0.00  0.00    +0.000 A 
BRANCH  29  32
ATOM     32  N   UNL     1      -6.785  12.103  23.708  0.00  0.00    +0.000 N 
ATOM     33  O   UNL     1      -7.704  11.354  24.069  0.00  0.00    +0.000 OA
ATOM     34  O   UNL     1      -5.830  12.441  24.422  0.00  0.00    +0.000 OA
ENDBRANCH  29  32
ENDBRANCH  25  26
BRANCH  24  35
ATOM     35  S   UNL     1      -7.529  16.635  18.631  0.00  0.00    +0.000 S 
ATOM     36  H   UNL     1      -8.805  16.273  18.825  0.00  0.00    +0.000 HD
ENDBRANCH  24  35
ENDBRANCH  20  21
ENDBRANCH   7  20
TORSDOF 7
ENDMDL
MODEL 6
REMARK VINA RESULT:      -6.3      4.775      7.990
REMARK  Name = 
REMARK  7 active torsions:
REMARK  status: ('A' for Active; 'I' for Inactive)
REMARK    1  A    between atoms: C_4  and  C_5
REMARK    2  A    between atoms: C_11  and  C_12
REMARK    3  A    between atoms: N_19  and  C_20
REMARK    4  A    between atoms: C_20  and  C_21
REMARK    5  A    between atoms: C_24  and  S_25
REMARK    6  A    between atoms: N_26  and  C_27
REMARK    7  A    between atoms: C_30  and  N_31
REMARK                            x       y       z     vdW  Elec       q    Type
REMARK                         _______ _______ _______ _____ _____    ______ ____
ROOT
ATOM      1  O   UNL     1       3.339  11.416  17.788  0.00  0.00    +0.000 OA
ATOM      2  C   UNL     1       2.162  11.502  18.139  0.00  0.00    +0.000 A 
ATOM      3  N   UNL     1       1.649  12.693  18.579  0.00  0.00    +0.000 NA
ATOM      4  C   UNL     1       0.389  12.776  18.871  0.00  0.00    +0.000 A 
ATOM      5  C   UNL     1      -0.539  11.600  18.600  0.00  0.00    +0.000 A 
ATOM      6  N   UNL     1      -0.025  10.430  18.365  0.00  0.00    +0.000 NA
ATOM      7  N   UNL     1       1.340  10.373  18.186  0.00  0.00    +0.000 N 
ENDROOT
BRANCH   4   8
ATOM      8  C   UNL     1      -0.089  14.031  19.521  0.00  0.00    +0.000 A 
ATOM      9  C   UNL     1      -0.174  14.076  20.919  0.00  0.00    +0.000 A 
ATOM     10  C   UNL     1      -0.581  15.247  21.561  0.00  0.00    +0.000 A 
ATOM     11  C   UNL     1      -0.902  16.378  20.810  0.00  0.00    +0.000 A 
ATOM     12  C   UNL     1      -0.844  16.332  19.418  0.00  0.00    +0.000 A 
ATOM     13  C   UNL     1      -0.464  15.153  18.771  0.00  0.00    +0.000 A 
ENDBRANCH   4   8
BRANCH   5  14
ATOM     14  C   UNL     1      -2.022  11.743  18.564  0.00  0.00    +0.000 A 
ATOM     15  C   UNL     1      -2.736  12.223  19.669  0.00  0.00    +0.000 A 
ATOM     16  C   UNL     1      -4.130  12.285  19.633  0.00  0.00    +0.000 A 
ATOM     17  C   UNL     1      -4.815  11.926  18.474  0.00  0.00    +0.000 A 
ATOM     18  C   UNL     1      -4.108  11.506  17.348  0.00  0.00    +0.000 A 
ATOM     19  C   UNL     1      -2.714  11.411  17.392  0.00  0.00    +0.000 A 
ENDBRANCH   5  14
BRANCH   7  20
ATOM     20  C   UNL     1       1.909   9.080  17.816  0.00  0.00    +0.000 C 
BRANCH  20  21
ATOM     21  C   UNL     1       1.934   8.138  18.977  0.00  0.00    +0.000 A 
ATOM     22  N   UNL     1       1.315   8.322  20.130  0.00  0.00    +0.000 NA
ATOM     23  N   UNL     1       1.427   7.180  20.871  0.00  0.00    +0.000 NA
ATOM     24  C   UNL     1       2.128   6.319  20.176  0.00  0.00    +0.000 A 
ATOM     25  N   UNL     1       2.524   6.874  18.969  0.00  0.00    +0.000 N 
BRANCH  25  26
ATOM     26  C   UNL     1       3.391   6.318  17.979  0.00  0.00    +0.000 A 
ATOM     27  C   UNL     1       3.260   4.970  17.604  0.00  0.00    +0.000 A 
ATOM     28  C   UNL     1       4.174   4.386  16.722  0.00  0.00    +0.000 A 
ATOM     29  C   UNL     1       5.218   5.154  16.200  0.00  0.00    +0.000 A 
ATOM     30  C   UNL     1       5.332   6.513  16.528  0.00  0.00    +0.000 A 
ATOM     31  C   UNL     1       4.419   7.093  17.419  0.00  0.00    +0.000 A 
BRANCH  29  32
ATOM     32  N   UNL     1       6.220   4.527  15.327  0.00  0.00    +0.000 N 
ATOM     33  O   UNL     1       5.810   3.836  14.384  0.00  0.00    +0.000 OA
ATOM     34  O   UNL     1       7.414   4.715  15.595  0.00  0.00    +0.000 OA
ENDBRANCH  29  32
ENDBRANCH  25  26
BRANCH  24  35
ATOM     35  S   UNL     1       2.634   4.795  20.828  0.00  0.00    +0.000 S 
ATOM     36  H   UNL     1       3.754   5.242  21.412  0.00  0.00    +0.000 HD
ENDBRANCH  24  35
ENDBRANCH  20  21
ENDBRANCH   7  20
TORSDOF 7
ENDMDL
MODEL 7
REMARK VINA RESULT:      -6.3      4.763      8.001
REMARK  Name = 
REMARK  7 active torsions:
REMARK  status: ('A' for Active; 'I' for Inactive)
REMARK    1  A    between atoms: C_4  and  C_5
REMARK    2  A    between atoms: C_11  and  C_12
REMARK    3  A    between atoms: N_19  and  C_20
REMARK    4  A    between atoms: C_20  and  C_21
REMARK    5  A    between atoms: C_24  and  S_25
REMARK    6  A    between atoms: N_26  and  C_27
REMARK    7  A    between atoms: C_30  and  N_31
REMARK                            x       y       z     vdW  Elec       q    Type
REMARK                         _______ _______ _______ _____ _____    ______ ____
ROOT
ATOM      1  O   UNL     1       3.301  11.471  17.781  0.00  0.00    +0.000 OA
ATOM      2  C   UNL     1       2.130  11.547  18.152  0.00  0.00    +0.000 A 
ATOM      3  N   UNL     1       1.611  12.735  18.594  0.00  0.00    +0.000 NA
ATOM      4  C   UNL     1       0.355  12.806  18.908  0.00  0.00    +0.000 A 
ATOM      5  C   UNL     1      -0.563  11.618  18.661  0.00  0.00    +0.000 A 
ATOM      6  N   UNL     1      -0.040  10.452  18.424  0.00  0.00    +0.000 NA
ATOM      7  N   UNL     1       1.322  10.409  18.221  0.00  0.00    +0.000 N 
ENDROOT
BRANCH   4   8
ATOM      8  C   UNL     1      -0.124  14.059  19.558  0.00  0.00    +0.000 A 
ATOM      9  C   UNL     1      -0.413  15.169  18.753  0.00  0.00    +0.000 A 
ATOM     10  C   UNL     1      -0.899  16.346  19.326  0.00  0.00    +0.000 A 
ATOM     11  C   UNL     1      -1.102  16.418  20.704  0.00  0.00    +0.000 A 
ATOM     12  C   UNL     1      -0.792  15.326  21.514  0.00  0.00    +0.000 A 
ATOM     13  C   UNL     1      -0.279  14.157  20.947  0.00  0.00    +0.000 A 
ENDBRANCH   4   8
BRANCH   5  14
ATOM     14  C   UNL     1      -2.049  11.744  18.650  0.00  0.00    +0.000 A 
ATOM     15  C   UNL     1      -2.802  11.395  17.522  0.00  0.00    +0.000 A 
ATOM     16  C   UNL     1      -4.185  11.585  17.514  0.00  0.00    +0.000 A 
ATOM     17  C   UNL     1      -4.830  12.066  18.651  0.00  0.00    +0.000 A 
ATOM     18  C   UNL     1      -4.094  12.358  19.799  0.00  0.00    +0.000 A 
ATOM     19  C   UNL     1      -2.705  12.200  19.800  0.00  0.00    +0.000 A 
ENDBRANCH   5  14
BRANCH   7  20
ATOM     20  C   UNL     1       1.899   9.120  17.850  0.00  0.00    +0.000 C 
BRANCH  20  21
ATOM     21  C   UNL     1       1.907   8.168  19.003  0.00  0.00    +0.000 A 
ATOM     22  N   UNL     1       1.279   8.347  20.152  0.00  0.00    +0.000 NA
ATOM     23  N   UNL     1       1.377   7.199  20.884  0.00  0.00    +0.000 NA
ATOM     24  C   UNL     1       2.078   6.339  20.188  0.00  0.00    +0.000 A 
ATOM     25  N   UNL     1       2.489   6.900  18.989  0.00  0.00    +0.000 N 
BRANCH  25  26
ATOM     26  C   UNL     1       3.360   6.347  18.002  0.00  0.00    +0.000 A 
ATOM     27  C   UNL     1       3.242   4.995  17.635  0.00  0.00    +0.000 A 
ATOM     28  C   UNL     1       4.160   4.414  16.756  0.00  0.00    +0.000 A 
ATOM     29  C   UNL     1       5.198   5.189  16.229  0.00  0.00    +0.000 A 
ATOM     30  C   UNL     1       5.299   6.550  16.549  0.00  0.00    +0.000 A 
ATOM     31  C   UNL     1       4.381   7.127  17.437  0.00  0.00    +0.000 A 
BRANCH  29  32
ATOM     32  N   UNL     1       6.204   4.566  15.359  0.00  0.00    +0.000 N 
ATOM     33  O   UNL     1       5.801   3.840  14.439  0.00  0.00    +0.000 OA
ATOM     34  O   UNL     1       7.396   4.792  15.607  0.00  0.00    +0.000 OA
ENDBRANCH  29  32
ENDBRANCH  25  26
BRANCH  24  35
ATOM     35  S   UNL     1       2.568   4.806  20.831  0.00  0.00    +0.000 S 
ATOM     36  H   UNL     1       1.692   4.777  21.845  0.00  0.00    +0.000 HD
ENDBRANCH  24  35
ENDBRANCH  20  21
ENDBRANCH   7  20
TORSDOF 7
ENDMDL
MODEL 8
REMARK VINA RESULT:      -6.3      5.126      7.615
REMARK  Name = 
REMARK  7 active torsions:
REMARK  status: ('A' for Active; 'I' for Inactive)
REMARK    1  A    between atoms: C_4  and  C_5
REMARK    2  A    between atoms: C_11  and  C_12
REMARK    3  A    between atoms: N_19  and  C_20
REMARK    4  A    between atoms: C_20  and  C_21
REMARK    5  A    between atoms: C_24  and  S_25
REMARK    6  A    between atoms: N_26  and  C_27
REMARK    7  A    between atoms: C_30  and  N_31
REMARK                            x       y       z     vdW  Elec       q    Type
REMARK                         _______ _______ _______ _____ _____    ______ ____
ROOT
ATOM      1  O   UNL     1      -4.720  10.871  15.956  0.00  0.00    +0.000 OA
ATOM      2  C   UNL     1      -4.238  11.126  17.059  0.00  0.00    +0.000 A 
ATOM      3  N   UNL     1      -2.965  10.733  17.374  0.00  0.00    +0.000 NA
ATOM      4  C   UNL     1      -2.454  11.079  18.514  0.00  0.00    +0.000 A 
ATOM      5  C   UNL     1      -3.209  12.025  19.436  0.00  0.00    +0.000 A 
ATOM      6  N   UNL     1      -4.474  12.240  19.224  0.00  0.00    +0.000 NA
ATOM      7  N   UNL     1      -5.003  11.742  18.053  0.00  0.00    +0.000 N 
ENDROOT
BRANCH   4   8
ATOM      8  C   UNL     1      -1.144  10.477  18.895  0.00  0.00    +0.000 A 
ATOM      9  C   UNL     1      -0.199  10.227  17.890  0.00  0.00    +0.000 A 
ATOM     10  C   UNL     1       1.052   9.699  18.218  0.00  0.00    +0.000 A 
ATOM     11  C   UNL     1       1.364   9.420  19.548  0.00  0.00    +0.000 A 
ATOM     12  C   UNL     1       0.419   9.641  20.549  0.00  0.00    +0.000 A 
ATOM     13  C   UNL     1      -0.843  10.144  20.222  0.00  0.00    +0.000 A 
ENDBRANCH   4   8
BRANCH   5  14
ATOM     14  C   UNL     1      -2.547  12.743  20.562  0.00  0.00    +0.000 A 
ATOM     15  C   UNL     1      -2.869  12.461  21.897  0.00  0.00    +0.000 A 
ATOM     16  C   UNL     1      -2.284  13.194  22.930  0.00  0.00    +0.000 A 
ATOM     17  C   UNL     1      -1.331  14.169  22.643  0.00  0.00    +0.000 A 
ATOM     18  C   UNL     1      -0.960  14.413  21.321  0.00  0.00    +0.000 A 
ATOM     19  C   UNL     1      -1.569  13.704  20.281  0.00  0.00    +0.000 A 
ENDBRANCH   5  14
BRANCH   7  20
ATOM     20  C   UNL     1      -6.395  12.071  17.760  0.00  0.00    +0.000 C 
BRANCH  20  21
ATOM     21  C   UNL     1      -6.539  13.484  17.290  0.00  0.00    +0.000 A 
ATOM     22  N   UNL     1      -6.557  13.877  16.029  0.00  0.00    +0.000 NA
ATOM     23  N   UNL     1      -6.875  15.204  15.991  0.00  0.00    +0.000 NA
ATOM     24  C   UNL     1      -7.027  15.614  17.226  0.00  0.00    +0.000 A 
ATOM     25  N   UNL     1      -6.787  14.580  18.117  0.00  0.00    +0.000 N 
BRANCH  25  26
ATOM     26  C   UNL     1      -6.734  14.632  19.543  0.00  0.00    +0.000 A 
ATOM     27  C   UNL     1      -5.584  15.119  20.188  0.00  0.00    +0.000 A 
ATOM     28  C   UNL     1      -5.475  15.068  21.581  0.00  0.00    +0.000 A 
ATOM     29  C   UNL     1      -6.525  14.539  22.338  0.00  0.00    +0.000 A 
ATOM     30  C   UNL     1      -7.697  14.094  21.709  0.00  0.00    +0.000 A 
ATOM     31  C   UNL     1      -7.800  14.139  20.313  0.00  0.00    +0.000 A 
BRANCH  29  32
ATOM     32  N   UNL     1      -6.386  14.420  23.795  0.00  0.00    +0.000 N 
ATOM     33  O   UNL     1      -5.272  14.647  24.288  0.00  0.00    +0.000 OA
ATOM     34  O   UNL     1      -7.388  14.088  24.442  0.00  0.00    +0.000 OA
ENDBRANCH  29  32
ENDBRANCH  25  26
BRANCH  24  35
ATOM     35  S   UNL     1      -7.280  17.282  17.624  0.00  0.00    +0.000 S 
ATOM     36  H   UNL     1      -7.888  17.623  16.479  0.00  0.00    +0.000 HD
ENDBRANCH  24  35
ENDBRANCH  20  21
ENDBRANCH   7  20
TORSDOF 7
ENDMDL
MODEL 9
REMARK VINA RESULT:      -6.3      3.705      5.734
REMARK  Name = 
REMARK  7 active torsions:
REMARK  status: ('A' for Active; 'I' for Inactive)
REMARK    1  A    between atoms: C_4  and  C_5
REMARK    2  A    between atoms: C_11  and  C_12
REMARK    3  A    between atoms: N_19  and  C_20
REMARK    4  A    between atoms: C_20  and  C_21
REMARK    5  A    between atoms: C_24  and  S_25
REMARK    6  A    between atoms: N_26  and  C_27
REMARK    7  A    between atoms: C_30  and  N_31
REMARK                            x       y       z     vdW  Elec       q    Type
REMARK                         _______ _______ _______ _____ _____    ______ ____
ROOT
ATOM      1  O   UNL     1      -6.586  12.851  20.872  0.00  0.00    +0.000 OA
ATOM      2  C   UNL     1      -5.407  12.597  20.632  0.00  0.00    +0.000 A 
ATOM      3  N   UNL     1      -5.028  12.129  19.402  0.00  0.00    +0.000 NA
ATOM      4  C   UNL     1      -3.771  11.940  19.150  0.00  0.00    +0.000 A 
ATOM      5  C   UNL     1      -2.716  12.361  20.162  0.00  0.00    +0.000 A 
ATOM      6  N   UNL     1      -3.079  12.623  21.382  0.00  0.00    +0.000 NA
ATOM      7  N   UNL     1      -4.433  12.689  21.630  0.00  0.00    +0.000 N 
ENDROOT
BRANCH   4   8
ATOM      8  C   UNL     1      -3.418  11.257  17.872  0.00  0.00    +0.000 A 
ATOM      9  C   UNL     1      -2.376  10.319  17.874  0.00  0.00    +0.000 A 
ATOM     10  C   UNL     1      -2.045   9.634  16.702  0.00  0.00    +0.000 A 
ATOM     11  C   UNL     1      -2.753   9.881  15.527  0.00  0.00    +0.000 A 
ATOM     12  C   UNL     1      -3.774  10.831  15.512  0.00  0.00    +0.000 A 
ATOM     13  C   UNL     1      -4.089  11.538  16.675  0.00  0.00    +0.000 A 
ENDBRANCH   4   8
BRANCH   5  14
ATOM     14  C   UNL     1      -1.277  12.513  19.802  0.00  0.00    +0.000 A 
ATOM     15  C   UNL     1      -0.863  13.423  18.820  0.00  0.00    +0.000 A 
ATOM     16  C   UNL     1       0.481  13.499  18.455  0.00  0.00    +0.000 A 
ATOM     17  C   UNL     1       1.428  12.713  19.108  0.00  0.00    +0.000 A 
ATOM     18  C   UNL     1       1.033  11.850  20.130  0.00  0.00    +0.000 A 
ATOM     19  C   UNL     1      -0.318  11.747  20.476  0.00  0.00    +0.000 A 
ENDBRANCH   5  14
BRANCH   7  20
ATOM     20  C   UNL     1      -4.845  13.088  22.972  0.00  0.00    +0.000 C 
BRANCH  20  21
ATOM     21  C   UNL     1      -5.285  14.517  23.011  0.00  0.00    +0.000 A 
ATOM     22  N   UNL     1      -6.527  14.934  23.185  0.00  0.00    +0.000 NA
ATOM     23  N   UNL     1      -6.513  16.291  23.334  0.00  0.00    +0.000 NA
ATOM     24  C   UNL     1      -5.271  16.692  23.231  0.00  0.00    +0.000 A 
ATOM     25  N   UNL     1      -4.431  15.619  22.982  0.00  0.00    +0.000 N 
BRANCH  25  26
ATOM     26  C   UNL     1      -3.032  15.635  22.691  0.00  0.00    +0.000 A 
ATOM     27  C   UNL     1      -2.581  16.029  21.420  0.00  0.00    +0.000 A 
ATOM     28  C   UNL     1      -1.226  15.940  21.087  0.00  0.00    +0.000 A 
ATOM     29  C   UNL     1      -0.312  15.466  22.032  0.00  0.00    +0.000 A 
ATOM     30  C   UNL     1      -0.742  15.114  23.320  0.00  0.00    +0.000 A 
ATOM     31  C   UNL     1      -2.102  15.198  23.648  0.00  0.00    +0.000 A 
BRANCH  29  32
ATOM     32  N   UNL     1       1.101  15.306  21.665  0.00  0.00    +0.000 N 
ATOM     33  O   UNL     1       1.743  14.405  22.222  0.00  0.00    +0.000 OA
ATOM     34  O   UNL     1       1.570  16.090  20.828  0.00  0.00    +0.000 OA
ENDBRANCH  29  32
ENDBRANCH  25  26
BRANCH  24  35
ATOM     35  S   UNL     1      -4.838  18.370  23.203  0.00  0.00    +0.000 S 
ATOM     36  H   UNL     1      -6.012  18.839  23.647  0.00  0.00    +0.000 HD
ENDBRANCH  24  35
ENDBRANCH  20  21
ENDBRANCH   7  20
TORSDOF 7
ENDMDL
