MODEL 1
REMARK VINA RESULT:      -8.7      0.000      0.000
REMARK  Name = 
REMARK  3 active torsions:
REMARK  status: ('A' for Active; 'I' for Inactive)
REMARK    1  A    between atoms: C_1  and  C_2
REMARK    2  A    between atoms: C_10  and  S_11
REMARK    3  A    between atoms: S_11  and  N_14
REMARK                            x       y       z     vdW  Elec       q    Type
REMARK                         _______ _______ _______ _____ _____    ______ ____
ROOT
ATOM      1  C   UNL     1       2.247   3.936  21.269  0.00  0.00    +0.000 C 
ATOM      2  C   UNL     1       2.401   5.178  20.435  0.00  0.00    +0.000 A 
ATOM      3  C   UNL     1       1.600   6.288  20.789  0.00  0.00    +0.000 A 
ATOM      4  C   UNL     1       1.629   7.480  20.038  0.00  0.00    +0.000 A 
ATOM      5  C   UNL     1       0.954   8.731  20.125  0.00  0.00    +0.000 A 
ATOM      6  C   UNL     1       1.388   9.506  19.066  0.00  0.00    +0.000 A 
ATOM      7  N   UNL     1       2.296   8.781  18.344  0.00  0.00    +0.000 N 
ATOM      8  C   UNL     1       2.466   7.537  18.922  0.00  0.00    +0.000 A 
ATOM      9  C   UNL     1       3.280   6.458  18.538  0.00  0.00    +0.000 A 
ATOM     10  C   UNL     1       3.260   5.282  19.324  0.00  0.00    +0.000 A 
ATOM     11  C   UNL     1       0.935  10.889  18.752  0.00  0.00    +0.000 C 
ATOM     12  C   UNL     1      -0.454  11.101  19.377  0.00  0.00    +0.000 C 
ATOM     13  C   UNL     1      -0.488  10.683  20.856  0.00  0.00    +0.000 C 
ATOM     14  C   UNL     1      -0.036   9.238  21.070  0.00  0.00    +0.000 C 
ATOM     15  O   UNL     1      -0.437   8.579  22.027  0.00  0.00    +0.000 OA
ATOM     16  H   UNL     1       2.770   9.095  17.508  0.00  0.00    +0.000 HD
ENDROOT
BRANCH  10  17
ATOM     17  S   UNL     1       4.279   3.904  18.746  0.00  0.00    +0.000 S 
ATOM     18  O   UNL     1       5.228   3.551  19.776  0.00  0.00    +0.000 OA
ATOM     19  O   UNL     1       3.368   2.895  18.227  0.00  0.00    +0.000 OA
BRANCH  17  20
ATOM     20  N   UNL     1       5.161   4.528  17.411  0.00  0.00    +0.000 NA
ATOM     21  C   UNL     1       6.488   3.912  17.176  0.00  0.00    +0.000 C 
ATOM     22  C   UNL     1       7.292   4.732  16.177  0.00  0.00    +0.000 C 
ATOM     23  C   UNL     1       6.523   4.905  14.876  0.00  0.00    +0.000 C 
ATOM     24  C   UNL     1       5.184   5.572  15.153  0.00  0.00    +0.000 C 
ATOM     25  C   UNL     1       4.377   4.788  16.177  0.00  0.00    +0.000 C 
ATOM     26  O   UNL     1       6.326   3.614  14.271  0.00  0.00    +0.000 OA
ATOM     27  C   UNL     1       6.698   3.781  12.904  0.00  0.00    +0.000 C 
ATOM     28  C   UNL     1       7.731   4.874  12.946  0.00  0.00    +0.000 C 
ATOM     29  O   UNL     1       7.267   5.743  13.977  0.00  0.00    +0.000 OA
ENDBRANCH  17  20
ENDBRANCH  10  17
TORSDOF 2
ENDMDL
MODEL 2
REMARK VINA RESULT:      -8.4      3.820      8.653
REMARK  Name = 
REMARK  3 active torsions:
REMARK  status: ('A' for Active; 'I' for Inactive)
REMARK    1  A    between atoms: C_1  and  C_2
REMARK    2  A    between atoms: C_10  and  S_11
REMARK    3  A    between atoms: S_11  and  N_14
REMARK                            x       y       z     vdW  Elec       q    Type
REMARK                         _______ _______ _______ _____ _____    ______ ____
ROOT
ATOM      1  C   UNL     1       0.356   8.984  21.995  0.00  0.00    +0.000 C 
ATOM      2  C   UNL     1       1.066   8.379  20.816  0.00  0.00    +0.000 A 
ATOM      3  C   UNL     1       1.475   7.031  20.941  0.00  0.00    +0.000 A 
ATOM      4  C   UNL     1       2.195   6.388  19.914  0.00  0.00    +0.000 A 
ATOM      5  C   UNL     1       2.745   5.085  19.746  0.00  0.00    +0.000 A 
ATOM      6  C   UNL     1       3.376   5.060  18.516  0.00  0.00    +0.000 A 
ATOM      7  N   UNL     1       3.230   6.289  17.933  0.00  0.00    +0.000 N 
ATOM      8  C   UNL     1       2.505   7.120  18.767  0.00  0.00    +0.000 A 
ATOM      9  C   UNL     1       2.114   8.459  18.601  0.00  0.00    +0.000 A 
ATOM     10  C   UNL     1       1.365   9.076  19.631  0.00  0.00    +0.000 A 
ATOM     11  C   UNL     1       4.105   3.902  17.931  0.00  0.00    +0.000 C 
ATOM     12  C   UNL     1       4.557   2.981  19.077  0.00  0.00    +0.000 C 
ATOM     13  C   UNL     1       3.406   2.655  20.041  0.00  0.00    +0.000 C 
ATOM     14  C   UNL     1       2.744   3.910  20.613  0.00  0.00    +0.000 C 
ATOM     15  O   UNL     1       2.185   3.894  21.708  0.00  0.00    +0.000 OA
ATOM     16  H   UNL     1       3.601   6.561  17.032  0.00  0.00    +0.000 HD
ENDROOT
BRANCH  10  17
ATOM     17  S   UNL     1       0.944  10.819  19.391  0.00  0.00    +0.000 S 
ATOM     18  O   UNL     1       1.246  11.550  20.600  0.00  0.00    +0.000 OA
ATOM     19  O   UNL     1       1.546  11.228  18.131  0.00  0.00    +0.000 OA
BRANCH  17  20
ATOM     20  N   UNL     1      -0.759  10.844  19.173  0.00  0.00    +0.000 NA
ATOM     21  C   UNL     1      -1.373  12.189  19.080  0.00  0.00    +0.000 C 
ATOM     22  C   UNL     1      -2.888  12.098  19.191  0.00  0.00    +0.000 C 
ATOM     23  C   UNL     1      -3.452  11.157  18.137  0.00  0.00    +0.000 C 
ATOM     24  C   UNL     1      -2.825   9.778  18.288  0.00  0.00    +0.000 C 
ATOM     25  C   UNL     1      -1.308   9.851  18.215  0.00  0.00    +0.000 C 
ATOM     26  O   UNL     1      -3.176  11.695  16.831  0.00  0.00    +0.000 OA
ATOM     27  C   UNL     1      -4.412  11.611  16.123  0.00  0.00    +0.000 C 
ATOM     28  C   UNL     1      -5.451  11.723  17.206  0.00  0.00    +0.000 C 
ATOM     29  O   UNL     1      -4.873  11.028  18.308  0.00  0.00    +0.000 OA
ENDBRANCH  17  20
ENDBRANCH  10  17
TORSDOF 2
ENDMDL
MODEL 3
REMARK VINA RESULT:      -8.4      3.267      8.860
REMARK  Name = 
REMARK  3 active torsions:
REMARK  status: ('A' for Active; 'I' for Inactive)
REMARK    1  A    between atoms: C_1  and  C_2
REMARK    2  A    between atoms: C_10  and  S_11
REMARK    3  A    between atoms: S_11  and  N_14
REMARK                            x       y       z     vdW  Elec       q    Type
REMARK                         _______ _______ _______ _____ _____    ______ ____
ROOT
ATOM      1  C   UNL     1       1.940   9.838  17.781  0.00  0.00    +0.000 C 
ATOM      2  C   UNL     1       1.940   8.710  18.775  0.00  0.00    +0.000 A 
ATOM      3  C   UNL     1       2.547   7.500  18.368  0.00  0.00    +0.000 A 
ATOM      4  C   UNL     1       2.552   6.366  19.205  0.00  0.00    +0.000 A 
ATOM      5  C   UNL     1       3.052   5.038  19.084  0.00  0.00    +0.000 A 
ATOM      6  C   UNL     1       2.718   4.366  20.245  0.00  0.00    +0.000 A 
ATOM      7  N   UNL     1       2.040   5.228  21.062  0.00  0.00    +0.000 N 
ATOM      8  C   UNL     1       1.929   6.463  20.451  0.00  0.00    +0.000 A 
ATOM      9  C   UNL     1       1.318   7.647  20.895  0.00  0.00    +0.000 A 
ATOM     10  C   UNL     1       1.352   8.783  20.053  0.00  0.00    +0.000 A 
ATOM     11  C   UNL     1       3.027   2.942  20.550  0.00  0.00    +0.000 C 
ATOM     12  C   UNL     1       3.223   2.190  19.222  0.00  0.00    +0.000 C 
ATOM     13  C   UNL     1       4.198   2.922  18.286  0.00  0.00    +0.000 C 
ATOM     14  C   UNL     1       3.776   4.366  18.009  0.00  0.00    +0.000 C 
ATOM     15  O   UNL     1       4.096   4.937  16.968  0.00  0.00    +0.000 OA
ATOM     16  H   UNL     1       1.665   5.003  21.974  0.00  0.00    +0.000 HD
ENDROOT
BRANCH  10  17
ATOM     17  S   UNL     1       0.494  10.259  20.649  0.00  0.00    +0.000 S 
ATOM     18  O   UNL     1      -0.269   9.920  21.829  0.00  0.00    +0.000 OA
ATOM     19  O   UNL     1       1.483  11.325  20.711  0.00  0.00    +0.000 OA
BRANCH  17  20
ATOM     20  N   UNL     1      -0.616  10.667  19.405  0.00  0.00    +0.000 NA
ATOM     21  C   UNL     1      -1.659   9.653  19.119  0.00  0.00    +0.000 C 
ATOM     22  C   UNL     1      -2.385   9.978  17.822  0.00  0.00    +0.000 C 
ATOM     23  C   UNL     1      -2.973  11.381  17.868  0.00  0.00    +0.000 C 
ATOM     24  C   UNL     1      -1.868  12.395  18.126  0.00  0.00    +0.000 C 
ATOM     25  C   UNL     1      -1.105  12.069  19.401  0.00  0.00    +0.000 C 
ATOM     26  O   UNL     1      -3.964  11.441  18.909  0.00  0.00    +0.000 OA
ATOM     27  C   UNL     1      -5.096  12.071  18.312  0.00  0.00    +0.000 C 
ATOM     28  C   UNL     1      -4.991  11.693  16.860  0.00  0.00    +0.000 C 
ATOM     29  O   UNL     1      -3.587  11.694  16.608  0.00  0.00    +0.000 OA
ENDBRANCH  17  20
ENDBRANCH  10  17
TORSDOF 2
ENDMDL
MODEL 4
REMARK VINA RESULT:      -8.0      3.961      8.463
REMARK  Name = 
REMARK  3 active torsions:
REMARK  status: ('A' for Active; 'I' for Inactive)
REMARK    1  A    between atoms: C_1  and  C_2
REMARK    2  A    between atoms: C_10  and  S_11
REMARK    3  A    between atoms: S_11  and  N_14
REMARK                            x       y       z     vdW  Elec       q    Type
REMARK                         _______ _______ _______ _____ _____    ______ ____
ROOT
ATOM      1  C   UNL     1      -0.144   9.067  22.775  0.00  0.00    +0.000 C 
ATOM      2  C   UNL     1       0.556   8.859  21.461  0.00  0.00    +0.000 A 
ATOM      3  C   UNL     1       1.134   7.588  21.239  0.00  0.00    +0.000 A 
ATOM      4  C   UNL     1       1.859   7.309  20.064  0.00  0.00    +0.000 A 
ATOM      5  C   UNL     1       2.551   6.168  19.566  0.00  0.00    +0.000 A 
ATOM      6  C   UNL     1       3.100   6.521  18.347  0.00  0.00    +0.000 A 
ATOM      7  N   UNL     1       2.770   7.822  18.086  0.00  0.00    +0.000 N 
ATOM      8  C   UNL     1       2.004   8.327  19.120  0.00  0.00    +0.000 A 
ATOM      9  C   UNL     1       1.443   9.603  19.299  0.00  0.00    +0.000 A 
ATOM     10  C   UNL     1       0.692   9.852  20.472  0.00  0.00    +0.000 A 
ATOM     11  C   UNL     1       3.925   5.643  17.473  0.00  0.00    +0.000 C 
ATOM     12  C   UNL     1       4.559   4.545  18.344  0.00  0.00    +0.000 C 
ATOM     13  C   UNL     1       3.520   3.849  19.237  0.00  0.00    +0.000 C 
ATOM     14  C   UNL     1       2.748   4.832  20.119  0.00  0.00    +0.000 C 
ATOM     15  O   UNL     1       2.267   4.482  21.195  0.00  0.00    +0.000 OA
ATOM     16  H   UNL     1       3.046   8.348  17.267  0.00  0.00    +0.000 HD
ENDROOT
BRANCH  10  17
ATOM     17  S   UNL     1       0.048  11.530  20.679  0.00  0.00    +0.000 S 
ATOM     18  O   UNL     1      -1.206  11.647  19.972  0.00  0.00    +0.000 OA
ATOM     19  O   UNL     1       0.106  11.831  22.102  0.00  0.00    +0.000 OA
BRANCH  17  20
ATOM     20  N   UNL     1       1.189  12.548  19.897  0.00  0.00    +0.000 NA
ATOM     21  C   UNL     1       0.802  13.027  18.549  0.00  0.00    +0.000 C 
ATOM     22  C   UNL     1       1.992  13.657  17.841  0.00  0.00    +0.000 C 
ATOM     23  C   UNL     1       2.587  14.780  18.679  0.00  0.00    +0.000 C 
ATOM     24  C   UNL     1       3.005  14.242  20.039  0.00  0.00    +0.000 C 
ATOM     25  C   UNL     1       1.839  13.574  20.751  0.00  0.00    +0.000 C 
ATOM     26  O   UNL     1       1.609  15.824  18.828  0.00  0.00    +0.000 OA
ATOM     27  C   UNL     1       2.304  17.034  18.531  0.00  0.00    +0.000 C 
ATOM     28  C   UNL     1       3.371  16.603  17.562  0.00  0.00    +0.000 C 
ATOM     29  O   UNL     1       3.753  15.310  18.026  0.00  0.00    +0.000 OA
ENDBRANCH  17  20
ENDBRANCH  10  17
TORSDOF 2
ENDMDL
MODEL 5
REMARK VINA RESULT:      -8.0      3.812      8.647
REMARK  Name = 
REMARK  3 active torsions:
REMARK  status: ('A' for Active; 'I' for Inactive)
REMARK    1  A    between atoms: C_1  and  C_2
REMARK    2  A    between atoms: C_10  and  S_11
REMARK    3  A    between atoms: S_11  and  N_14
REMARK                            x       y       z     vdW  Elec       q    Type
REMARK                         _______ _______ _______ _____ _____    ______ ____
ROOT
ATOM      1  C   UNL     1       0.504   9.067  21.884  0.00  0.00    +0.000 C 
ATOM      2  C   UNL     1       1.162   8.404  20.706  0.00  0.00    +0.000 A 
ATOM      3  C   UNL     1       1.528   7.047  20.859  0.00  0.00    +0.000 A 
ATOM      4  C   UNL     1       2.200   6.350  19.835  0.00  0.00    +0.000 A 
ATOM      5  C   UNL     1       2.700   5.025  19.691  0.00  0.00    +0.000 A 
ATOM      6  C   UNL     1       3.299   4.944  18.448  0.00  0.00    +0.000 A 
ATOM      7  N   UNL     1       3.180   6.160  17.833  0.00  0.00    +0.000 N 
ATOM      8  C   UNL     1       2.506   7.039  18.660  0.00  0.00    +0.000 A 
ATOM      9  C   UNL     1       2.156   8.386  18.465  0.00  0.00    +0.000 A 
ATOM     10  C   UNL     1       1.455   9.057  19.494  0.00  0.00    +0.000 A 
ATOM     11  C   UNL     1       3.972   3.745  17.878  0.00  0.00    +0.000 C 
ATOM     12  C   UNL     1       4.422   2.841  19.039  0.00  0.00    +0.000 C 
ATOM     13  C   UNL     1       3.285   2.583  20.040  0.00  0.00    +0.000 C 
ATOM     14  C   UNL     1       2.681   3.876  20.591  0.00  0.00    +0.000 C 
ATOM     15  O   UNL     1       2.150   3.910  21.699  0.00  0.00    +0.000 OA
ATOM     16  H   UNL     1       3.537   6.394  16.916  0.00  0.00    +0.000 HD
ENDROOT
BRANCH  10  17
ATOM     17  S   UNL     1       1.088  10.806  19.215  0.00  0.00    +0.000 S 
ATOM     18  O   UNL     1       0.930  11.467  20.489  0.00  0.00    +0.000 OA
ATOM     19  O   UNL     1       2.076  11.297  18.265  0.00  0.00    +0.000 OA
BRANCH  17  20
ATOM     20  N   UNL     1      -0.434  10.825  18.420  0.00  0.00    +0.000 NA
ATOM     21  C   UNL     1      -1.456   9.906  18.974  0.00  0.00    +0.000 C 
ATOM     22  C   UNL     1      -2.640   9.784  18.025  0.00  0.00    +0.000 C 
ATOM     23  C   UNL     1      -3.231  11.153  17.721  0.00  0.00    +0.000 C 
ATOM     24  C   UNL     1      -2.163  12.055  17.121  0.00  0.00    +0.000 C 
ATOM     25  C   UNL     1      -0.953  12.162  18.037  0.00  0.00    +0.000 C 
ATOM     26  O   UNL     1      -3.747  11.723  18.937  0.00  0.00    +0.000 OA
ATOM     27  C   UNL     1      -5.051  12.198  18.604  0.00  0.00    +0.000 C 
ATOM     28  C   UNL     1      -5.494  11.278  17.500  0.00  0.00    +0.000 C 
ATOM     29  O   UNL     1      -4.298  11.022  16.767  0.00  0.00    +0.000 OA
ENDBRANCH  17  20
ENDBRANCH  10  17
TORSDOF 2
ENDMDL
MODEL 6
REMARK VINA RESULT:      -7.9      3.370      8.648
REMARK  Name = 
REMARK  3 active torsions:
REMARK  status: ('A' for Active; 'I' for Inactive)
REMARK    1  A    between atoms: C_1  and  C_2
REMARK    2  A    between atoms: C_10  and  S_11
REMARK    3  A    between atoms: S_11  and  N_14
REMARK                            x       y       z     vdW  Elec       q    Type
REMARK                         _______ _______ _______ _____ _____    ______ ____
ROOT
ATOM      1  C   UNL     1       2.086  10.154  17.733  0.00  0.00    +0.000 C 
ATOM      2  C   UNL     1       2.022   9.035  18.734  0.00  0.00    +0.000 A 
ATOM      3  C   UNL     1       2.562   7.790  18.337  0.00  0.00    +0.000 A 
ATOM      4  C   UNL     1       2.502   6.664  19.182  0.00  0.00    +0.000 A 
ATOM      5  C   UNL     1       2.929   5.310  19.071  0.00  0.00    +0.000 A 
ATOM      6  C   UNL     1       2.556   4.665  20.236  0.00  0.00    +0.000 A 
ATOM      7  N   UNL     1       1.925   5.569  21.045  0.00  0.00    +0.000 N 
ATOM      8  C   UNL     1       1.884   6.803  20.425  0.00  0.00    +0.000 A 
ATOM      9  C   UNL     1       1.338   8.023  20.860  0.00  0.00    +0.000 A 
ATOM     10  C   UNL     1       1.437   9.149  20.010  0.00  0.00    +0.000 A 
ATOM     11  C   UNL     1       2.786   3.229  20.551  0.00  0.00    +0.000 C 
ATOM     12  C   UNL     1       2.942   2.458  19.229  0.00  0.00    +0.000 C 
ATOM     13  C   UNL     1       3.957   3.128  18.290  0.00  0.00    +0.000 C 
ATOM     14  C   UNL     1       3.616   4.591  18.003  0.00  0.00    +0.000 C 
ATOM     15  O   UNL     1       3.970   5.135  16.958  0.00  0.00    +0.000 OA
ATOM     16  H   UNL     1       1.536   5.371  21.958  0.00  0.00    +0.000 HD
ENDROOT
BRANCH  10  17
ATOM     17  S   UNL     1       0.660  10.675  20.594  0.00  0.00    +0.000 S 
ATOM     18  O   UNL     1       0.437  10.578  22.018  0.00  0.00    +0.000 OA
ATOM     19  O   UNL     1       1.444  11.778  20.059  0.00  0.00    +0.000 OA
BRANCH  17  20
ATOM     20  N   UNL     1      -0.874  10.721  19.824  0.00  0.00    +0.000 NA
ATOM     21  C   UNL     1      -1.356  12.068  19.437  0.00  0.00    +0.000 C 
ATOM     22  C   UNL     1      -2.827  12.022  19.048  0.00  0.00    +0.000 C 
ATOM     23  C   UNL     1      -3.059  11.009  17.936  0.00  0.00    +0.000 C 
ATOM     24  C   UNL     1      -2.586   9.634  18.384  0.00  0.00    +0.000 C 
ATOM     25  C   UNL     1      -1.127   9.664  18.812  0.00  0.00    +0.000 C 
ATOM     26  O   UNL     1      -2.345  11.429  16.760  0.00  0.00    +0.000 OA
ATOM     27  C   UNL     1      -3.284  11.315  15.692  0.00  0.00    +0.000 C 
ATOM     28  C   UNL     1      -4.613  11.542  16.359  0.00  0.00    +0.000 C 
ATOM     29  O   UNL     1      -4.463  10.928  17.637  0.00  0.00    +0.000 OA
ENDBRANCH  17  20
ENDBRANCH  10  17
TORSDOF 2
ENDMDL
MODEL 7
REMARK VINA RESULT:      -7.9      3.986     10.021
REMARK  Name = 
REMARK  3 active torsions:
REMARK  status: ('A' for Active; 'I' for Inactive)
REMARK    1  A    between atoms: C_1  and  C_2
REMARK    2  A    between atoms: C_10  and  S_11
REMARK    3  A    between atoms: S_11  and  N_14
REMARK                            x       y       z     vdW  Elec       q    Type
REMARK                         _______ _______ _______ _____ _____    ______ ____
ROOT
ATOM      1  C   UNL     1       0.010   9.823  22.677  0.00  0.00    +0.000 C 
ATOM      2  C   UNL     1       0.639   9.494  21.351  0.00  0.00    +0.000 A 
ATOM      3  C   UNL     1       1.112   8.173  21.179  0.00  0.00    +0.000 A 
ATOM      4  C   UNL     1       1.766   7.778  19.995  0.00  0.00    +0.000 A 
ATOM      5  C   UNL     1       2.352   6.564  19.535  0.00  0.00    +0.000 A 
ATOM      6  C   UNL     1       2.874   6.811  18.279  0.00  0.00    +0.000 A 
ATOM      7  N   UNL     1       2.629   8.117  17.959  0.00  0.00    +0.000 N 
ATOM      8  C   UNL     1       1.945   8.732  18.992  0.00  0.00    +0.000 A 
ATOM      9  C   UNL     1       1.487  10.054  19.120  0.00  0.00    +0.000 A 
ATOM     10  C   UNL     1       0.805  10.420  20.304  0.00  0.00    +0.000 A 
ATOM     11  C   UNL     1       3.596   5.828  17.425  0.00  0.00    +0.000 C 
ATOM     12  C   UNL     1       4.183   4.733  18.332  0.00  0.00    +0.000 C 
ATOM     13  C   UNL     1       3.134   4.164  19.301  0.00  0.00    +0.000 C 
ATOM     14  C   UNL     1       2.474   5.248  20.154  0.00  0.00    +0.000 C 
ATOM     15  O   UNL     1       2.013   4.993  21.265  0.00  0.00    +0.000 OA
ATOM     16  H   UNL     1       2.908   8.576  17.102  0.00  0.00    +0.000 HD
ENDROOT
BRANCH  10  17
ATOM     17  S   UNL     1       0.295  12.150  20.442  0.00  0.00    +0.000 S 
ATOM     18  O   UNL     1       0.961  12.753  21.573  0.00  0.00    +0.000 OA
ATOM     19  O   UNL     1       0.442  12.739  19.118  0.00  0.00    +0.000 OA
BRANCH  17  20
ATOM     20  N   UNL     1      -1.386  12.096  20.789  0.00  0.00    +0.000 NA
ATOM     21  C   UNL     1      -1.799  12.745  22.056  0.00  0.00    +0.000 C 
ATOM     22  C   UNL     1      -3.234  12.379  22.405  0.00  0.00    +0.000 C 
ATOM     23  C   UNL     1      -4.176  12.738  21.265  0.00  0.00    +0.000 C 
ATOM     24  C   UNL     1      -3.741  12.025  19.993  0.00  0.00    +0.000 C 
ATOM     25  C   UNL     1      -2.297  12.348  19.644  0.00  0.00    +0.000 C 
ATOM     26  O   UNL     1      -4.160  14.164  21.073  0.00  0.00    +0.000 OA
ATOM     27  C   UNL     1      -5.532  14.546  20.992  0.00  0.00    +0.000 C 
ATOM     28  C   UNL     1      -6.239  13.517  21.831  0.00  0.00    +0.000 C 
ATOM     29  O   UNL     1      -5.512  12.316  21.585  0.00  0.00    +0.000 OA
ENDBRANCH  17  20
ENDBRANCH  10  17
TORSDOF 2
ENDMDL
MODEL 8
REMARK VINA RESULT:      -7.9      4.609     11.000
REMARK  Name = 
REMARK  3 active torsions:
REMARK  status: ('A' for Active; 'I' for Inactive)
REMARK    1  A    between atoms: C_1  and  C_2
REMARK    2  A    between atoms: C_10  and  S_11
REMARK    3  A    between atoms: S_11  and  N_14
REMARK                            x       y       z     vdW  Elec       q    Type
REMARK                         _______ _______ _______ _____ _____    ______ ____
ROOT
ATOM      1  C   UNL     1      -0.757  10.333  23.259  0.00  0.00    +0.000 C 
ATOM      2  C   UNL     1      -0.144  10.330  21.886  0.00  0.00    +0.000 A 
ATOM      3  C   UNL     1       0.439   9.117  21.450  0.00  0.00    +0.000 A 
ATOM      4  C   UNL     1       1.088   9.025  20.203  0.00  0.00    +0.000 A 
ATOM      5  C   UNL     1       1.764   7.984  19.504  0.00  0.00    +0.000 A 
ATOM      6  C   UNL     1       2.224   8.519  18.315  0.00  0.00    +0.000 A 
ATOM      7  N   UNL     1       1.855   9.835  18.263  0.00  0.00    +0.000 N 
ATOM      8  C   UNL     1       1.152  10.169  19.406  0.00  0.00    +0.000 A 
ATOM      9  C   UNL     1       0.583  11.392  19.800  0.00  0.00    +0.000 A 
ATOM     10  C   UNL     1      -0.092  11.455  21.042  0.00  0.00    +0.000 A 
ATOM     11  C   UNL     1       3.003   7.794  17.274  0.00  0.00    +0.000 C 
ATOM     12  C   UNL     1       3.712   6.601  17.938  0.00  0.00    +0.000 C 
ATOM     13  C   UNL     1       2.747   5.760  18.788  0.00  0.00    +0.000 C 
ATOM     14  C   UNL     1       2.020   6.589  19.848  0.00  0.00    +0.000 C 
ATOM     15  O   UNL     1       1.619   6.080  20.892  0.00  0.00    +0.000 OA
ATOM     16  H   UNL     1       2.066  10.477  17.511  0.00  0.00    +0.000 HD
ENDROOT
BRANCH  10  17
ATOM     17  S   UNL     1      -0.748  13.069  21.525  0.00  0.00    +0.000 S 
ATOM     18  O   UNL     1       0.013  13.574  22.645  0.00  0.00    +0.000 OA
ATOM     19  O   UNL     1      -0.854  13.862  20.309  0.00  0.00    +0.000 OA
BRANCH  17  20
ATOM     20  N   UNL     1      -2.345  12.759  22.072  0.00  0.00    +0.000 NA
ATOM     21  C   UNL     1      -2.625  13.132  23.479  0.00  0.00    +0.000 C 
ATOM     22  C   UNL     1      -3.952  12.545  23.937  0.00  0.00    +0.000 C 
ATOM     23  C   UNL     1      -5.082  12.977  23.014  0.00  0.00    +0.000 C 
ATOM     24  C   UNL     1      -4.776  12.545  21.587  0.00  0.00    +0.000 C 
ATOM     25  C   UNL     1      -3.436  13.091  21.120  0.00  0.00    +0.000 C 
ATOM     26  O   UNL     1      -5.228  14.407  23.087  0.00  0.00    +0.000 OA
ATOM     27  C   UNL     1      -6.626  14.632  23.255  0.00  0.00    +0.000 C 
ATOM     28  C   UNL     1      -7.102  13.400  23.976  0.00  0.00    +0.000 C 
ATOM     29  O   UNL     1      -6.310  12.352  23.421  0.00  0.00    +0.000 OA
ENDBRANCH  17  20
ENDBRANCH  10  17
TORSDOF 2
ENDMDL
MODEL 9
REMARK VINA RESULT:      -7.7      4.265      9.298
REMARK  Name = 
REMARK  3 active torsions:
REMARK  status: ('A' for Active; 'I' for Inactive)
REMARK    1  A    between atoms: C_1  and  C_2
REMARK    2  A    between atoms: C_10  and  S_11
REMARK    3  A    between atoms: S_11  and  N_14
REMARK                            x       y       z     vdW  Elec       q    Type
REMARK                         _______ _______ _______ _____ _____    ______ ____
ROOT
ATOM      1  C   UNL     1      -0.423   9.284  23.155  0.00  0.00    +0.000 C 
ATOM      2  C   UNL     1       0.196   9.336  21.787  0.00  0.00    +0.000 A 
ATOM      3  C   UNL     1       0.884   8.179  21.352  0.00  0.00    +0.000 A 
ATOM      4  C   UNL     1       1.545   8.145  20.109  0.00  0.00    +0.000 A 
ATOM      5  C   UNL     1       2.313   7.168  19.413  0.00  0.00    +0.000 A 
ATOM      6  C   UNL     1       2.731   7.743  18.227  0.00  0.00    +0.000 A 
ATOM      7  N   UNL     1       2.249   9.021  18.174  0.00  0.00    +0.000 N 
ATOM      8  C   UNL     1       1.514   9.292  19.313  0.00  0.00    +0.000 A 
ATOM      9  C   UNL     1       0.839  10.460  19.705  0.00  0.00    +0.000 A 
ATOM     10  C   UNL     1       0.155  10.462  20.943  0.00  0.00    +0.000 A 
ATOM     11  C   UNL     1       3.576   7.089  17.190  0.00  0.00    +0.000 C 
ATOM     12  C   UNL     1       4.382   5.961  17.856  0.00  0.00    +0.000 C 
ATOM     13  C   UNL     1       3.489   5.038  18.701  0.00  0.00    +0.000 C 
ATOM     14  C   UNL     1       2.687   5.800  19.757  0.00  0.00    +0.000 C 
ATOM     15  O   UNL     1       2.326   5.256  20.799  0.00  0.00    +0.000 OA
ATOM     16  H   UNL     1       2.409   9.680  17.424  0.00  0.00    +0.000 HD
ENDROOT
BRANCH  10  17
ATOM     17  S   UNL     1      -0.641  12.013  21.425  0.00  0.00    +0.000 S 
ATOM     18  O   UNL     1      -2.040  11.960  21.066  0.00  0.00    +0.000 OA
ATOM     19  O   UNL     1      -0.260  12.272  22.806  0.00  0.00    +0.000 OA
BRANCH  17  20
ATOM     20  N   UNL     1       0.105  13.220  20.457  0.00  0.00    +0.000 NA
ATOM     21  C   UNL     1      -0.816  14.049  19.644  0.00  0.00    +0.000 C 
ATOM     22  C   UNL     1      -0.043  14.864  18.618  0.00  0.00    +0.000 C 
ATOM     23  C   UNL     1       1.020  15.717  19.296  0.00  0.00    +0.000 C 
ATOM     24  C   UNL     1       1.966  14.828  20.089  0.00  0.00    +0.000 C 
ATOM     25  C   UNL     1       1.210  13.977  21.097  0.00  0.00    +0.000 C 
ATOM     26  O   UNL     1       0.377  16.668  20.162  0.00  0.00    +0.000 OA
ATOM     27  C   UNL     1       0.993  17.921  19.866  0.00  0.00    +0.000 C 
ATOM     28  C   UNL     1       1.398  17.786  18.424  0.00  0.00    +0.000 C 
ATOM     29  O   UNL     1       1.786  16.420  18.303  0.00  0.00    +0.000 OA
ENDBRANCH  17  20
ENDBRANCH  10  17
TORSDOF 2
ENDMDL
