MODEL 1
REMARK VINA RESULT:      -8.7      0.000      0.000
REMARK  Name = 
REMARK  5 active torsions:
REMARK  status: ('A' for Active; 'I' for Inactive)
REMARK    1  A    between atoms: C_1  and  O_2
REMARK    2  A    between atoms: O_2  and  C_3
REMARK    3  A    between atoms: C_6  and  N_7
REMARK    4  A    between atoms: C_8  and  C_10
REMARK    5  A    between atoms: C_12  and  C_13
REMARK                            x       y       z     vdW  Elec       q    Type
REMARK                         _______ _______ _______ _____ _____    ______ ____
ROOT
ATOM      1  C   UNL     1       2.196   6.302  18.246  0.00  0.00    +0.000 A 
ATOM      2  C   UNL     1       3.033   6.634  19.257  0.00  0.00    +0.000 A 
ATOM      3  C   UNL     1       4.236   6.042  19.198  0.00  0.00    +0.000 A 
ATOM      4  N   UNL     1       4.176   4.895  19.808  0.00  0.00    +0.000 NA
ATOM      5  C   UNL     1       3.435   4.090  19.096  0.00  0.00    +0.000 A 
ATOM      6  C   UNL     1       4.063   2.857  18.877  0.00  0.00    +0.000 A 
ATOM      7  C   UNL     1       3.556   1.885  18.049  0.00  0.00    +0.000 A 
ATOM      8  C   UNL     1       2.230   2.077  17.739  0.00  0.00    +0.000 A 
ATOM      9  C   UNL     1       1.616   3.394  17.922  0.00  0.00    +0.000 A 
ATOM     10  C   UNL     1       2.306   4.654  18.388  0.00  0.00    +0.000 A 
ENDROOT
BRANCH   3  11
ATOM     11  C   UNL     1       5.134   5.919  18.003  0.00  0.00    +0.000 A 
ATOM     12  C   UNL     1       6.410   5.540  18.389  0.00  0.00    +0.000 A 
ATOM     13  C   UNL     1       7.131   4.749  17.533  0.00  0.00    +0.000 A 
ATOM     14  N   UNL     1       6.715   4.353  16.310  0.00  0.00    +0.000 NA
ATOM     15  C   UNL     1       5.519   4.807  15.897  0.00  0.00    +0.000 A 
ATOM     16  C   UNL     1       4.723   5.639  16.669  0.00  0.00    +0.000 A 
ENDBRANCH   3  11
BRANCH   1  18
ATOM     17  N   UNL     1       1.373   9.100  19.058  0.00  0.00    +0.000 N 
ATOM     18  C   UNL     1       2.127   8.079  18.125  0.00  0.00    +0.000 C 
ATOM     19  O   UNL     1       2.722   8.548  17.173  0.00  0.00    +0.000 OA
ATOM     20  H   UNL     1       0.927   8.763  19.911  0.00  0.00    +0.000 HD
BRANCH  17  24
ATOM     21  C   UNL     1       0.828  13.701  18.725  0.00  0.00    +0.000 A 
ATOM     22  C   UNL     1       1.984  13.040  18.268  0.00  0.00    +0.000 A 
ATOM     23  C   UNL     1       2.158  11.577  18.348  0.00  0.00    +0.000 A 
ATOM     24  C   UNL     1       1.236  10.677  18.906  0.00  0.00    +0.000 A 
ATOM     25  C   UNL     1       0.071  11.393  19.380  0.00  0.00    +0.000 A 
ATOM     26  C   UNL     1      -0.111  12.858  19.292  0.00  0.00    +0.000 A 
BRANCH  21  28
ATOM     27  C   UNL     1       1.970  15.894  18.724  0.00  0.00    +0.000 C 
ATOM     28  O   UNL     1       0.802  15.072  18.580  0.00  0.00    +0.000 OA
ENDBRANCH  21  28
ENDBRANCH  17  24
ENDBRANCH   1  18
TORSDOF 4
ENDMDL
MODEL 2
REMARK VINA RESULT:      -8.6      0.455      1.007
REMARK  Name = 
REMARK  5 active torsions:
REMARK  status: ('A' for Active; 'I' for Inactive)
REMARK    1  A    between atoms: C_1  and  O_2
REMARK    2  A    between atoms: O_2  and  C_3
REMARK    3  A    between atoms: C_6  and  N_7
REMARK    4  A    between atoms: C_8  and  C_10
REMARK    5  A    between atoms: C_12  and  C_13
REMARK                            x       y       z     vdW  Elec       q    Type
REMARK                         _______ _______ _______ _____ _____    ______ ____
ROOT
ATOM      1  C   UNL     1       2.168   6.296  18.259  0.00  0.00    +0.000 A 
ATOM      2  C   UNL     1       2.997   6.628  19.278  0.00  0.00    +0.000 A 
ATOM      3  C   UNL     1       4.205   6.047  19.222  0.00  0.00    +0.000 A 
ATOM      4  N   UNL     1       4.152   4.894  19.821  0.00  0.00    +0.000 NA
ATOM      5  C   UNL     1       3.422   4.089  19.098  0.00  0.00    +0.000 A 
ATOM      6  C   UNL     1       4.062   2.863  18.873  0.00  0.00    +0.000 A 
ATOM      7  C   UNL     1       3.569   1.893  18.035  0.00  0.00    +0.000 A 
ATOM      8  C   UNL     1       2.243   2.077  17.718  0.00  0.00    +0.000 A 
ATOM      9  C   UNL     1       1.616   3.387  17.908  0.00  0.00    +0.000 A 
ATOM     10  C   UNL     1       2.293   4.648  18.388  0.00  0.00    +0.000 A 
ENDROOT
BRANCH   3  11
ATOM     11  C   UNL     1       5.112   5.941  18.031  0.00  0.00    +0.000 A 
ATOM     12  C   UNL     1       6.383   5.552  18.420  0.00  0.00    +0.000 A 
ATOM     13  C   UNL     1       7.109   4.774  17.556  0.00  0.00    +0.000 A 
ATOM     14  N   UNL     1       6.701   4.400  16.323  0.00  0.00    +0.000 NA
ATOM     15  C   UNL     1       5.508   4.863  15.909  0.00  0.00    +0.000 A 
ATOM     16  C   UNL     1       4.709   5.684  16.689  0.00  0.00    +0.000 A 
ENDBRANCH   3  11
BRANCH   1  18
ATOM     17  N   UNL     1       1.342   9.083  19.105  0.00  0.00    +0.000 N 
ATOM     18  C   UNL     1       2.086   8.074  18.152  0.00  0.00    +0.000 C 
ATOM     19  O   UNL     1       2.658   8.554  17.192  0.00  0.00    +0.000 OA
ATOM     20  H   UNL     1       0.915   8.737  19.965  0.00  0.00    +0.000 HD
BRANCH  17  24
ATOM     21  C   UNL     1       1.051  13.691  18.600  0.00  0.00    +0.000 A 
ATOM     22  C   UNL     1       0.005  12.921  19.143  0.00  0.00    +0.000 A 
ATOM     23  C   UNL     1       0.095  11.460  19.328  0.00  0.00    +0.000 A 
ATOM     24  C   UNL     1       1.191  10.660  18.968  0.00  0.00    +0.000 A 
ATOM     25  C   UNL     1       2.238  11.482  18.400  0.00  0.00    +0.000 A 
ATOM     26  C   UNL     1       2.154  12.948  18.221  0.00  0.00    +0.000 A 
BRANCH  21  28
ATOM     27  C   UNL     1      -0.314  15.699  19.070  0.00  0.00    +0.000 C 
ATOM     28  O   UNL     1       0.828  15.048  18.492  0.00  0.00    +0.000 OA
ENDBRANCH  21  28
ENDBRANCH  17  24
ENDBRANCH   1  18
TORSDOF 4
ENDMDL
MODEL 3
REMARK VINA RESULT:      -8.4      2.402      4.167
REMARK  Name = 
REMARK  5 active torsions:
REMARK  status: ('A' for Active; 'I' for Inactive)
REMARK    1  A    between atoms: C_1  and  O_2
REMARK    2  A    between atoms: O_2  and  C_3
REMARK    3  A    between atoms: C_6  and  N_7
REMARK    4  A    between atoms: C_8  and  C_10
REMARK    5  A    between atoms: C_12  and  C_13
REMARK                            x       y       z     vdW  Elec       q    Type
REMARK                         _______ _______ _______ _____ _____    ______ ____
ROOT
ATOM      1  C   UNL     1       3.546   7.544  18.026  0.00  0.00    +0.000 A 
ATOM      2  C   UNL     1       2.614   6.703  17.518  0.00  0.00    +0.000 A 
ATOM      3  C   UNL     1       2.772   5.418  17.872  0.00  0.00    +0.000 A 
ATOM      4  N   UNL     1       3.563   4.836  17.020  0.00  0.00    +0.000 NA
ATOM      5  C   UNL     1       4.765   5.320  17.179  0.00  0.00    +0.000 A 
ATOM      6  C   UNL     1       5.724   4.306  17.303  0.00  0.00    +0.000 A 
ATOM      7  C   UNL     1       7.042   4.543  17.611  0.00  0.00    +0.000 A 
ATOM      8  C   UNL     1       7.408   5.858  17.441  0.00  0.00    +0.000 A 
ATOM      9  C   UNL     1       6.385   6.903  17.376  0.00  0.00    +0.000 A 
ATOM     10  C   UNL     1       4.895   6.717  17.530  0.00  0.00    +0.000 A 
ENDROOT
BRANCH   3  11
ATOM     11  C   UNL     1       3.044   4.879  19.245  0.00  0.00    +0.000 A 
ATOM     12  C   UNL     1       1.991   5.166  20.099  0.00  0.00    +0.000 A 
ATOM     13  C   UNL     1       1.703   4.262  21.089  0.00  0.00    +0.000 A 
ATOM     14  N   UNL     1       2.405   3.134  21.335  0.00  0.00    +0.000 NA
ATOM     15  C   UNL     1       3.486   2.910  20.569  0.00  0.00    +0.000 A 
ATOM     16  C   UNL     1       3.887   3.775  19.562  0.00  0.00    +0.000 A 
ENDBRANCH   3  11
BRANCH   1  18
ATOM     17  N   UNL     1       1.096   9.294  17.704  0.00  0.00    +0.000 N 
ATOM     18  C   UNL     1       2.063   8.382  18.551  0.00  0.00    +0.000 C 
ATOM     19  O   UNL     1       1.792   8.249  19.729  0.00  0.00    +0.000 OA
ATOM     20  H   UNL     1       1.237   9.372  16.697  0.00  0.00    +0.000 HD
BRANCH  17  24
ATOM     21  C   UNL     1      -2.728  11.593  18.994  0.00  0.00    +0.000 A 
ATOM     22  C   UNL     1      -1.514  11.687  19.699  0.00  0.00    +0.000 A 
ATOM     23  C   UNL     1      -0.287  10.979  19.286  0.00  0.00    +0.000 A 
ATOM     24  C   UNL     1      -0.178  10.114  18.185  0.00  0.00    +0.000 A 
ATOM     25  C   UNL     1      -1.448  10.029  17.495  0.00  0.00    +0.000 A 
ATOM     26  C   UNL     1      -2.677  10.746  17.902  0.00  0.00    +0.000 A 
BRANCH  21  28
ATOM     27  C   UNL     1      -5.148  12.092  19.081  0.00  0.00    +0.000 C 
ATOM     28  O   UNL     1      -3.791  12.317  19.493  0.00  0.00    +0.000 OA
ENDBRANCH  21  28
ENDBRANCH  17  24
ENDBRANCH   1  18
TORSDOF 4
ENDMDL
MODEL 4
REMARK VINA RESULT:      -8.3      2.733      8.624
REMARK  Name = 
REMARK  5 active torsions:
REMARK  status: ('A' for Active; 'I' for Inactive)
REMARK    1  A    between atoms: C_1  and  O_2
REMARK    2  A    between atoms: O_2  and  C_3
REMARK    3  A    between atoms: C_6  and  N_7
REMARK    4  A    between atoms: C_8  and  C_10
REMARK    5  A    between atoms: C_12  and  C_13
REMARK                            x       y       z     vdW  Elec       q    Type
REMARK                         _______ _______ _______ _____ _____    ______ ____
ROOT
ATOM      1  C   UNL     1      -0.081  10.054  17.991  0.00  0.00    +0.000 A 
ATOM      2  C   UNL     1       0.789  10.923  18.558  0.00  0.00    +0.000 A 
ATOM      3  C   UNL     1       0.411  11.383  19.761  0.00  0.00    +0.000 A 
ATOM      4  N   UNL     1      -0.327  12.441  19.598  0.00  0.00    +0.000 NA
ATOM      5  C   UNL     1      -1.463  12.073  19.070  0.00  0.00    +0.000 A 
ATOM      6  C   UNL     1      -2.558  12.593  19.772  0.00  0.00    +0.000 A 
ATOM      7  C   UNL     1      -3.861  12.250  19.504  0.00  0.00    +0.000 A 
ATOM      8  C   UNL     1      -4.019  11.639  18.282  0.00  0.00    +0.000 A 
ATOM      9  C   UNL     1      -2.864  11.052  17.599  0.00  0.00    +0.000 A 
ATOM     10  C   UNL     1      -1.448  10.983  18.120  0.00  0.00    +0.000 A 
ENDROOT
BRANCH   3  11
ATOM     11  C   UNL     1      -0.119  10.586  20.916  0.00  0.00    +0.000 A 
ATOM     12  C   UNL     1       0.766   9.576  21.258  0.00  0.00    +0.000 A 
ATOM     13  C   UNL     1       0.850   9.215  22.578  0.00  0.00    +0.000 A 
ATOM     14  N   UNL     1       0.092   9.731  23.570  0.00  0.00    +0.000 NA
ATOM     15  C   UNL     1      -0.836  10.638  23.220  0.00  0.00    +0.000 A 
ATOM     16  C   UNL     1      -1.028  11.050  21.910  0.00  0.00    +0.000 A 
ENDBRANCH   3  11
BRANCH   1  18
ATOM     17  N   UNL     1       1.680   7.630  18.423  0.00  0.00    +0.000 N 
ATOM     18  C   UNL     1       1.415   9.090  17.895  0.00  0.00    +0.000 C 
ATOM     19  O   UNL     1       2.356   9.661  17.378  0.00  0.00    +0.000 OA
ATOM     20  H   UNL     1       0.903   7.083  18.792  0.00  0.00    +0.000 HD
BRANCH  17  24
ATOM     21  C   UNL     1       5.575   5.103  18.551  0.00  0.00    +0.000 A 
ATOM     22  C   UNL     1       5.258   5.951  17.474  0.00  0.00    +0.000 A 
ATOM     23  C   UNL     1       4.034   6.775  17.432  0.00  0.00    +0.000 A 
ATOM     24  C   UNL     1       3.035   6.798  18.418  0.00  0.00    +0.000 A 
ATOM     25  C   UNL     1       3.387   5.903  19.500  0.00  0.00    +0.000 A 
ATOM     26  C   UNL     1       4.618   5.083  19.548  0.00  0.00    +0.000 A 
BRANCH  21  28
ATOM     27  C   UNL     1       7.680   4.568  17.370  0.00  0.00    +0.000 C 
ATOM     28  O   UNL     1       6.757   4.397  18.455  0.00  0.00    +0.000 OA
ENDBRANCH  21  28
ENDBRANCH  17  24
ENDBRANCH   1  18
TORSDOF 4
ENDMDL
MODEL 5
REMARK VINA RESULT:      -8.0      2.803      4.238
REMARK  Name = 
REMARK  5 active torsions:
REMARK  status: ('A' for Active; 'I' for Inactive)
REMARK    1  A    between atoms: C_1  and  O_2
REMARK    2  A    between atoms: O_2  and  C_3
REMARK    3  A    between atoms: C_6  and  N_7
REMARK    4  A    between atoms: C_8  and  C_10
REMARK    5  A    between atoms: C_12  and  C_13
REMARK                            x       y       z     vdW  Elec       q    Type
REMARK                         _______ _______ _______ _____ _____    ______ ____
ROOT
ATOM      1  C   UNL     1       3.346   7.082  17.938  0.00  0.00    +0.000 A 
ATOM      2  C   UNL     1       2.201   6.369  17.812  0.00  0.00    +0.000 A 
ATOM      3  C   UNL     1       2.301   5.087  18.196  0.00  0.00    +0.000 A 
ATOM      4  N   UNL     1       2.698   4.369  17.187  0.00  0.00    +0.000 NA
ATOM      5  C   UNL     1       3.939   4.679  16.925  0.00  0.00    +0.000 A 
ATOM      6  C   UNL     1       4.750   3.542  16.821  0.00  0.00    +0.000 A 
ATOM      7  C   UNL     1       6.116   3.596  16.683  0.00  0.00    +0.000 A 
ATOM      8  C   UNL     1       6.572   4.839  16.307  0.00  0.00    +0.000 A 
ATOM      9  C   UNL     1       5.723   6.018  16.485  0.00  0.00    +0.000 A 
ATOM     10  C   UNL     1       4.349   6.054  17.110  0.00  0.00    +0.000 A 
ENDROOT
BRANCH   3  11
ATOM     11  C   UNL     1       2.927   4.558  19.453  0.00  0.00    +0.000 A 
ATOM     12  C   UNL     1       2.123   4.827  20.548  0.00  0.00    +0.000 A 
ATOM     13  C   UNL     1       2.117   3.923  21.578  0.00  0.00    +0.000 A 
ATOM     14  N   UNL     1       2.881   2.810  21.634  0.00  0.00    +0.000 NA
ATOM     15  C   UNL     1       3.734   2.604  20.616  0.00  0.00    +0.000 A 
ATOM     16  C   UNL     1       3.845   3.472  19.542  0.00  0.00    +0.000 A 
ENDBRANCH   3  11
BRANCH   1  18
ATOM     17  N   UNL     1       1.919   8.166  20.378  0.00  0.00    +0.000 N 
ATOM     18  C   UNL     1       2.227   8.142  18.833  0.00  0.00    +0.000 C 
ATOM     19  O   UNL     1       1.604   8.925  18.142  0.00  0.00    +0.000 OA
ATOM     20  H   UNL     1       2.472   7.585  21.008  0.00  0.00    +0.000 HD
BRANCH  17  24
ATOM     21  C   UNL     1      -1.097  10.689  22.850  0.00  0.00    +0.000 A 
ATOM     22  C   UNL     1      -0.955  10.830  21.457  0.00  0.00    +0.000 A 
ATOM     23  C   UNL     1      -0.016  10.019  20.658  0.00  0.00    +0.000 A 
ATOM     24  C   UNL     1       0.861   9.049  21.171  0.00  0.00    +0.000 A 
ATOM     25  C   UNL     1       0.698   8.944  22.606  0.00  0.00    +0.000 A 
ATOM     26  C   UNL     1      -0.249   9.749  23.407  0.00  0.00    +0.000 A 
BRANCH  21  28
ATOM     27  C   UNL     1      -2.718  12.555  22.768  0.00  0.00    +0.000 C 
ATOM     28  O   UNL     1      -2.019  11.511  23.464  0.00  0.00    +0.000 OA
ENDBRANCH  21  28
ENDBRANCH  17  24
ENDBRANCH   1  18
TORSDOF 4
ENDMDL
MODEL 6
REMARK VINA RESULT:      -7.9      2.672      4.220
REMARK  Name = 
REMARK  5 active torsions:
REMARK  status: ('A' for Active; 'I' for Inactive)
REMARK    1  A    between atoms: C_1  and  O_2
REMARK    2  A    between atoms: O_2  and  C_3
REMARK    3  A    between atoms: C_6  and  N_7
REMARK    4  A    between atoms: C_8  and  C_10
REMARK    5  A    between atoms: C_12  and  C_13
REMARK                            x       y       z     vdW  Elec       q    Type
REMARK                         _______ _______ _______ _____ _____    ______ ____
ROOT
ATOM      1  C   UNL     1       3.087   7.200  18.588  0.00  0.00    +0.000 A 
ATOM      2  C   UNL     1       1.976   6.445  18.412  0.00  0.00    +0.000 A 
ATOM      3  C   UNL     1       2.171   5.126  18.571  0.00  0.00    +0.000 A 
ATOM      4  N   UNL     1       2.536   4.610  17.435  0.00  0.00    +0.000 NA
ATOM      5  C   UNL     1       3.737   5.037  17.157  0.00  0.00    +0.000 A 
ATOM      6  C   UNL     1       4.600   3.987  16.817  0.00  0.00    +0.000 A 
ATOM      7  C   UNL     1       5.948   4.150  16.610  0.00  0.00    +0.000 A 
ATOM      8  C   UNL     1       6.310   5.464  16.421  0.00  0.00    +0.000 A 
ATOM      9  C   UNL     1       5.413   6.541  16.842  0.00  0.00    +0.000 A 
ATOM     10  C   UNL     1       4.085   6.387  17.544  0.00  0.00    +0.000 A 
ENDROOT
BRANCH   3  11
ATOM     11  C   UNL     1       2.908   4.441  19.683  0.00  0.00    +0.000 A 
ATOM     12  C   UNL     1       2.186   4.513  20.864  0.00  0.00    +0.000 A 
ATOM     13  C   UNL     1       2.286   3.466  21.742  0.00  0.00    +0.000 A 
ATOM     14  N   UNL     1       3.082   2.387  21.573  0.00  0.00    +0.000 NA
ATOM     15  C   UNL     1       3.857   2.369  20.474  0.00  0.00    +0.000 A 
ATOM     16  C   UNL     1       3.859   3.391  19.538  0.00  0.00    +0.000 A 
ENDBRANCH   3  11
BRANCH   1  18
ATOM     17  N   UNL     1       1.077   9.293  19.452  0.00  0.00    +0.000 N 
ATOM     18  C   UNL     1       1.976   8.026  19.712  0.00  0.00    +0.000 C 
ATOM     19  O   UNL     1       1.943   7.557  20.833  0.00  0.00    +0.000 OA
ATOM     20  H   UNL     1       1.011   9.674  18.508  0.00  0.00    +0.000 HD
BRANCH  17  24
ATOM     21  C   UNL     1      -1.548  11.521  22.570  0.00  0.00    +0.000 A 
ATOM     22  C   UNL     1      -1.468  11.920  21.223  0.00  0.00    +0.000 A 
ATOM     23  C   UNL     1      -0.655  11.207  20.219  0.00  0.00    +0.000 A 
ATOM     24  C   UNL     1       0.152  10.086  20.472  0.00  0.00    +0.000 A 
ATOM     25  C   UNL     1       0.058   9.715  21.869  0.00  0.00    +0.000 A 
ATOM     26  C   UNL     1      -0.763  10.423  22.875  0.00  0.00    +0.000 A 
BRANCH  21  28
ATOM     27  C   UNL     1      -3.707  12.620  23.062  0.00  0.00    +0.000 C 
ATOM     28  O   UNL     1      -2.353  12.279  23.394  0.00  0.00    +0.000 OA
ENDBRANCH  21  28
ENDBRANCH  17  24
ENDBRANCH   1  18
TORSDOF 4
ENDMDL
MODEL 7
REMARK VINA RESULT:      -7.9      2.494      4.016
REMARK  Name = 
REMARK  5 active torsions:
REMARK  status: ('A' for Active; 'I' for Inactive)
REMARK    1  A    between atoms: C_1  and  O_2
REMARK    2  A    between atoms: O_2  and  C_3
REMARK    3  A    between atoms: C_6  and  N_7
REMARK    4  A    between atoms: C_8  and  C_10
REMARK    5  A    between atoms: C_12  and  C_13
REMARK                            x       y       z     vdW  Elec       q    Type
REMARK                         _______ _______ _______ _____ _____    ______ ____
ROOT
ATOM      1  C   UNL     1       3.291   7.241  18.255  0.00  0.00    +0.000 A 
ATOM      2  C   UNL     1       2.193   6.482  18.028  0.00  0.00    +0.000 A 
ATOM      3  C   UNL     1       2.358   5.175  18.288  0.00  0.00    +0.000 A 
ATOM      4  N   UNL     1       2.818   4.585  17.225  0.00  0.00    +0.000 NA
ATOM      5  C   UNL     1       4.045   4.987  17.030  0.00  0.00    +0.000 A 
ATOM      6  C   UNL     1       4.923   3.913  16.838  0.00  0.00    +0.000 A 
ATOM      7  C   UNL     1       6.286   4.056  16.744  0.00  0.00    +0.000 A 
ATOM      8  C   UNL     1       6.678   5.353  16.505  0.00  0.00    +0.000 A 
ATOM      9  C   UNL     1       5.758   6.460  16.773  0.00  0.00    +0.000 A 
ATOM     10  C   UNL     1       4.370   6.357  17.360  0.00  0.00    +0.000 A 
ENDROOT
BRANCH   3  11
ATOM     11  C   UNL     1       2.985   4.560  19.504  0.00  0.00    +0.000 A 
ATOM     12  C   UNL     1       2.164   4.718  20.609  0.00  0.00    +0.000 A 
ATOM     13  C   UNL     1       2.171   3.731  21.560  0.00  0.00    +0.000 A 
ATOM     14  N   UNL     1       2.963   2.637  21.534  0.00  0.00    +0.000 NA
ATOM     15  C   UNL     1       3.831   2.537  20.512  0.00  0.00    +0.000 A 
ATOM     16  C   UNL     1       3.930   3.494  19.514  0.00  0.00    +0.000 A 
ENDBRANCH   3  11
BRANCH   1  18
ATOM     17  N   UNL     1       1.183   9.352  18.776  0.00  0.00    +0.000 N 
ATOM     18  C   UNL     1       2.093   8.144  19.219  0.00  0.00    +0.000 C 
ATOM     19  O   UNL     1       1.999   7.789  20.378  0.00  0.00    +0.000 OA
ATOM     20  H   UNL     1       1.169   9.634  17.796  0.00  0.00    +0.000 HD
BRANCH  17  24
ATOM     21  C   UNL     1      -1.851  11.914  21.184  0.00  0.00    +0.000 A 
ATOM     22  C   UNL     1      -0.896  11.089  21.805  0.00  0.00    +0.000 A 
ATOM     23  C   UNL     1       0.088  10.288  21.051  0.00  0.00    +0.000 A 
ATOM     24  C   UNL     1       0.178  10.217  19.652  0.00  0.00    +0.000 A 
ATOM     25  C   UNL     1      -0.830  11.063  19.048  0.00  0.00    +0.000 A 
ATOM     26  C   UNL     1      -1.811  11.874  19.802  0.00  0.00    +0.000 A 
BRANCH  21  28
ATOM     27  C   UNL     1      -2.890  12.271  23.399  0.00  0.00    +0.000 C 
ATOM     28  O   UNL     1      -2.703  12.610  22.016  0.00  0.00    +0.000 OA
ENDBRANCH  21  28
ENDBRANCH  17  24
ENDBRANCH   1  18
TORSDOF 4
ENDMDL
MODEL 8
REMARK VINA RESULT:      -7.9      2.485      9.295
REMARK  Name = 
REMARK  5 active torsions:
REMARK  status: ('A' for Active; 'I' for Inactive)
REMARK    1  A    between atoms: C_1  and  O_2
REMARK    2  A    between atoms: O_2  and  C_3
REMARK    3  A    between atoms: C_6  and  N_7
REMARK    4  A    between atoms: C_8  and  C_10
REMARK    5  A    between atoms: C_12  and  C_13
REMARK                            x       y       z     vdW  Elec       q    Type
REMARK                         _______ _______ _______ _____ _____    ______ ____
ROOT
ATOM      1  C   UNL     1       1.332  11.067  19.058  0.00  0.00    +0.000 A 
ATOM      2  C   UNL     1       0.491  10.334  19.825  0.00  0.00    +0.000 A 
ATOM      3  C   UNL     1      -0.796  10.708  19.750  0.00  0.00    +0.000 A 
ATOM      4  N   UNL     1      -1.021  11.636  20.633  0.00  0.00    +0.000 NA
ATOM      5  C   UNL     1      -0.394  12.718  20.259  0.00  0.00    +0.000 A 
ATOM      6  C   UNL     1      -1.233  13.840  20.274  0.00  0.00    +0.000 A 
ATOM      7  C   UNL     1      -0.858  15.073  19.800  0.00  0.00    +0.000 A 
ATOM      8  C   UNL     1       0.503  15.199  19.639  0.00  0.00    +0.000 A 
ATOM      9  C   UNL     1       1.347  14.005  19.566  0.00  0.00    +0.000 A 
ATOM     10  C   UNL     1       0.883  12.569  19.597  0.00  0.00    +0.000 A 
ENDROOT
BRANCH   3  11
ATOM     11  C   UNL     1      -1.590  11.002  18.512  0.00  0.00    +0.000 A 
ATOM     12  C   UNL     1      -1.346  10.048  17.538  0.00  0.00    +0.000 A 
ATOM     13  C   UNL     1      -2.371   9.720  16.689  0.00  0.00    +0.000 A 
ATOM     14  N   UNL     1      -3.592  10.299  16.691  0.00  0.00    +0.000 NA
ATOM     15  C   UNL     1      -3.792  11.296  17.571  0.00  0.00    +0.000 A 
ATOM     16  C   UNL     1      -2.814  11.729  18.452  0.00  0.00    +0.000 A 
ENDBRANCH   3  11
BRANCH   1  18
ATOM     17  N   UNL     1       2.042   8.139  19.362  0.00  0.00    +0.000 N 
ATOM     18  C   UNL     1       1.764   9.429  18.501  0.00  0.00    +0.000 C 
ATOM     19  O   UNL     1       1.886   9.316  17.297  0.00  0.00    +0.000 OA
ATOM     20  H   UNL     1       1.875   8.163  20.368  0.00  0.00    +0.000 HD
BRANCH  17  24
ATOM     21  C   UNL     1       3.552   4.011  17.862  0.00  0.00    +0.000 A 
ATOM     22  C   UNL     1       2.560   4.140  18.852  0.00  0.00    +0.000 A 
ATOM     23  C   UNL     1       2.056   5.446  19.320  0.00  0.00    +0.000 A 
ATOM     24  C   UNL     1       2.511   6.699  18.878  0.00  0.00    +0.000 A 
ATOM     25  C   UNL     1       3.540   6.526  17.875  0.00  0.00    +0.000 A 
ATOM     26  C   UNL     1       4.040   5.218  17.397  0.00  0.00    +0.000 A 
BRANCH  21  28
ATOM     27  C   UNL     1       3.509   1.572  18.269  0.00  0.00    +0.000 C 
ATOM     28  O   UNL     1       3.920   2.726  17.520  0.00  0.00    +0.000 OA
ENDBRANCH  21  28
ENDBRANCH  17  24
ENDBRANCH   1  18
TORSDOF 4
ENDMDL
MODEL 9
REMARK VINA RESULT:      -7.9      2.781      8.579
REMARK  Name = 
REMARK  5 active torsions:
REMARK  status: ('A' for Active; 'I' for Inactive)
REMARK    1  A    between atoms: C_1  and  O_2
REMARK    2  A    between atoms: O_2  and  C_3
REMARK    3  A    between atoms: C_6  and  N_7
REMARK    4  A    between atoms: C_8  and  C_10
REMARK    5  A    between atoms: C_12  and  C_13
REMARK                            x       y       z     vdW  Elec       q    Type
REMARK                         _______ _______ _______ _____ _____    ______ ____
ROOT
ATOM      1  C   UNL     1      -0.130   9.922  17.940  0.00  0.00    +0.000 A 
ATOM      2  C   UNL     1       0.692  10.866  18.458  0.00  0.00    +0.000 A 
ATOM      3  C   UNL     1       0.284  11.374  19.631  0.00  0.00    +0.000 A 
ATOM      4  N   UNL     1      -0.507  12.382  19.406  0.00  0.00    +0.000 NA
ATOM      5  C   UNL     1      -1.620  11.926  18.898  0.00  0.00    +0.000 A 
ATOM      6  C   UNL     1      -2.744  12.427  19.567  0.00  0.00    +0.000 A 
ATOM      7  C   UNL     1      -4.026  12.003  19.317  0.00  0.00    +0.000 A 
ATOM      8  C   UNL     1      -4.146  11.316  18.131  0.00  0.00    +0.000 A 
ATOM      9  C   UNL     1      -2.959  10.751  17.486  0.00  0.00    +0.000 A 
ATOM     10  C   UNL     1      -1.544  10.785  18.012  0.00  0.00    +0.000 A 
ENDROOT
BRANCH   3  11
ATOM     11  C   UNL     1      -0.209  10.619  20.830  0.00  0.00    +0.000 A 
ATOM     12  C   UNL     1       0.655   9.582  21.142  0.00  0.00    +0.000 A 
ATOM     13  C   UNL     1       0.798   9.241  22.462  0.00  0.00    +0.000 A 
ATOM     14  N   UNL     1       0.117   9.803  23.484  0.00  0.00    +0.000 NA
ATOM     15  C   UNL     1      -0.795  10.739  23.167  0.00  0.00    +0.000 A 
ATOM     16  C   UNL     1      -1.044  11.135  21.863  0.00  0.00    +0.000 A 
ENDBRANCH   3  11
BRANCH   1  18
ATOM     17  N   UNL     1       1.714   7.561  18.377  0.00  0.00    +0.000 N 
ATOM     18  C   UNL     1       1.414   9.033  17.902  0.00  0.00    +0.000 C 
ATOM     19  O   UNL     1       2.359   9.671  17.480  0.00  0.00    +0.000 OA
ATOM     20  H   UNL     1       0.940   6.961  18.665  0.00  0.00    +0.000 HD
BRANCH  17  24
ATOM     21  C   UNL     1       5.835   5.420  18.388  0.00  0.00    +0.000 A 
ATOM     22  C   UNL     1       4.885   5.238  19.409  0.00  0.00    +0.000 A 
ATOM     23  C   UNL     1       3.563   5.895  19.406  0.00  0.00    +0.000 A 
ATOM     24  C   UNL     1       3.104   6.792  18.427  0.00  0.00    +0.000 A 
ATOM     25  C   UNL     1       4.113   6.967  17.404  0.00  0.00    +0.000 A 
ATOM     26  C   UNL     1       5.434   6.302  17.401  0.00  0.00    +0.000 A 
BRANCH  21  28
ATOM     27  C   UNL     1       8.181   5.300  19.162  0.00  0.00    +0.000 C 
ATOM     28  O   UNL     1       7.026   4.736  18.522  0.00  0.00    +0.000 OA
ENDBRANCH  21  28
ENDBRANCH  17  24
ENDBRANCH   1  18
TORSDOF 4
ENDMDL
