MODEL 1
REMARK VINA RESULT:      -7.6      0.000      0.000
REMARK  Name = 
REMARK  9 active torsions:
REMARK  status: ('A' for Active; 'I' for Inactive)
REMARK    1  A    between atoms: C_1  and  C_2
REMARK    2  A    between atoms: C_6  and  C_7
REMARK    3  A    between atoms: C_7  and  N_8
REMARK    4  A    between atoms: N_8  and  C_9
REMARK    5  A    between atoms: N_12  and  C_13
REMARK    6  A    between atoms: C_13  and  C_14
REMARK    7  A    between atoms: N_16  and  C_17
REMARK    8  A    between atoms: N_16  and  C_18
REMARK    9  A    between atoms: C_24  and  C_25
REMARK                            x       y       z     vdW  Elec       q    Type
REMARK                         _______ _______ _______ _____ _____    ______ ____
ROOT
ATOM      1  N   UNL     1       7.232   7.732  17.363  0.00  0.00    +0.000 NA
ATOM      2  H   UNL     1       7.436   8.283  16.528  0.00  0.00    +0.000 HD
ENDROOT
BRANCH   1   3
ATOM      3  C   UNL     1       7.145   6.306  17.000  0.00  0.00    +0.000 C 
ATOM      4  C   UNL     1       5.774   6.004  16.369  0.00  0.00    +0.000 C 
ATOM      5  C   UNL     1       4.636   6.019  17.397  0.00  0.00    +0.000 C 
ATOM      6  N   UNL     1       4.919   5.106  18.517  0.00  0.00    +0.000 NA
ATOM      7  C   UNL     1       6.169   5.492  19.188  0.00  0.00    +0.000 C 
ATOM      8  C   UNL     1       7.327   5.365  18.199  0.00  0.00    +0.000 C 
BRANCH   6   9
ATOM      9  C   UNL     1       3.778   5.082  19.459  0.00  0.00    +0.000 C 
BRANCH   9  10
ATOM     10  C   UNL     1       3.132   3.691  19.559  0.00  0.00    +0.000 C 
ATOM     11  O   UNL     1       3.590   2.866  20.357  0.00  0.00    +0.000 OA
ATOM     12  N   UNL     1       2.041   3.398  18.744  0.00  0.00    +0.000 N 
ATOM     13  C   UNL     1       1.461   4.310  17.770  0.00  0.00    +0.000 C 
ATOM     14  C   UNL     1       1.520   2.042  18.729  0.00  0.00    +0.000 C 
ENDBRANCH   9  10
ENDBRANCH   6   9
ENDBRANCH   1   3
BRANCH   1  15
ATOM     15  C   UNL     1       8.289   8.000  18.345  0.00  0.00    +0.000 C 
BRANCH  15  21
ATOM     16  C   UNL     1       9.622  15.375  18.240  0.00  0.00    +0.000 C 
ATOM     17  C   UNL     1       9.575  13.923  18.633  0.00  0.00    +0.000 A 
ATOM     18  C   UNL     1       8.908  13.020  17.782  0.00  0.00    +0.000 A 
ATOM     19  C   UNL     1       8.865  11.656  18.117  0.00  0.00    +0.000 A 
ATOM     20  C   UNL     1       8.313  10.493  17.535  0.00  0.00    +0.000 A 
ATOM     21  C   UNL     1       8.626   9.445  18.375  0.00  0.00    +0.000 A 
ATOM     22  O   UNL     1       9.335   9.896  19.449  0.00  0.00    +0.000 OA
ATOM     23  C   UNL     1       9.480  11.242  19.291  0.00  0.00    +0.000 A 
ATOM     24  C   UNL     1      10.138  12.097  20.169  0.00  0.00    +0.000 A 
ATOM     25  C   UNL     1      10.187  13.463  19.823  0.00  0.00    +0.000 A 
ATOM     26  C   UNL     1      10.912  14.413  20.737  0.00  0.00    +0.000 C 
ENDBRANCH  15  21
ENDBRANCH   1  15
TORSDOF 5
ENDMDL
MODEL 2
REMARK VINA RESULT:      -7.6      5.334      6.383
REMARK  Name = 
REMARK  9 active torsions:
REMARK  status: ('A' for Active; 'I' for Inactive)
REMARK    1  A    between atoms: C_1  and  C_2
REMARK    2  A    between atoms: C_6  and  C_7
REMARK    3  A    between atoms: C_7  and  N_8
REMARK    4  A    between atoms: N_8  and  C_9
REMARK    5  A    between atoms: N_12  and  C_13
REMARK    6  A    between atoms: C_13  and  C_14
REMARK    7  A    between atoms: N_16  and  C_17
REMARK    8  A    between atoms: N_16  and  C_18
REMARK    9  A    between atoms: C_24  and  C_25
REMARK                            x       y       z     vdW  Elec       q    Type
REMARK                         _______ _______ _______ _____ _____    ______ ____
ROOT
ATOM      1  N   UNL     1       5.664   7.000  17.204  0.00  0.00    +0.000 NA
ATOM      2  H   UNL     1       5.597   7.118  18.215  0.00  0.00    +0.000 HD
ENDROOT
BRANCH   1   3
ATOM      3  C   UNL     1       6.369   5.740  16.903  0.00  0.00    +0.000 C 
ATOM      4  C   UNL     1       5.365   4.673  16.432  0.00  0.00    +0.000 C 
ATOM      5  C   UNL     1       4.488   4.144  17.574  0.00  0.00    +0.000 C 
ATOM      6  N   UNL     1       5.310   3.646  18.688  0.00  0.00    +0.000 NA
ATOM      7  C   UNL     1       6.170   4.719  19.210  0.00  0.00    +0.000 C 
ATOM      8  C   UNL     1       7.129   5.170  18.108  0.00  0.00    +0.000 C 
BRANCH   6   9
ATOM      9  C   UNL     1       4.448   3.076  19.747  0.00  0.00    +0.000 C 
BRANCH   9  10
ATOM     10  C   UNL     1       3.222   2.346  19.172  0.00  0.00    +0.000 C 
ATOM     11  O   UNL     1       3.390   1.364  18.441  0.00  0.00    +0.000 OA
ATOM     12  N   UNL     1       1.951   2.815  19.492  0.00  0.00    +0.000 N 
ATOM     13  C   UNL     1       1.678   3.975  20.328  0.00  0.00    +0.000 C 
ATOM     14  C   UNL     1       0.797   2.222  18.838  0.00  0.00    +0.000 C 
ENDBRANCH   9  10
ENDBRANCH   6   9
ENDBRANCH   1   3
BRANCH   1  15
ATOM     15  C   UNL     1       4.303   7.029  16.658  0.00  0.00    +0.000 C 
BRANCH  15  21
ATOM     16  C   UNL     1      -0.331   9.116  22.167  0.00  0.00    +0.000 C 
ATOM     17  C   UNL     1       0.418   9.037  20.863  0.00  0.00    +0.000 A 
ATOM     18  C   UNL     1       1.370   8.012  20.699  0.00  0.00    +0.000 A 
ATOM     19  C   UNL     1       2.069   7.906  19.484  0.00  0.00    +0.000 A 
ATOM     20  C   UNL     1       3.060   7.042  18.966  0.00  0.00    +0.000 A 
ATOM     21  C   UNL     1       3.332   7.479  17.685  0.00  0.00    +0.000 A 
ATOM     22  O   UNL     1       2.569   8.569  17.385  0.00  0.00    +0.000 OA
ATOM     23  C   UNL     1       1.800   8.828  18.481  0.00  0.00    +0.000 A 
ATOM     24  C   UNL     1       0.880   9.864  18.602  0.00  0.00    +0.000 A 
ATOM     25  C   UNL     1       0.174   9.960  19.819  0.00  0.00    +0.000 A 
ATOM     26  C   UNL     1      -0.847  11.054  19.975  0.00  0.00    +0.000 C 
ENDBRANCH  15  21
ENDBRANCH   1  15
TORSDOF 5
ENDMDL
MODEL 3
REMARK VINA RESULT:      -7.5      1.418      2.015
REMARK  Name = 
REMARK  9 active torsions:
REMARK  status: ('A' for Active; 'I' for Inactive)
REMARK    1  A    between atoms: C_1  and  C_2
REMARK    2  A    between atoms: C_6  and  C_7
REMARK    3  A    between atoms: C_7  and  N_8
REMARK    4  A    between atoms: N_8  and  C_9
REMARK    5  A    between atoms: N_12  and  C_13
REMARK    6  A    between atoms: C_13  and  C_14
REMARK    7  A    between atoms: N_16  and  C_17
REMARK    8  A    between atoms: N_16  and  C_18
REMARK    9  A    between atoms: C_24  and  C_25
REMARK                            x       y       z     vdW  Elec       q    Type
REMARK                         _______ _______ _______ _____ _____    ______ ____
ROOT
ATOM      1  N   UNL     1       7.369   6.388  16.803  0.00  0.00    +0.000 NA
ATOM      2  H   UNL     1       7.521   5.379  16.758  0.00  0.00    +0.000 HD
ENDROOT
BRANCH   1   3
ATOM      3  C   UNL     1       5.992   6.696  16.377  0.00  0.00    +0.000 C 
ATOM      4  C   UNL     1       5.040   6.641  17.584  0.00  0.00    +0.000 C 
ATOM      5  C   UNL     1       4.784   5.208  18.068  0.00  0.00    +0.000 C 
ATOM      6  N   UNL     1       4.300   4.355  16.970  0.00  0.00    +0.000 NA
ATOM      7  C   UNL     1       5.286   4.318  15.878  0.00  0.00    +0.000 C 
ATOM      8  C   UNL     1       5.457   5.728  15.313  0.00  0.00    +0.000 C 
BRANCH   6   9
ATOM      9  C   UNL     1       3.992   2.998  17.472  0.00  0.00    +0.000 C 
BRANCH   9  10
ATOM     10  C   UNL     1       2.652   2.944  18.224  0.00  0.00    +0.000 C 
ATOM     11  O   UNL     1       1.603   3.165  17.609  0.00  0.00    +0.000 OA
ATOM     12  N   UNL     1       2.658   2.646  19.585  0.00  0.00    +0.000 N 
ATOM     13  C   UNL     1       3.853   2.395  20.377  0.00  0.00    +0.000 C 
ATOM     14  C   UNL     1       1.413   2.736  20.329  0.00  0.00    +0.000 C 
ENDBRANCH   9  10
ENDBRANCH   6   9
ENDBRANCH   1   3
BRANCH   1  15
ATOM     15  C   UNL     1       7.645   6.822  18.177  0.00  0.00    +0.000 C 
BRANCH  15  21
ATOM     16  C   UNL     1       9.544  14.073  18.093  0.00  0.00    +0.000 C 
ATOM     17  C   UNL     1       9.426  12.616  18.455  0.00  0.00    +0.000 A 
ATOM     18  C   UNL     1       8.595  11.796  17.666  0.00  0.00    +0.000 A 
ATOM     19  C   UNL     1       8.482  10.429  17.971  0.00  0.00    +0.000 A 
ATOM     20  C   UNL     1       7.776   9.332  17.429  0.00  0.00    +0.000 A 
ATOM     21  C   UNL     1       8.098   8.235  18.202  0.00  0.00    +0.000 A 
ATOM     22  O   UNL     1       8.959   8.594  19.197  0.00  0.00    +0.000 OA
ATOM     23  C   UNL     1       9.193   9.930  19.055  0.00  0.00    +0.000 A 
ATOM     24  C   UNL     1      10.013  10.702  19.871  0.00  0.00    +0.000 A 
ATOM     25  C   UNL     1      10.131  12.072  19.554  0.00  0.00    +0.000 A 
ATOM     26  C   UNL     1      11.030  12.932  20.400  0.00  0.00    +0.000 C 
ENDBRANCH  15  21
ENDBRANCH   1  15
TORSDOF 5
ENDMDL
MODEL 4
REMARK VINA RESULT:      -7.5      1.169      1.358
REMARK  Name = 
REMARK  9 active torsions:
REMARK  status: ('A' for Active; 'I' for Inactive)
REMARK    1  A    between atoms: C_1  and  C_2
REMARK    2  A    between atoms: C_6  and  C_7
REMARK    3  A    between atoms: C_7  and  N_8
REMARK    4  A    between atoms: N_8  and  C_9
REMARK    5  A    between atoms: N_12  and  C_13
REMARK    6  A    between atoms: C_13  and  C_14
REMARK    7  A    between atoms: N_16  and  C_17
REMARK    8  A    between atoms: N_16  and  C_18
REMARK    9  A    between atoms: C_24  and  C_25
REMARK                            x       y       z     vdW  Elec       q    Type
REMARK                         _______ _______ _______ _____ _____    ______ ____
ROOT
ATOM      1  N   UNL     1       7.416   6.911  16.808  0.00  0.00    +0.000 NA
ATOM      2  H   UNL     1       8.133   7.174  16.131  0.00  0.00    +0.000 HD
ENDROOT
BRANCH   1   3
ATOM      3  C   UNL     1       7.128   5.471  16.681  0.00  0.00    +0.000 C 
ATOM      4  C   UNL     1       5.879   5.256  15.807  0.00  0.00    +0.000 C 
ATOM      5  C   UNL     1       4.583   5.657  16.523  0.00  0.00    +0.000 C 
ATOM      6  N   UNL     1       4.453   4.965  17.815  0.00  0.00    +0.000 NA
ATOM      7  C   UNL     1       5.594   5.288  18.686  0.00  0.00    +0.000 C 
ATOM      8  C   UNL     1       6.880   4.783  18.031  0.00  0.00    +0.000 C 
BRANCH   6   9
ATOM      9  C   UNL     1       3.165   5.311  18.454  0.00  0.00    +0.000 C 
BRANCH   9  10
ATOM     10  C   UNL     1       2.091   4.233  18.227  0.00  0.00    +0.000 C 
ATOM     11  O   UNL     1       1.368   4.300  17.228  0.00  0.00    +0.000 OA
ATOM     12  N   UNL     1       1.965   3.206  19.159  0.00  0.00    +0.000 N 
ATOM     13  C   UNL     1       2.767   3.074  20.367  0.00  0.00    +0.000 C 
ATOM     14  C   UNL     1       0.862   2.270  19.028  0.00  0.00    +0.000 C 
ENDBRANCH   9  10
ENDBRANCH   6   9
ENDBRANCH   1   3
BRANCH   1  15
ATOM     15  C   UNL     1       7.905   7.273  18.143  0.00  0.00    +0.000 C 
BRANCH  15  21
ATOM     16  C   UNL     1       9.489  14.599  18.160  0.00  0.00    +0.000 C 
ATOM     17  C   UNL     1       9.420  13.137  18.511  0.00  0.00    +0.000 A 
ATOM     18  C   UNL     1       8.658  12.286  17.687  0.00  0.00    +0.000 A 
ATOM     19  C   UNL     1       8.592  10.914  17.983  0.00  0.00    +0.000 A 
ATOM     20  C   UNL     1       7.956   9.790  17.410  0.00  0.00    +0.000 A 
ATOM     21  C   UNL     1       8.295   8.704  18.191  0.00  0.00    +0.000 A 
ATOM     22  O   UNL     1       9.101   9.095  19.220  0.00  0.00    +0.000 OA
ATOM     23  C   UNL     1       9.281  10.440  19.092  0.00  0.00    +0.000 A 
ATOM     24  C   UNL     1      10.035  11.243  19.942  0.00  0.00    +0.000 A 
ATOM     25  C   UNL     1      10.105  12.618  19.634  0.00  0.00    +0.000 A 
ATOM     26  C   UNL     1      10.932  13.512  20.518  0.00  0.00    +0.000 C 
ENDBRANCH  15  21
ENDBRANCH   1  15
TORSDOF 5
ENDMDL
MODEL 5
REMARK VINA RESULT:      -7.4      1.189      1.774
REMARK  Name = 
REMARK  9 active torsions:
REMARK  status: ('A' for Active; 'I' for Inactive)
REMARK    1  A    between atoms: C_1  and  C_2
REMARK    2  A    between atoms: C_6  and  C_7
REMARK    3  A    between atoms: C_7  and  N_8
REMARK    4  A    between atoms: N_8  and  C_9
REMARK    5  A    between atoms: N_12  and  C_13
REMARK    6  A    between atoms: C_13  and  C_14
REMARK    7  A    between atoms: N_16  and  C_17
REMARK    8  A    between atoms: N_16  and  C_18
REMARK    9  A    between atoms: C_24  and  C_25
REMARK                            x       y       z     vdW  Elec       q    Type
REMARK                         _______ _______ _______ _____ _____    ______ ____
ROOT
ATOM      1  N   UNL     1       7.677   7.291  18.084  0.00  0.00    +0.000 NA
ATOM      2  H   UNL     1       7.282   7.087  19.003  0.00  0.00    +0.000 HD
ENDROOT
BRANCH   1   3
ATOM      3  C   UNL     1       7.297   6.225  17.139  0.00  0.00    +0.000 C 
ATOM      4  C   UNL     1       5.814   6.364  16.753  0.00  0.00    +0.000 C 
ATOM      5  C   UNL     1       4.869   5.968  17.894  0.00  0.00    +0.000 C 
ATOM      6  N   UNL     1       5.166   4.611  18.383  0.00  0.00    +0.000 NA
ATOM      7  C   UNL     1       6.552   4.535  18.869  0.00  0.00    +0.000 C 
ATOM      8  C   UNL     1       7.504   4.813  17.706  0.00  0.00    +0.000 C 
BRANCH   6   9
ATOM      9  C   UNL     1       4.198   4.222  19.433  0.00  0.00    +0.000 C 
BRANCH   9  10
ATOM     10  C   UNL     1       3.169   3.197  18.928  0.00  0.00    +0.000 C 
ATOM     11  O   UNL     1       3.538   2.288  18.176  0.00  0.00    +0.000 OA
ATOM     12  N   UNL     1       1.843   3.323  19.334  0.00  0.00    +0.000 N 
ATOM     13  C   UNL     1       1.333   4.376  20.199  0.00  0.00    +0.000 C 
ATOM     14  C   UNL     1       0.842   2.448  18.746  0.00  0.00    +0.000 C 
ENDBRANCH   9  10
ENDBRANCH   6   9
ENDBRANCH   1   3
BRANCH   1  15
ATOM     15  C   UNL     1       7.190   8.611  17.670  0.00  0.00    +0.000 C 
BRANCH  15  21
ATOM     16  C   UNL     1      12.325  13.653  19.766  0.00  0.00    +0.000 C 
ATOM     17  C   UNL     1      11.156  12.973  19.104  0.00  0.00    +0.000 A 
ATOM     18  C   UNL     1      10.896  11.626  19.424  0.00  0.00    +0.000 A 
ATOM     19  C   UNL     1       9.800  10.974  18.833  0.00  0.00    +0.000 A 
ATOM     20  C   UNL     1       9.241   9.679  18.905  0.00  0.00    +0.000 A 
ATOM     21  C   UNL     1       8.147   9.674  18.064  0.00  0.00    +0.000 A 
ATOM     22  O   UNL     1       8.002  10.894  17.470  0.00  0.00    +0.000 OA
ATOM     23  C   UNL     1       9.009  11.684  17.939  0.00  0.00    +0.000 A 
ATOM     24  C   UNL     1       9.234  13.010  17.582  0.00  0.00    +0.000 A 
ATOM     25  C   UNL     1      10.329  13.662  18.186  0.00  0.00    +0.000 A 
ATOM     26  C   UNL     1      10.588  15.104  17.841  0.00  0.00    +0.000 C 
ENDBRANCH  15  21
ENDBRANCH   1  15
TORSDOF 5
ENDMDL
MODEL 6
REMARK VINA RESULT:      -7.4      0.930      1.174
REMARK  Name = 
REMARK  9 active torsions:
REMARK  status: ('A' for Active; 'I' for Inactive)
REMARK    1  A    between atoms: C_1  and  C_2
REMARK    2  A    between atoms: C_6  and  C_7
REMARK    3  A    between atoms: C_7  and  N_8
REMARK    4  A    between atoms: N_8  and  C_9
REMARK    5  A    between atoms: N_12  and  C_13
REMARK    6  A    between atoms: C_13  and  C_14
REMARK    7  A    between atoms: N_16  and  C_17
REMARK    8  A    between atoms: N_16  and  C_18
REMARK    9  A    between atoms: C_24  and  C_25
REMARK                            x       y       z     vdW  Elec       q    Type
REMARK                         _______ _______ _______ _____ _____    ______ ____
ROOT
ATOM      1  N   UNL     1       7.367   8.061  17.542  0.00  0.00    +0.000 NA
ATOM      2  H   UNL     1       7.489   8.691  16.749  0.00  0.00    +0.000 HD
ENDROOT
BRANCH   1   3
ATOM      3  C   UNL     1       7.259   6.674  17.054  0.00  0.00    +0.000 C 
ATOM      4  C   UNL     1       5.872   6.439  16.430  0.00  0.00    +0.000 C 
ATOM      5  C   UNL     1       4.758   6.368  17.482  0.00  0.00    +0.000 C 
ATOM      6  N   UNL     1       5.058   5.356  18.508  0.00  0.00    +0.000 NA
ATOM      7  C   UNL     1       6.327   5.671  19.182  0.00  0.00    +0.000 C 
ATOM      8  C   UNL     1       7.461   5.627  18.157  0.00  0.00    +0.000 C 
BRANCH   6   9
ATOM      9  C   UNL     1       3.940   5.254  19.471  0.00  0.00    +0.000 C 
BRANCH   9  10
ATOM     10  C   UNL     1       2.868   4.249  19.017  0.00  0.00    +0.000 C 
ATOM     11  O   UNL     1       1.881   4.656  18.394  0.00  0.00    +0.000 OA
ATOM     12  N   UNL     1       3.041   2.901  19.321  0.00  0.00    +0.000 N 
ATOM     13  C   UNL     1       4.165   2.353  20.066  0.00  0.00    +0.000 C 
ATOM     14  C   UNL     1       1.965   1.970  19.024  0.00  0.00    +0.000 C 
ENDBRANCH   9  10
ENDBRANCH   6   9
ENDBRANCH   1   3
BRANCH   1  15
ATOM     15  C   UNL     1       8.506   8.253  18.447  0.00  0.00    +0.000 C 
BRANCH  15  21
ATOM     16  C   UNL     1       9.838  15.619  18.834  0.00  0.00    +0.000 C 
ATOM     17  C   UNL     1       9.677  14.162  19.176  0.00  0.00    +0.000 A 
ATOM     18  C   UNL     1       9.274  13.276  18.158  0.00  0.00    +0.000 A 
ATOM     19  C   UNL     1       9.134  11.908  18.446  0.00  0.00    +0.000 A 
ATOM     20  C   UNL     1       8.765  10.757  17.714  0.00  0.00    +0.000 A 
ATOM     21  C   UNL     1       8.825   9.695  18.592  0.00  0.00    +0.000 A 
ATOM     22  O   UNL     1       9.204  10.126  19.830  0.00  0.00    +0.000 OA
ATOM     23  C   UNL     1       9.392  11.473  19.740  0.00  0.00    +0.000 A 
ATOM     24  C   UNL     1       9.778  12.311  20.781  0.00  0.00    +0.000 A 
ATOM     25  C   UNL     1       9.927  13.682  20.483  0.00  0.00    +0.000 A 
ATOM     26  C   UNL     1      10.368  14.613  21.579  0.00  0.00    +0.000 C 
ENDBRANCH  15  21
ENDBRANCH   1  15
TORSDOF 5
ENDMDL
MODEL 7
REMARK VINA RESULT:      -7.3      5.188      6.407
REMARK  Name = 
REMARK  9 active torsions:
REMARK  status: ('A' for Active; 'I' for Inactive)
REMARK    1  A    between atoms: C_1  and  C_2
REMARK    2  A    between atoms: C_6  and  C_7
REMARK    3  A    between atoms: C_7  and  N_8
REMARK    4  A    between atoms: N_8  and  C_9
REMARK    5  A    between atoms: N_12  and  C_13
REMARK    6  A    between atoms: C_13  and  C_14
REMARK    7  A    between atoms: N_16  and  C_17
REMARK    8  A    between atoms: N_16  and  C_18
REMARK    9  A    between atoms: C_24  and  C_25
REMARK                            x       y       z     vdW  Elec       q    Type
REMARK                         _______ _______ _______ _____ _____    ______ ____
ROOT
ATOM      1  N   UNL     1       4.905   7.299  17.381  0.00  0.00    +0.000 NA
ATOM      2  H   UNL     1       5.112   7.619  18.327  0.00  0.00    +0.000 HD
ENDROOT
BRANCH   1   3
ATOM      3  C   UNL     1       5.838   6.218  17.013  0.00  0.00    +0.000 C 
ATOM      4  C   UNL     1       5.056   4.996  16.500  0.00  0.00    +0.000 C 
ATOM      5  C   UNL     1       4.322   4.253  17.624  0.00  0.00    +0.000 C 
ATOM      6  N   UNL     1       5.247   3.877  18.705  0.00  0.00    +0.000 NA
ATOM      7  C   UNL     1       5.888   5.075  19.269  0.00  0.00    +0.000 C 
ATOM      8  C   UNL     1       6.718   5.755  18.181  0.00  0.00    +0.000 C 
BRANCH   6   9
ATOM      9  C   UNL     1       4.533   3.101  19.743  0.00  0.00    +0.000 C 
BRANCH   9  10
ATOM     10  C   UNL     1       3.302   2.370  19.182  0.00  0.00    +0.000 C 
ATOM     11  O   UNL     1       3.462   1.377  18.465  0.00  0.00    +0.000 OA
ATOM     12  N   UNL     1       2.034   2.850  19.502  0.00  0.00    +0.000 N 
ATOM     13  C   UNL     1       1.771   4.023  20.323  0.00  0.00    +0.000 C 
ATOM     14  C   UNL     1       0.875   2.254  18.860  0.00  0.00    +0.000 C 
ENDBRANCH   9  10
ENDBRANCH   6   9
ENDBRANCH   1   3
BRANCH   1  15
ATOM     15  C   UNL     1       3.503   6.868  17.350  0.00  0.00    +0.000 C 
BRANCH  15  21
ATOM     16  C   UNL     1      -0.977  11.587  21.071  0.00  0.00    +0.000 C 
ATOM     17  C   UNL     1      -0.081  10.433  20.706  0.00  0.00    +0.000 A 
ATOM     18  C   UNL     1       0.432  10.374  19.395  0.00  0.00    +0.000 A 
ATOM     19  C   UNL     1       1.285   9.317  19.034  0.00  0.00    +0.000 A 
ATOM     20  C   UNL     1       1.972   8.935  17.860  0.00  0.00    +0.000 A 
ATOM     21  C   UNL     1       2.656   7.775  18.163  0.00  0.00    +0.000 A 
ATOM     22  O   UNL     1       2.424   7.415  19.459  0.00  0.00    +0.000 OA
ATOM     23  C   UNL     1       1.590   8.355  19.988  0.00  0.00    +0.000 A 
ATOM     24  C   UNL     1       1.096   8.364  21.288  0.00  0.00    +0.000 A 
ATOM     25  C   UNL     1       0.249   9.432  21.648  0.00  0.00    +0.000 A 
ATOM     26  C   UNL     1      -0.283   9.487  23.054  0.00  0.00    +0.000 C 
ENDBRANCH  15  21
ENDBRANCH   1  15
TORSDOF 5
ENDMDL
MODEL 8
REMARK VINA RESULT:      -7.3      1.230      1.774
REMARK  Name = 
REMARK  9 active torsions:
REMARK  status: ('A' for Active; 'I' for Inactive)
REMARK    1  A    between atoms: C_1  and  C_2
REMARK    2  A    between atoms: C_6  and  C_7
REMARK    3  A    between atoms: C_7  and  N_8
REMARK    4  A    between atoms: N_8  and  C_9
REMARK    5  A    between atoms: N_12  and  C_13
REMARK    6  A    between atoms: C_13  and  C_14
REMARK    7  A    between atoms: N_16  and  C_17
REMARK    8  A    between atoms: N_16  and  C_18
REMARK    9  A    between atoms: C_24  and  C_25
REMARK                            x       y       z     vdW  Elec       q    Type
REMARK                         _______ _______ _______ _____ _____    ______ ____
ROOT
ATOM      1  N   UNL     1       7.353   6.386  16.850  0.00  0.00    +0.000 NA
ATOM      2  H   UNL     1       7.521   5.382  16.780  0.00  0.00    +0.000 HD
ENDROOT
BRANCH   1   3
ATOM      3  C   UNL     1       5.944   6.672  16.528  0.00  0.00    +0.000 C 
ATOM      4  C   UNL     1       5.079   6.564  17.797  0.00  0.00    +0.000 C 
ATOM      5  C   UNL     1       4.889   5.114  18.258  0.00  0.00    +0.000 C 
ATOM      6  N   UNL     1       4.349   4.278  17.174  0.00  0.00    +0.000 NA
ATOM      7  C   UNL     1       5.256   4.291  16.017  0.00  0.00    +0.000 C 
ATOM      8  C   UNL     1       5.357   5.718  15.479  0.00  0.00    +0.000 C 
BRANCH   6   9
ATOM      9  C   UNL     1       4.106   2.902  17.660  0.00  0.00    +0.000 C 
BRANCH   9  10
ATOM     10  C   UNL     1       3.921   2.845  19.186  0.00  0.00    +0.000 C 
ATOM     11  O   UNL     1       4.890   2.577  19.904  0.00  0.00    +0.000 OA
ATOM     12  N   UNL     1       2.659   3.101  19.718  0.00  0.00    +0.000 N 
ATOM     13  C   UNL     1       1.471   3.403  18.934  0.00  0.00    +0.000 C 
ATOM     14  C   UNL     1       2.445   2.907  21.142  0.00  0.00    +0.000 C 
ENDBRANCH   9  10
ENDBRANCH   6   9
ENDBRANCH   1   3
BRANCH   1  15
ATOM     15  C   UNL     1       7.719   6.807  18.207  0.00  0.00    +0.000 C 
BRANCH  15  21
ATOM     16  C   UNL     1       9.479  14.091  18.050  0.00  0.00    +0.000 C 
ATOM     17  C   UNL     1       9.372  12.640  18.439  0.00  0.00    +0.000 A 
ATOM     18  C   UNL     1       8.596  11.787  17.630  0.00  0.00    +0.000 A 
ATOM     19  C   UNL     1       8.494  10.425  17.960  0.00  0.00    +0.000 A 
ATOM     20  C   UNL     1       7.836   9.302  17.411  0.00  0.00    +0.000 A 
ATOM     21  C   UNL     1       8.142   8.229  18.222  0.00  0.00    +0.000 A 
ATOM     22  O   UNL     1       8.949   8.627  19.248  0.00  0.00    +0.000 OA
ATOM     23  C   UNL     1       9.163   9.964  19.087  0.00  0.00    +0.000 A 
ATOM     24  C   UNL     1       9.929  10.770  19.922  0.00  0.00    +0.000 A 
ATOM     25  C   UNL     1      10.035  12.134  19.581  0.00  0.00    +0.000 A 
ATOM     26  C   UNL     1      10.876  13.031  20.448  0.00  0.00    +0.000 C 
ENDBRANCH  15  21
ENDBRANCH   1  15
TORSDOF 5
ENDMDL
MODEL 9
REMARK VINA RESULT:      -7.3      1.076      1.688
REMARK  Name = 
REMARK  9 active torsions:
REMARK  status: ('A' for Active; 'I' for Inactive)
REMARK    1  A    between atoms: C_1  and  C_2
REMARK    2  A    between atoms: C_6  and  C_7
REMARK    3  A    between atoms: C_7  and  N_8
REMARK    4  A    between atoms: N_8  and  C_9
REMARK    5  A    between atoms: N_12  and  C_13
REMARK    6  A    between atoms: C_13  and  C_14
REMARK    7  A    between atoms: N_16  and  C_17
REMARK    8  A    between atoms: N_16  and  C_18
REMARK    9  A    between atoms: C_24  and  C_25
REMARK                            x       y       z     vdW  Elec       q    Type
REMARK                         _______ _______ _______ _____ _____    ______ ____
ROOT
ATOM      1  N   UNL     1       7.420   8.166  17.801  0.00  0.00    +0.000 NA
ATOM      2  H   UNL     1       7.524   8.908  17.108  0.00  0.00    +0.000 HD
ENDROOT
BRANCH   1   3
ATOM      3  C   UNL     1       7.304   6.867  17.115  0.00  0.00    +0.000 C 
ATOM      4  C   UNL     1       5.909   6.726  16.480  0.00  0.00    +0.000 C 
ATOM      5  C   UNL     1       4.808   6.500  17.523  0.00  0.00    +0.000 C 
ATOM      6  N   UNL     1       5.119   5.347  18.383  0.00  0.00    +0.000 NA
ATOM      7  C   UNL     1       6.396   5.560  19.082  0.00  0.00    +0.000 C 
ATOM      8  C   UNL     1       7.518   5.668  18.049  0.00  0.00    +0.000 C 
BRANCH   6   9
ATOM      9  C   UNL     1       4.012   5.103  19.334  0.00  0.00    +0.000 C 
BRANCH   9  10
ATOM     10  C   UNL     1       3.138   3.908  18.918  0.00  0.00    +0.000 C 
ATOM     11  O   UNL     1       3.541   3.140  18.037  0.00  0.00    +0.000 OA
ATOM     12  N   UNL     1       1.910   3.723  19.549  0.00  0.00    +0.000 N 
ATOM     13  C   UNL     1       1.363   4.596  20.578  0.00  0.00    +0.000 C 
ATOM     14  C   UNL     1       1.018   2.685  19.061  0.00  0.00    +0.000 C 
ENDBRANCH   9  10
ENDBRANCH   6   9
ENDBRANCH   1   3
BRANCH   1  15
ATOM     15  C   UNL     1       8.577   8.228  18.701  0.00  0.00    +0.000 C 
BRANCH  15  21
ATOM     16  C   UNL     1      10.907  15.198  20.173  0.00  0.00    +0.000 C 
ATOM     17  C   UNL     1      10.490  13.934  19.468  0.00  0.00    +0.000 A 
ATOM     18  C   UNL     1      10.113  12.826  20.251  0.00  0.00    +0.000 A 
ATOM     19  C   UNL     1       9.701  11.640  19.618  0.00  0.00    +0.000 A 
ATOM     20  C   UNL     1       9.264  10.368  20.051  0.00  0.00    +0.000 A 
ATOM     21  C   UNL     1       9.006   9.632  18.912  0.00  0.00    +0.000 A 
ATOM     22  O   UNL     1       9.265  10.377  17.799  0.00  0.00    +0.000 OA
ATOM     23  C   UNL     1       9.688  11.600  18.230  0.00  0.00    +0.000 A 
ATOM     24  C   UNL     1      10.064  12.663  17.416  0.00  0.00    +0.000 A 
ATOM     25  C   UNL     1      10.466  13.853  18.057  0.00  0.00    +0.000 A 
ATOM     26  C   UNL     1      10.856  15.032  17.207  0.00  0.00    +0.000 C 
ENDBRANCH  15  21
ENDBRANCH   1  15
TORSDOF 5
ENDMDL
