MODEL 1
REMARK VINA RESULT:      -7.6      0.000      0.000
REMARK  Name = 
REMARK  9 active torsions:
REMARK  status: ('A' for Active; 'I' for Inactive)
REMARK    1  A    between atoms: C_1  and  C_2
REMARK    2  A    between atoms: C_2  and  C_3
REMARK    3  A    between atoms: C_7  and  C_8
REMARK    4  A    between atoms: C_8  and  C_9
REMARK    5  A    between atoms: C_8  and  C_10
REMARK    6  A    between atoms: C_8  and  C_11
REMARK    7  A    between atoms: C_15  and  N_16
REMARK    8  A    between atoms: C_17  and  C_19
REMARK    9  A    between atoms: C_19  and  N_20
REMARK                            x       y       z     vdW  Elec       q    Type
REMARK                         _______ _______ _______ _____ _____    ______ ____
ROOT
ATOM      1  C   UNL     1       6.185   3.765  13.885  0.00  0.00    +0.000 C 
ATOM      2  C   UNL     1       5.839   4.489  15.200  0.00  0.00    +0.000 C 
ATOM      3  C   UNL     1       5.318   5.889  14.826  0.00  0.00    +0.000 C 
ATOM      4  C   UNL     1       4.748   3.703  15.963  0.00  0.00    +0.000 C 
ATOM      5  C   UNL     1       4.586   4.128  17.404  0.00  0.00    +0.000 A 
ATOM      6  N   UNL     1       3.430   3.758  17.999  0.00  0.00    +0.000 NA
ATOM      7  C   UNL     1       3.249   4.097  19.292  0.00  0.00    +0.000 A 
ATOM      8  N   UNL     1       4.171   4.747  20.026  0.00  0.00    +0.000 NA
ATOM      9  C   UNL     1       5.312   5.094  19.402  0.00  0.00    +0.000 A 
ATOM     10  C   UNL     1       5.585   4.809  18.079  0.00  0.00    +0.000 A 
ATOM     11  C   UNL     1       6.878   5.226  17.441  0.00  0.00    +0.000 C 
ATOM     12  C   UNL     1       7.105   4.534  16.089  0.00  0.00    +0.000 C 
ENDROOT
BRANCH   7  13
ATOM     13  C   UNL     1       1.950   3.674  19.975  0.00  0.00    +0.000 C 
ATOM     14  C   UNL     1       1.221   4.925  20.492  0.00  0.00    +0.000 C 
ATOM     15  C   UNL     1       1.036   2.927  18.984  0.00  0.00    +0.000 C 
ATOM     16  C   UNL     1       2.233   2.734  21.164  0.00  0.00    +0.000 C 
ENDBRANCH   7  13
BRANCH  11  17
ATOM     17  N   UNL     1       6.970   6.672  17.336  0.00  0.00    +0.000 N 
ATOM     18  C   UNL     1       7.838   7.425  18.093  0.00  0.00    +0.000 C 
ATOM     19  O   UNL     1       8.508   6.970  19.011  0.00  0.00    +0.000 OA
ATOM     20  H   UNL     1       6.552   7.163  16.548  0.00  0.00    +0.000 HD
BRANCH  18  21
ATOM     21  C   UNL     1       7.862   8.909  17.707  0.00  0.00    +0.000 C 
BRANCH  21  22
ATOM     22  N   UNL     1       8.772   9.667  18.592  0.00  0.00    +0.000 NA
ATOM     23  H   UNL     1       8.496   9.494  19.559  0.00  0.00    +0.000 HD
ATOM     24  H   UNL     1       8.593  10.662  18.443  0.00  0.00    +0.000 HD
ENDBRANCH  21  22
ENDBRANCH  18  21
ENDBRANCH  11  17
TORSDOF 4
ENDMDL
MODEL 2
REMARK VINA RESULT:      -6.3      3.407      5.148
REMARK  Name = 
REMARK  9 active torsions:
REMARK  status: ('A' for Active; 'I' for Inactive)
REMARK    1  A    between atoms: C_1  and  C_2
REMARK    2  A    between atoms: C_2  and  C_3
REMARK    3  A    between atoms: C_7  and  C_8
REMARK    4  A    between atoms: C_8  and  C_9
REMARK    5  A    between atoms: C_8  and  C_10
REMARK    6  A    between atoms: C_8  and  C_11
REMARK    7  A    between atoms: C_15  and  N_16
REMARK    8  A    between atoms: C_17  and  C_19
REMARK    9  A    between atoms: C_19  and  N_20
REMARK                            x       y       z     vdW  Elec       q    Type
REMARK                         _______ _______ _______ _____ _____    ______ ____
ROOT
ATOM      1  C   UNL     1       3.726   2.759  20.235  0.00  0.00    +0.000 C 
ATOM      2  C   UNL     1       3.561   3.853  19.164  0.00  0.00    +0.000 C 
ATOM      3  C   UNL     1       2.719   3.252  18.023  0.00  0.00    +0.000 C 
ATOM      4  C   UNL     1       2.838   5.078  19.769  0.00  0.00    +0.000 C 
ATOM      5  C   UNL     1       2.933   6.324  18.918  0.00  0.00    +0.000 A 
ATOM      6  N   UNL     1       2.033   7.294  19.194  0.00  0.00    +0.000 NA
ATOM      7  C   UNL     1       2.092   8.433  18.475  0.00  0.00    +0.000 A 
ATOM      8  N   UNL     1       3.021   8.667  17.530  0.00  0.00    +0.000 NA
ATOM      9  C   UNL     1       3.905   7.682  17.287  0.00  0.00    +0.000 A 
ATOM     10  C   UNL     1       3.916   6.474  17.955  0.00  0.00    +0.000 A 
ATOM     11  C   UNL     1       4.929   5.414  17.635  0.00  0.00    +0.000 C 
ATOM     12  C   UNL     1       4.965   4.309  18.701  0.00  0.00    +0.000 C 
ENDROOT
BRANCH   7  13
ATOM     13  C   UNL     1       1.084   9.538  18.786  0.00  0.00    +0.000 C 
ATOM     14  C   UNL     1       0.620   9.401  20.245  0.00  0.00    +0.000 C 
ATOM     15  C   UNL     1       1.723  10.926  18.584  0.00  0.00    +0.000 C 
ATOM     16  C   UNL     1      -0.145   9.441  17.860  0.00  0.00    +0.000 C 
ENDBRANCH   7  13
BRANCH  11  17
ATOM     17  N   UNL     1       4.726   4.878  16.300  0.00  0.00    +0.000 N 
ATOM     18  C   UNL     1       5.657   5.000  15.294  0.00  0.00    +0.000 C 
ATOM     19  O   UNL     1       6.671   5.680  15.386  0.00  0.00    +0.000 OA
ATOM     20  H   UNL     1       3.983   4.207  16.118  0.00  0.00    +0.000 HD
BRANCH  18  21
ATOM     21  C   UNL     1       5.287   4.233  14.019  0.00  0.00    +0.000 C 
BRANCH  21  22
ATOM     22  N   UNL     1       6.466   3.532  13.468  0.00  0.00    +0.000 NA
ATOM     23  H   UNL     1       6.257   3.262  12.505  0.00  0.00    +0.000 HD
ATOM     24  H   UNL     1       6.566   2.648  13.971  0.00  0.00    +0.000 HD
ENDBRANCH  21  22
ENDBRANCH  18  21
ENDBRANCH  11  17
TORSDOF 4
ENDMDL
MODEL 3
REMARK VINA RESULT:      -6.3      2.429      4.119
REMARK  Name = 
REMARK  9 active torsions:
REMARK  status: ('A' for Active; 'I' for Inactive)
REMARK    1  A    between atoms: C_1  and  C_2
REMARK    2  A    between atoms: C_2  and  C_3
REMARK    3  A    between atoms: C_7  and  C_8
REMARK    4  A    between atoms: C_8  and  C_9
REMARK    5  A    between atoms: C_8  and  C_10
REMARK    6  A    between atoms: C_8  and  C_11
REMARK    7  A    between atoms: C_15  and  N_16
REMARK    8  A    between atoms: C_17  and  C_19
REMARK    9  A    between atoms: C_19  and  N_20
REMARK                            x       y       z     vdW  Elec       q    Type
REMARK                         _______ _______ _______ _____ _____    ______ ____
ROOT
ATOM      1  C   UNL     1       8.217   6.854  18.807  0.00  0.00    +0.000 C 
ATOM      2  C   UNL     1       7.205   5.850  18.224  0.00  0.00    +0.000 C 
ATOM      3  C   UNL     1       7.969   4.541  17.946  0.00  0.00    +0.000 C 
ATOM      4  C   UNL     1       6.069   5.595  19.240  0.00  0.00    +0.000 C 
ATOM      5  C   UNL     1       4.861   4.909  18.646  0.00  0.00    +0.000 A 
ATOM      6  N   UNL     1       4.017   4.335  19.531  0.00  0.00    +0.000 NA
ATOM      7  C   UNL     1       2.914   3.728  19.049  0.00  0.00    +0.000 A 
ATOM      8  N   UNL     1       2.592   3.699  17.742  0.00  0.00    +0.000 NA
ATOM      9  C   UNL     1       3.453   4.287  16.891  0.00  0.00    +0.000 A 
ATOM     10  C   UNL     1       4.617   4.918  17.283  0.00  0.00    +0.000 A 
ATOM     11  C   UNL     1       5.536   5.553  16.282  0.00  0.00    +0.000 C 
ATOM     12  C   UNL     1       6.577   6.464  16.950  0.00  0.00    +0.000 C 
ENDROOT
BRANCH   7  13
ATOM     13  C   UNL     1       1.949   3.084  20.043  0.00  0.00    +0.000 C 
ATOM     14  C   UNL     1       0.906   4.125  20.481  0.00  0.00    +0.000 C 
ATOM     15  C   UNL     1       1.230   1.882  19.400  0.00  0.00    +0.000 C 
ATOM     16  C   UNL     1       2.701   2.576  21.290  0.00  0.00    +0.000 C 
ENDBRANCH   7  13
BRANCH  11  17
ATOM     17  N   UNL     1       6.154   4.555  15.427  0.00  0.00    +0.000 N 
ATOM     18  C   UNL     1       5.754   4.328  14.129  0.00  0.00    +0.000 C 
ATOM     19  O   UNL     1       4.765   4.843  13.624  0.00  0.00    +0.000 OA
ATOM     20  H   UNL     1       7.044   4.132  15.681  0.00  0.00    +0.000 HD
BRANCH  18  21
ATOM     21  C   UNL     1       6.644   3.331  13.378  0.00  0.00    +0.000 C 
BRANCH  21  22
ATOM     22  N   UNL     1       5.924   2.750  12.225  0.00  0.00    +0.000 NA
ATOM     23  H   UNL     1       5.675   3.509  11.588  0.00  0.00    +0.000 HD
ATOM     24  H   UNL     1       5.029   2.392  12.565  0.00  0.00    +0.000 HD
ENDBRANCH  21  22
ENDBRANCH  18  21
ENDBRANCH  11  17
TORSDOF 4
ENDMDL
MODEL 4
REMARK VINA RESULT:      -6.3      2.880      6.122
REMARK  Name = 
REMARK  9 active torsions:
REMARK  status: ('A' for Active; 'I' for Inactive)
REMARK    1  A    between atoms: C_1  and  C_2
REMARK    2  A    between atoms: C_2  and  C_3
REMARK    3  A    between atoms: C_7  and  C_8
REMARK    4  A    between atoms: C_8  and  C_9
REMARK    5  A    between atoms: C_8  and  C_10
REMARK    6  A    between atoms: C_8  and  C_11
REMARK    7  A    between atoms: C_15  and  N_16
REMARK    8  A    between atoms: C_17  and  C_19
REMARK    9  A    between atoms: C_19  and  N_20
REMARK                            x       y       z     vdW  Elec       q    Type
REMARK                         _______ _______ _______ _____ _____    ______ ____
ROOT
ATOM      1  C   UNL     1       1.245   2.345  20.506  0.00  0.00    +0.000 C 
ATOM      2  C   UNL     1       2.016   3.663  20.299  0.00  0.00    +0.000 C 
ATOM      3  C   UNL     1       2.589   4.076  21.668  0.00  0.00    +0.000 C 
ATOM      4  C   UNL     1       3.164   3.448  19.287  0.00  0.00    +0.000 C 
ATOM      5  C   UNL     1       3.755   4.733  18.754  0.00  0.00    +0.000 A 
ATOM      6  N   UNL     1       4.972   4.625  18.176  0.00  0.00    +0.000 NA
ATOM      7  C   UNL     1       5.531   5.741  17.668  0.00  0.00    +0.000 A 
ATOM      8  N   UNL     1       4.926   6.943  17.671  0.00  0.00    +0.000 NA
ATOM      9  C   UNL     1       3.713   7.012  18.249  0.00  0.00    +0.000 A 
ATOM     10  C   UNL     1       3.064   5.932  18.813  0.00  0.00    +0.000 A 
ATOM     11  C   UNL     1       1.711   6.076  19.445  0.00  0.00    +0.000 C 
ATOM     12  C   UNL     1       1.048   4.715  19.708  0.00  0.00    +0.000 C 
ENDROOT
BRANCH   7  13
ATOM     13  C   UNL     1       6.903   5.626  17.004  0.00  0.00    +0.000 C 
ATOM     14  C   UNL     1       7.615   6.986  17.077  0.00  0.00    +0.000 C 
ATOM     15  C   UNL     1       7.761   4.563  17.718  0.00  0.00    +0.000 C 
ATOM     16  C   UNL     1       6.767   5.212  15.525  0.00  0.00    +0.000 C 
ENDBRANCH   7  13
BRANCH  11  17
ATOM     17  N   UNL     1       1.774   6.892  20.644  0.00  0.00    +0.000 N 
ATOM     18  C   UNL     1       1.428   8.224  20.664  0.00  0.00    +0.000 C 
ATOM     19  O   UNL     1       1.167   8.873  19.659  0.00  0.00    +0.000 OA
ATOM     20  H   UNL     1       1.872   6.461  21.561  0.00  0.00    +0.000 HD
BRANCH  18  21
ATOM     21  C   UNL     1       1.436   8.841  22.068  0.00  0.00    +0.000 C 
BRANCH  21  22
ATOM     22  N   UNL     1       0.950  10.236  22.031  0.00  0.00    +0.000 NA
ATOM     23  H   UNL     1      -0.031  10.241  22.315  0.00  0.00    +0.000 HD
ATOM     24  H   UNL     1       0.941  10.537  21.054  0.00  0.00    +0.000 HD
ENDBRANCH  21  22
ENDBRANCH  18  21
ENDBRANCH  11  17
TORSDOF 4
ENDMDL
MODEL 5
REMARK VINA RESULT:      -6.1      3.377      5.460
REMARK  Name = 
REMARK  9 active torsions:
REMARK  status: ('A' for Active; 'I' for Inactive)
REMARK    1  A    between atoms: C_1  and  C_2
REMARK    2  A    between atoms: C_2  and  C_3
REMARK    3  A    between atoms: C_7  and  C_8
REMARK    4  A    between atoms: C_8  and  C_9
REMARK    5  A    between atoms: C_8  and  C_10
REMARK    6  A    between atoms: C_8  and  C_11
REMARK    7  A    between atoms: C_15  and  N_16
REMARK    8  A    between atoms: C_17  and  C_19
REMARK    9  A    between atoms: C_19  and  N_20
REMARK                            x       y       z     vdW  Elec       q    Type
REMARK                         _______ _______ _______ _____ _____    ______ ____
ROOT
ATOM      1  C   UNL     1       5.184   5.963  16.009  0.00  0.00    +0.000 C 
ATOM      2  C   UNL     1       4.565   5.758  17.405  0.00  0.00    +0.000 C 
ATOM      3  C   UNL     1       5.728   5.631  18.406  0.00  0.00    +0.000 C 
ATOM      4  C   UNL     1       3.679   6.971  17.771  0.00  0.00    +0.000 C 
ATOM      5  C   UNL     1       2.762   6.723  18.946  0.00  0.00    +0.000 A 
ATOM      6  N   UNL     1       2.253   7.827  19.538  0.00  0.00    +0.000 NA
ATOM      7  C   UNL     1       1.413   7.655  20.578  0.00  0.00    +0.000 A 
ATOM      8  N   UNL     1       1.026   6.447  21.030  0.00  0.00    +0.000 NA
ATOM      9  C   UNL     1       1.547   5.371  20.413  0.00  0.00    +0.000 A 
ATOM     10  C   UNL     1       2.429   5.441  19.352  0.00  0.00    +0.000 A 
ATOM     11  C   UNL     1       2.976   4.202  18.708  0.00  0.00    +0.000 C 
ATOM     12  C   UNL     1       3.662   4.502  17.367  0.00  0.00    +0.000 C 
ENDROOT
BRANCH   7  13
ATOM     13  C   UNL     1       0.826   8.897  21.247  0.00  0.00    +0.000 C 
ATOM     14  C   UNL     1      -0.604   8.589  21.718  0.00  0.00    +0.000 C 
ATOM     15  C   UNL     1       1.682   9.314  22.459  0.00  0.00    +0.000 C 
ATOM     16  C   UNL     1       0.784  10.084  20.264  0.00  0.00    +0.000 C 
ENDBRANCH   7  13
BRANCH  11  17
ATOM     17  N   UNL     1       3.847   3.477  19.616  0.00  0.00    +0.000 N 
ATOM     18  C   UNL     1       4.050   2.119  19.538  0.00  0.00    +0.000 C 
ATOM     19  O   UNL     1       3.419   1.380  18.793  0.00  0.00    +0.000 OA
ATOM     20  H   UNL     1       4.507   3.976  20.210  0.00  0.00    +0.000 HD
BRANCH  18  21
ATOM     21  C   UNL     1       5.119   1.600  20.507  0.00  0.00    +0.000 C 
BRANCH  21  22
ATOM     22  N   UNL     1       5.515   0.218  20.160  0.00  0.00    +0.000 NA
ATOM     23  H   UNL     1       6.081  -0.154  20.925  0.00  0.00    +0.000 HD
ATOM     24  H   UNL     1       6.154   0.269  19.363  0.00  0.00    +0.000 HD
ENDBRANCH  21  22
ENDBRANCH  18  21
ENDBRANCH  11  17
TORSDOF 4
ENDMDL
MODEL 6
REMARK VINA RESULT:      -6.1      2.348      4.039
REMARK  Name = 
REMARK  9 active torsions:
REMARK  status: ('A' for Active; 'I' for Inactive)
REMARK    1  A    between atoms: C_1  and  C_2
REMARK    2  A    between atoms: C_2  and  C_3
REMARK    3  A    between atoms: C_7  and  C_8
REMARK    4  A    between atoms: C_8  and  C_9
REMARK    5  A    between atoms: C_8  and  C_10
REMARK    6  A    between atoms: C_8  and  C_11
REMARK    7  A    between atoms: C_15  and  N_16
REMARK    8  A    between atoms: C_17  and  C_19
REMARK    9  A    between atoms: C_19  and  N_20
REMARK                            x       y       z     vdW  Elec       q    Type
REMARK                         _______ _______ _______ _____ _____    ______ ____
ROOT
ATOM      1  C   UNL     1       8.126   6.736  18.666  0.00  0.00    +0.000 C 
ATOM      2  C   UNL     1       7.059   5.765  18.126  0.00  0.00    +0.000 C 
ATOM      3  C   UNL     1       7.775   4.445  17.783  0.00  0.00    +0.000 C 
ATOM      4  C   UNL     1       5.977   5.518  19.202  0.00  0.00    +0.000 C 
ATOM      5  C   UNL     1       4.722   4.869  18.667  0.00  0.00    +0.000 A 
ATOM      6  N   UNL     1       3.916   4.298  19.590  0.00  0.00    +0.000 NA
ATOM      7  C   UNL     1       2.773   3.725  19.162  0.00  0.00    +0.000 A 
ATOM      8  N   UNL     1       2.377   3.726  17.877  0.00  0.00    +0.000 NA
ATOM      9  C   UNL     1       3.201   4.309  16.986  0.00  0.00    +0.000 A 
ATOM     10  C   UNL     1       4.400   4.907  17.321  0.00  0.00    +0.000 A 
ATOM     11  C   UNL     1       5.275   5.539  16.279  0.00  0.00    +0.000 C 
ATOM     12  C   UNL     1       6.373   6.415  16.900  0.00  0.00    +0.000 C 
ENDROOT
BRANCH   7  13
ATOM     13  C   UNL     1       1.853   3.085  20.201  0.00  0.00    +0.000 C 
ATOM     14  C   UNL     1       1.167   1.858  19.580  0.00  0.00    +0.000 C 
ATOM     15  C   UNL     1       2.658   2.646  21.440  0.00  0.00    +0.000 C 
ATOM     16  C   UNL     1       0.771   4.080  20.665  0.00  0.00    +0.000 C 
ENDBRANCH   7  13
BRANCH  11  17
ATOM     17  N   UNL     1       5.819   4.542  15.373  0.00  0.00    +0.000 N 
ATOM     18  C   UNL     1       6.364   4.858  14.150  0.00  0.00    +0.000 C 
ATOM     19  O   UNL     1       6.320   5.978  13.656  0.00  0.00    +0.000 OA
ATOM     20  H   UNL     1       6.013   3.597  15.698  0.00  0.00    +0.000 HD
BRANCH  18  21
ATOM     21  C   UNL     1       7.003   3.662  13.435  0.00  0.00    +0.000 C 
BRANCH  21  22
ATOM     22  N   UNL     1       6.046   3.039  12.496  0.00  0.00    +0.000 NA
ATOM     23  H   UNL     1       5.220   3.637  12.438  0.00  0.00    +0.000 HD
ATOM     24  H   UNL     1       5.712   2.172  12.923  0.00  0.00    +0.000 HD
ENDBRANCH  21  22
ENDBRANCH  18  21
ENDBRANCH  11  17
TORSDOF 4
ENDMDL
MODEL 7
REMARK VINA RESULT:      -6.1      3.375      5.147
REMARK  Name = 
REMARK  9 active torsions:
REMARK  status: ('A' for Active; 'I' for Inactive)
REMARK    1  A    between atoms: C_1  and  C_2
REMARK    2  A    between atoms: C_2  and  C_3
REMARK    3  A    between atoms: C_7  and  C_8
REMARK    4  A    between atoms: C_8  and  C_9
REMARK    5  A    between atoms: C_8  and  C_10
REMARK    6  A    between atoms: C_8  and  C_11
REMARK    7  A    between atoms: C_15  and  N_16
REMARK    8  A    between atoms: C_17  and  C_19
REMARK    9  A    between atoms: C_19  and  N_20
REMARK                            x       y       z     vdW  Elec       q    Type
REMARK                         _______ _______ _______ _____ _____    ______ ____
ROOT
ATOM      1  C   UNL     1       3.467   2.474  20.008  0.00  0.00    +0.000 C 
ATOM      2  C   UNL     1       3.410   3.601  18.960  0.00  0.00    +0.000 C 
ATOM      3  C   UNL     1       2.575   3.082  17.774  0.00  0.00    +0.000 C 
ATOM      4  C   UNL     1       2.743   4.855  19.569  0.00  0.00    +0.000 C 
ATOM      5  C   UNL     1       2.948   6.112  18.755  0.00  0.00    +0.000 A 
ATOM      6  N   UNL     1       2.101   7.130  19.023  0.00  0.00    +0.000 NA
ATOM      7  C   UNL     1       2.258   8.279  18.335  0.00  0.00    +0.000 A 
ATOM      8  N   UNL     1       3.234   8.477  17.430  0.00  0.00    +0.000 NA
ATOM      9  C   UNL     1       4.063   7.443  17.194  0.00  0.00    +0.000 A 
ATOM     10  C   UNL     1       3.974   6.221  17.831  0.00  0.00    +0.000 A 
ATOM     11  C   UNL     1       4.929   5.107  17.521  0.00  0.00    +0.000 C 
ATOM     12  C   UNL     1       4.857   3.977  18.559  0.00  0.00    +0.000 C 
ENDROOT
BRANCH   7  13
ATOM     13  C   UNL     1       1.310   9.439  18.639  0.00  0.00    +0.000 C 
ATOM     14  C   UNL     1       0.057   9.311  17.757  0.00  0.00    +0.000 C 
ATOM     15  C   UNL     1       0.892   9.421  20.122  0.00  0.00    +0.000 C 
ATOM     16  C   UNL     1       1.987  10.794  18.352  0.00  0.00    +0.000 C 
ENDBRANCH   7  13
BRANCH  11  17
ATOM     17  N   UNL     1       4.743   4.616  16.166  0.00  0.00    +0.000 N 
ATOM     18  C   UNL     1       5.786   4.418  15.291  0.00  0.00    +0.000 C 
ATOM     19  O   UNL     1       6.939   4.761  15.519  0.00  0.00    +0.000 OA
ATOM     20  H   UNL     1       3.860   4.197  15.883  0.00  0.00    +0.000 HD
BRANCH  18  21
ATOM     21  C   UNL     1       5.364   3.760  13.971  0.00  0.00    +0.000 C 
BRANCH  21  22
ATOM     22  N   UNL     1       6.544   3.466  13.131  0.00  0.00    +0.000 NA
ATOM     23  H   UNL     1       7.369   3.857  13.588  0.00  0.00    +0.000 HD
ATOM     24  H   UNL     1       6.449   3.999  12.264  0.00  0.00    +0.000 HD
ENDBRANCH  21  22
ENDBRANCH  18  21
ENDBRANCH  11  17
TORSDOF 4
ENDMDL
MODEL 8
REMARK VINA RESULT:      -6.1      3.379      5.427
REMARK  Name = 
REMARK  9 active torsions:
REMARK  status: ('A' for Active; 'I' for Inactive)
REMARK    1  A    between atoms: C_1  and  C_2
REMARK    2  A    between atoms: C_2  and  C_3
REMARK    3  A    between atoms: C_7  and  C_8
REMARK    4  A    between atoms: C_8  and  C_9
REMARK    5  A    between atoms: C_8  and  C_10
REMARK    6  A    between atoms: C_8  and  C_11
REMARK    7  A    between atoms: C_15  and  N_16
REMARK    8  A    between atoms: C_17  and  C_19
REMARK    9  A    between atoms: C_19  and  N_20
REMARK                            x       y       z     vdW  Elec       q    Type
REMARK                         _______ _______ _______ _____ _____    ______ ____
ROOT
ATOM      1  C   UNL     1       5.116   6.186  15.877  0.00  0.00    +0.000 C 
ATOM      2  C   UNL     1       4.524   5.941  17.278  0.00  0.00    +0.000 C 
ATOM      3  C   UNL     1       5.707   5.801  18.255  0.00  0.00    +0.000 C 
ATOM      4  C   UNL     1       3.634   7.134  17.691  0.00  0.00    +0.000 C 
ATOM      5  C   UNL     1       2.741   6.848  18.876  0.00  0.00    +0.000 A 
ATOM      6  N   UNL     1       2.232   7.931  19.504  0.00  0.00    +0.000 NA
ATOM      7  C   UNL     1       1.413   7.725  20.555  0.00  0.00    +0.000 A 
ATOM      8  N   UNL     1       1.047   6.503  20.983  0.00  0.00    +0.000 NA
ATOM      9  C   UNL     1       1.567   5.448  20.330  0.00  0.00    +0.000 A 
ATOM     10  C   UNL     1       2.428   5.553  19.255  0.00  0.00    +0.000 A 
ATOM     11  C   UNL     1       2.975   4.336  18.570  0.00  0.00    +0.000 C 
ATOM     12  C   UNL     1       3.634   4.676  17.225  0.00  0.00    +0.000 C 
ENDROOT
BRANCH   7  13
ATOM     13  C   UNL     1       0.827   8.944  21.265  0.00  0.00    +0.000 C 
ATOM     14  C   UNL     1       1.724   9.314  22.457  0.00  0.00    +0.000 C 
ATOM     15  C   UNL     1       0.743  10.144  20.300  0.00  0.00    +0.000 C 
ATOM     16  C   UNL     1      -0.596   8.650  21.782  0.00  0.00    +0.000 C 
ENDBRANCH   7  13
BRANCH  11  17
ATOM     17  N   UNL     1       3.870   3.598  19.445  0.00  0.00    +0.000 N 
ATOM     18  C   UNL     1       3.456   2.544  20.226  0.00  0.00    +0.000 C 
ATOM     19  O   UNL     1       2.283   2.219  20.360  0.00  0.00    +0.000 OA
ATOM     20  H   UNL     1       4.880   3.693  19.354  0.00  0.00    +0.000 HD
BRANCH  18  21
ATOM     21  C   UNL     1       4.601   1.830  20.953  0.00  0.00    +0.000 C 
BRANCH  21  22
ATOM     22  N   UNL     1       5.303   0.901  20.042  0.00  0.00    +0.000 NA
ATOM     23  H   UNL     1       6.280   0.843  20.335  0.00  0.00    +0.000 HD
ATOM     24  H   UNL     1       5.334   1.337  19.117  0.00  0.00    +0.000 HD
ENDBRANCH  21  22
ENDBRANCH  18  21
ENDBRANCH  11  17
TORSDOF 4
ENDMDL
MODEL 9
REMARK VINA RESULT:      -6.0      3.226      4.829
REMARK  Name = 
REMARK  9 active torsions:
REMARK  status: ('A' for Active; 'I' for Inactive)
REMARK    1  A    between atoms: C_1  and  C_2
REMARK    2  A    between atoms: C_2  and  C_3
REMARK    3  A    between atoms: C_7  and  C_8
REMARK    4  A    between atoms: C_8  and  C_9
REMARK    5  A    between atoms: C_8  and  C_10
REMARK    6  A    between atoms: C_8  and  C_11
REMARK    7  A    between atoms: C_15  and  N_16
REMARK    8  A    between atoms: C_17  and  C_19
REMARK    9  A    between atoms: C_19  and  N_20
REMARK                            x       y       z     vdW  Elec       q    Type
REMARK                         _______ _______ _______ _____ _____    ______ ____
ROOT
ATOM      1  C   UNL     1       2.807   2.040  19.322  0.00  0.00    +0.000 C 
ATOM      2  C   UNL     1       3.111   3.290  18.474  0.00  0.00    +0.000 C 
ATOM      3  C   UNL     1       2.645   2.990  17.036  0.00  0.00    +0.000 C 
ATOM      4  C   UNL     1       2.344   4.508  19.036  0.00  0.00    +0.000 C 
ATOM      5  C   UNL     1       2.832   5.835  18.503  0.00  0.00    +0.000 A 
ATOM      6  N   UNL     1       1.986   6.878  18.658  0.00  0.00    +0.000 NA
ATOM      7  C   UNL     1       2.387   8.087  18.216  0.00  0.00    +0.000 A 
ATOM      8  N   UNL     1       3.594   8.315  17.668  0.00  0.00    +0.000 NA
ATOM      9  C   UNL     1       4.413   7.255  17.537  0.00  0.00    +0.000 A 
ATOM     10  C   UNL     1       4.090   5.975  17.940  0.00  0.00    +0.000 A 
ATOM     11  C   UNL     1       5.048   4.835  17.763  0.00  0.00    +0.000 C 
ATOM     12  C   UNL     1       4.625   3.594  18.565  0.00  0.00    +0.000 C 
ENDROOT
BRANCH   7  13
ATOM     13  C   UNL     1       1.439   9.272  18.394  0.00  0.00    +0.000 C 
ATOM     14  C   UNL     1       2.171  10.566  18.003  0.00  0.00    +0.000 C 
ATOM     15  C   UNL     1       0.190   9.106  17.507  0.00  0.00    +0.000 C 
ATOM     16  C   UNL     1       0.970   9.387  19.859  0.00  0.00    +0.000 C 
ENDBRANCH   7  13
BRANCH  11  17
ATOM     17  N   UNL     1       5.253   4.532  16.358  0.00  0.00    +0.000 N 
ATOM     18  C   UNL     1       6.500   4.411  15.790  0.00  0.00    +0.000 C 
ATOM     19  O   UNL     1       7.542   4.677  16.377  0.00  0.00    +0.000 OA
ATOM     20  H   UNL     1       4.486   4.188  15.784  0.00  0.00    +0.000 HD
BRANCH  18  21
ATOM     21  C   UNL     1       6.469   3.947  14.329  0.00  0.00    +0.000 C 
BRANCH  21  22
ATOM     22  N   UNL     1       5.129   4.155  13.741  0.00  0.00    +0.000 NA
ATOM     23  H   UNL     1       4.887   3.327  13.194  0.00  0.00    +0.000 HD
ATOM     24  H   UNL     1       5.204   4.908  13.055  0.00  0.00    +0.000 HD
ENDBRANCH  21  22
ENDBRANCH  18  21
ENDBRANCH  11  17
TORSDOF 4
ENDMDL
