MODEL 1
REMARK VINA RESULT:      -5.9      0.000      0.000
REMARK  Name = 
REMARK  9 active torsions:
REMARK  status: ('A' for Active; 'I' for Inactive)
REMARK    1  A    between atoms: C_1  and  C_2
REMARK    2  A    between atoms: C_2  and  C_3
REMARK    3  A    between atoms: C_3  and  C_4
REMARK    4  A    between atoms: N_8  and  C_9
REMARK    5  A    between atoms: C_9  and  C_10
REMARK    6  A    between atoms: C_10  and  C_11
REMARK    7  A    between atoms: C_11  and  N_12
REMARK    8  A    between atoms: N_12  and  S_13
REMARK    9  A    between atoms: S_13  and  C_14
REMARK                            x       y       z     vdW  Elec       q    Type
REMARK                         _______ _______ _______ _____ _____    ______ ____
ROOT
ATOM      1  C   UNL     1       4.020   4.833  17.599  0.00  0.00    +0.000 C 
ENDROOT
BRANCH   1   6
ATOM      2  C   UNL     1       6.088   4.570  16.126  0.00  0.00    +0.000 A 
ATOM      3  N   UNL     1       7.396   4.548  16.311  0.00  0.00    +0.000 NA
ATOM      4  C   UNL     1       7.599   4.680  17.654  0.00  0.00    +0.000 A 
ATOM      5  C   UNL     1       6.403   4.814  18.309  0.00  0.00    +0.000 A 
ATOM      6  N   UNL     1       5.443   4.763  17.330  0.00  0.00    +0.000 N 
BRANCH   2   7
ATOM      7  C   UNL     1       5.440   4.416  14.784  0.00  0.00    +0.000 C 
BRANCH   7   9
ATOM      8  C   UNL     1       5.788   3.416  12.492  0.00  0.00    +0.000 C 
ATOM      9  C   UNL     1       6.461   4.033  13.709  0.00  0.00    +0.000 C 
ENDBRANCH   7   9
ENDBRANCH   2   7
ENDBRANCH   1   6
BRANCH   1  10
ATOM     10  C   UNL     1       3.272   3.504  17.439  0.00  0.00    +0.000 C 
BRANCH  10  11
ATOM     11  C   UNL     1       3.189   2.666  18.713  0.00  0.00    +0.000 C 
BRANCH  11  12
ATOM     12  N   UNL     1       3.408   3.525  19.888  0.00  0.00    +0.000 NA
ATOM     13  H   UNL     1       3.931   4.386  19.702  0.00  0.00    +0.000 HD
BRANCH  12  14
ATOM     14  S   UNL     1       2.052   3.940  20.805  0.00  0.00    +0.000 S 
ATOM     15  C   UNL     1       0.738   3.055  19.990  0.00  0.00    +0.000 C 
ATOM     16  O   UNL     1       2.276   3.349  22.105  0.00  0.00    +0.000 OA
ATOM     17  O   UNL     1       1.845   5.362  20.649  0.00  0.00    +0.000 OA
ENDBRANCH  12  14
ENDBRANCH  11  12
ENDBRANCH  10  11
ENDBRANCH   1  10
TORSDOF 7
ENDMDL
MODEL 2
REMARK VINA RESULT:      -5.9      3.683      5.935
REMARK  Name = 
REMARK  9 active torsions:
REMARK  status: ('A' for Active; 'I' for Inactive)
REMARK    1  A    between atoms: C_1  and  C_2
REMARK    2  A    between atoms: C_2  and  C_3
REMARK    3  A    between atoms: C_3  and  C_4
REMARK    4  A    between atoms: N_8  and  C_9
REMARK    5  A    between atoms: C_9  and  C_10
REMARK    6  A    between atoms: C_10  and  C_11
REMARK    7  A    between atoms: C_11  and  N_12
REMARK    8  A    between atoms: N_12  and  S_13
REMARK    9  A    between atoms: S_13  and  C_14
REMARK                            x       y       z     vdW  Elec       q    Type
REMARK                         _______ _______ _______ _____ _____    ______ ____
ROOT
ATOM      1  C   UNL     1       4.310   3.294  18.977  0.00  0.00    +0.000 C 
ENDROOT
BRANCH   1   6
ATOM      2  C   UNL     1       2.178   4.552  19.600  0.00  0.00    +0.000 A 
ATOM      3  N   UNL     1       1.239   4.442  20.523  0.00  0.00    +0.000 NA
ATOM      4  C   UNL     1       1.590   3.382  21.307  0.00  0.00    +0.000 A 
ATOM      5  C   UNL     1       2.747   2.809  20.849  0.00  0.00    +0.000 A 
ATOM      6  N   UNL     1       3.109   3.545  19.749  0.00  0.00    +0.000 N 
BRANCH   2   7
ATOM      7  C   UNL     1       2.187   5.624  18.554  0.00  0.00    +0.000 C 
BRANCH   7   9
ATOM      8  C   UNL     1       2.577   8.077  18.092  0.00  0.00    +0.000 C 
ATOM      9  C   UNL     1       2.475   7.000  19.163  0.00  0.00    +0.000 C 
ENDBRANCH   7   9
ENDBRANCH   2   7
ENDBRANCH   1   6
BRANCH   1  10
ATOM     10  C   UNL     1       4.061   2.926  17.508  0.00  0.00    +0.000 C 
BRANCH  10  11
ATOM     11  C   UNL     1       4.605   3.936  16.501  0.00  0.00    +0.000 C 
BRANCH  11  12
ATOM     12  N   UNL     1       6.001   3.605  16.171  0.00  0.00    +0.000 NA
ATOM     13  H   UNL     1       6.142   3.219  15.233  0.00  0.00    +0.000 HD
BRANCH  12  14
ATOM     14  S   UNL     1       7.158   4.812  16.406  0.00  0.00    +0.000 S 
ATOM     15  C   UNL     1       6.241   6.076  17.263  0.00  0.00    +0.000 C 
ATOM     16  O   UNL     1       8.125   4.241  17.315  0.00  0.00    +0.000 OA
ATOM     17  O   UNL     1       7.545   5.298  15.101  0.00  0.00    +0.000 OA
ENDBRANCH  12  14
ENDBRANCH  11  12
ENDBRANCH  10  11
ENDBRANCH   1  10
TORSDOF 7
ENDMDL
MODEL 3
REMARK VINA RESULT:      -5.8      1.461      2.982
REMARK  Name = 
REMARK  9 active torsions:
REMARK  status: ('A' for Active; 'I' for Inactive)
REMARK    1  A    between atoms: C_1  and  C_2
REMARK    2  A    between atoms: C_2  and  C_3
REMARK    3  A    between atoms: C_3  and  C_4
REMARK    4  A    between atoms: N_8  and  C_9
REMARK    5  A    between atoms: C_9  and  C_10
REMARK    6  A    between atoms: C_10  and  C_11
REMARK    7  A    between atoms: C_11  and  N_12
REMARK    8  A    between atoms: N_12  and  S_13
REMARK    9  A    between atoms: S_13  and  C_14
REMARK                            x       y       z     vdW  Elec       q    Type
REMARK                         _______ _______ _______ _____ _____    ______ ____
ROOT
ATOM      1  C   UNL     1       4.711   3.743  17.049  0.00  0.00    +0.000 C 
ENDROOT
BRANCH   1   6
ATOM      2  C   UNL     1       6.958   4.790  16.440  0.00  0.00    +0.000 A 
ATOM      3  N   UNL     1       7.595   5.104  15.326  0.00  0.00    +0.000 NA
ATOM      4  C   UNL     1       6.760   4.775  14.297  0.00  0.00    +0.000 A 
ATOM      5  C   UNL     1       5.602   4.223  14.778  0.00  0.00    +0.000 A 
ATOM      6  N   UNL     1       5.738   4.217  16.143  0.00  0.00    +0.000 N 
BRANCH   2   7
ATOM      7  C   UNL     1       7.519   5.028  17.809  0.00  0.00    +0.000 C 
BRANCH   7   9
ATOM      8  C   UNL     1       6.636   7.366  17.451  0.00  0.00    +0.000 C 
ATOM      9  C   UNL     1       7.737   6.520  18.073  0.00  0.00    +0.000 C 
ENDBRANCH   7   9
ENDBRANCH   2   7
ENDBRANCH   1   6
BRANCH   1  10
ATOM     10  C   UNL     1       3.931   4.851  17.769  0.00  0.00    +0.000 C 
BRANCH  10  11
ATOM     11  C   UNL     1       4.173   4.920  19.275  0.00  0.00    +0.000 C 
BRANCH  11  12
ATOM     12  N   UNL     1       2.957   4.506  19.994  0.00  0.00    +0.000 NA
ATOM     13  H   UNL     1       2.081   4.678  19.494  0.00  0.00    +0.000 HD
BRANCH  12  14
ATOM     14  S   UNL     1       2.907   2.923  20.579  0.00  0.00    +0.000 S 
ATOM     15  C   UNL     1       1.761   2.128  19.472  0.00  0.00    +0.000 C 
ATOM     16  O   UNL     1       4.229   2.388  20.344  0.00  0.00    +0.000 OA
ATOM     17  O   UNL     1       2.340   2.973  21.908  0.00  0.00    +0.000 OA
ENDBRANCH  12  14
ENDBRANCH  11  12
ENDBRANCH  10  11
ENDBRANCH   1  10
TORSDOF 7
ENDMDL
MODEL 4
REMARK VINA RESULT:      -5.8      2.130      3.403
REMARK  Name = 
REMARK  9 active torsions:
REMARK  status: ('A' for Active; 'I' for Inactive)
REMARK    1  A    between atoms: C_1  and  C_2
REMARK    2  A    between atoms: C_2  and  C_3
REMARK    3  A    between atoms: C_3  and  C_4
REMARK    4  A    between atoms: N_8  and  C_9
REMARK    5  A    between atoms: C_9  and  C_10
REMARK    6  A    between atoms: C_10  and  C_11
REMARK    7  A    between atoms: C_11  and  N_12
REMARK    8  A    between atoms: N_12  and  S_13
REMARK    9  A    between atoms: S_13  and  C_14
REMARK                            x       y       z     vdW  Elec       q    Type
REMARK                         _______ _______ _______ _____ _____    ______ ____
ROOT
ATOM      1  C   UNL     1       4.814   5.176  18.646  0.00  0.00    +0.000 C 
ENDROOT
BRANCH   1   6
ATOM      2  C   UNL     1       6.964   5.593  17.336  0.00  0.00    +0.000 A 
ATOM      3  N   UNL     1       7.523   5.113  16.239  0.00  0.00    +0.000 NA
ATOM      4  C   UNL     1       6.655   4.188  15.735  0.00  0.00    +0.000 A 
ATOM      5  C   UNL     1       5.555   4.072  16.545  0.00  0.00    +0.000 A 
ATOM      6  N   UNL     1       5.764   4.955  17.574  0.00  0.00    +0.000 N 
BRANCH   2   7
ATOM      7  C   UNL     1       7.583   6.667  18.177  0.00  0.00    +0.000 C 
BRANCH   7   9
ATOM      8  C   UNL     1       8.406   9.055  18.204  0.00  0.00    +0.000 C 
ATOM      9  C   UNL     1       7.592   8.014  17.448  0.00  0.00    +0.000 C 
ENDBRANCH   7   9
ENDBRANCH   2   7
ENDBRANCH   1   6
BRANCH   1  10
ATOM     10  C   UNL     1       3.476   5.782  18.201  0.00  0.00    +0.000 C 
BRANCH  10  11
ATOM     11  C   UNL     1       2.379   4.757  17.922  0.00  0.00    +0.000 C 
BRANCH  11  12
ATOM     12  N   UNL     1       1.813   4.275  19.193  0.00  0.00    +0.000 NA
ATOM     13  H   UNL     1       0.979   4.776  19.511  0.00  0.00    +0.000 HD
BRANCH  12  14
ATOM     14  S   UNL     1       1.496   2.622  19.319  0.00  0.00    +0.000 S 
ATOM     15  C   UNL     1       2.915   1.886  18.534  0.00  0.00    +0.000 C 
ATOM     16  O   UNL     1       1.545   2.332  20.735  0.00  0.00    +0.000 OA
ATOM     17  O   UNL     1       0.314   2.349  18.535  0.00  0.00    +0.000 OA
ENDBRANCH  12  14
ENDBRANCH  11  12
ENDBRANCH  10  11
ENDBRANCH   1  10
TORSDOF 7
ENDMDL
MODEL 5
REMARK VINA RESULT:      -5.8      1.060      1.060
REMARK  Name = 
REMARK  9 active torsions:
REMARK  status: ('A' for Active; 'I' for Inactive)
REMARK    1  A    between atoms: C_1  and  C_2
REMARK    2  A    between atoms: C_2  and  C_3
REMARK    3  A    between atoms: C_3  and  C_4
REMARK    4  A    between atoms: N_8  and  C_9
REMARK    5  A    between atoms: C_9  and  C_10
REMARK    6  A    between atoms: C_10  and  C_11
REMARK    7  A    between atoms: C_11  and  N_12
REMARK    8  A    between atoms: N_12  and  S_13
REMARK    9  A    between atoms: S_13  and  C_14
REMARK                            x       y       z     vdW  Elec       q    Type
REMARK                         _______ _______ _______ _____ _____    ______ ____
ROOT
ATOM      1  C   UNL     1       4.095   4.637  17.173  0.00  0.00    +0.000 C 
ENDROOT
BRANCH   1   6
ATOM      2  C   UNL     1       6.351   4.909  16.010  0.00  0.00    +0.000 A 
ATOM      3  N   UNL     1       7.380   5.733  16.102  0.00  0.00    +0.000 NA
ATOM      4  C   UNL     1       7.088   6.605  17.111  0.00  0.00    +0.000 A 
ATOM      5  C   UNL     1       5.849   6.337  17.632  0.00  0.00    +0.000 A 
ATOM      6  N   UNL     1       5.374   5.268  16.916  0.00  0.00    +0.000 N 
BRANCH   2   7
ATOM      7  C   UNL     1       6.288   3.770  15.039  0.00  0.00    +0.000 C 
BRANCH   7   9
ATOM      8  C   UNL     1       6.228   3.487  12.531  0.00  0.00    +0.000 C 
ATOM      9  C   UNL     1       5.606   4.183  13.732  0.00  0.00    +0.000 C 
ENDBRANCH   7   9
ENDBRANCH   2   7
ENDBRANCH   1   6
BRANCH   1  10
ATOM     10  C   UNL     1       4.175   3.327  17.968  0.00  0.00    +0.000 C 
BRANCH  10  11
ATOM     11  C   UNL     1       4.485   3.506  19.452  0.00  0.00    +0.000 C 
BRANCH  11  12
ATOM     12  N   UNL     1       3.552   2.699  20.256  0.00  0.00    +0.000 NA
ATOM     13  H   UNL     1       3.989   2.146  20.998  0.00  0.00    +0.000 HD
BRANCH  12  14
ATOM     14  S   UNL     1       2.223   3.495  20.927  0.00  0.00    +0.000 S 
ATOM     15  C   UNL     1       0.901   3.066  19.814  0.00  0.00    +0.000 C 
ATOM     16  O   UNL     1       1.993   2.846  22.198  0.00  0.00    +0.000 OA
ATOM     17  O   UNL     1       2.484   4.914  20.843  0.00  0.00    +0.000 OA
ENDBRANCH  12  14
ENDBRANCH  11  12
ENDBRANCH  10  11
ENDBRANCH   1  10
TORSDOF 7
ENDMDL
MODEL 6
REMARK VINA RESULT:      -5.7      1.183      2.692
REMARK  Name = 
REMARK  9 active torsions:
REMARK  status: ('A' for Active; 'I' for Inactive)
REMARK    1  A    between atoms: C_1  and  C_2
REMARK    2  A    between atoms: C_2  and  C_3
REMARK    3  A    between atoms: C_3  and  C_4
REMARK    4  A    between atoms: N_8  and  C_9
REMARK    5  A    between atoms: C_9  and  C_10
REMARK    6  A    between atoms: C_10  and  C_11
REMARK    7  A    between atoms: C_11  and  N_12
REMARK    8  A    between atoms: N_12  and  S_13
REMARK    9  A    between atoms: S_13  and  C_14
REMARK                            x       y       z     vdW  Elec       q    Type
REMARK                         _______ _______ _______ _____ _____    ______ ____
ROOT
ATOM      1  C   UNL     1       4.768   4.034  17.996  0.00  0.00    +0.000 C 
ENDROOT
BRANCH   1   6
ATOM      2  C   UNL     1       7.036   4.811  17.120  0.00  0.00    +0.000 A 
ATOM      3  N   UNL     1       7.639   4.862  15.946  0.00  0.00    +0.000 NA
ATOM      4  C   UNL     1       6.747   4.384  15.030  0.00  0.00    +0.000 A 
ATOM      5  C   UNL     1       5.584   4.005  15.648  0.00  0.00    +0.000 A 
ATOM      6  N   UNL     1       5.778   4.261  16.982  0.00  0.00    +0.000 N 
BRANCH   2   7
ATOM      7  C   UNL     1       7.665   5.282  18.394  0.00  0.00    +0.000 C 
BRANCH   7   9
ATOM      8  C   UNL     1       6.956   7.516  17.453  0.00  0.00    +0.000 C 
ATOM      9  C   UNL     1       7.936   6.789  18.362  0.00  0.00    +0.000 C 
ENDBRANCH   7   9
ENDBRANCH   2   7
ENDBRANCH   1   6
BRANCH   1  10
ATOM     10  C   UNL     1       3.528   3.273  17.507  0.00  0.00    +0.000 C 
BRANCH  10  11
ATOM     11  C   UNL     1       2.960   2.275  18.513  0.00  0.00    +0.000 C 
BRANCH  11  12
ATOM     12  N   UNL     1       3.436   2.608  19.866  0.00  0.00    +0.000 NA
ATOM     13  H   UNL     1       4.343   3.081  19.900  0.00  0.00    +0.000 HD
BRANCH  12  14
ATOM     14  S   UNL     1       2.377   3.460  20.869  0.00  0.00    +0.000 S 
ATOM     15  C   UNL     1       0.785   3.109  20.152  0.00  0.00    +0.000 C 
ATOM     16  O   UNL     1       2.463   2.807  22.156  0.00  0.00    +0.000 OA
ATOM     17  O   UNL     1       2.677   4.865  20.716  0.00  0.00    +0.000 OA
ENDBRANCH  12  14
ENDBRANCH  11  12
ENDBRANCH  10  11
ENDBRANCH   1  10
TORSDOF 7
ENDMDL
MODEL 7
REMARK VINA RESULT:      -5.7      1.439      2.899
REMARK  Name = 
REMARK  9 active torsions:
REMARK  status: ('A' for Active; 'I' for Inactive)
REMARK    1  A    between atoms: C_1  and  C_2
REMARK    2  A    between atoms: C_2  and  C_3
REMARK    3  A    between atoms: C_3  and  C_4
REMARK    4  A    between atoms: N_8  and  C_9
REMARK    5  A    between atoms: C_9  and  C_10
REMARK    6  A    between atoms: C_10  and  C_11
REMARK    7  A    between atoms: C_11  and  N_12
REMARK    8  A    between atoms: N_12  and  S_13
REMARK    9  A    between atoms: S_13  and  C_14
REMARK                            x       y       z     vdW  Elec       q    Type
REMARK                         _______ _______ _______ _____ _____    ______ ____
ROOT
ATOM      1  C   UNL     1       4.707   4.035  17.877  0.00  0.00    +0.000 C 
ENDROOT
BRANCH   1   6
ATOM      2  C   UNL     1       7.001   4.768  17.030  0.00  0.00    +0.000 A 
ATOM      3  N   UNL     1       7.611   4.834  15.860  0.00  0.00    +0.000 NA
ATOM      4  C   UNL     1       6.709   4.408  14.929  0.00  0.00    +0.000 A 
ATOM      5  C   UNL     1       5.532   4.047  15.531  0.00  0.00    +0.000 A 
ATOM      6  N   UNL     1       5.728   4.259  16.873  0.00  0.00    +0.000 N 
BRANCH   2   7
ATOM      7  C   UNL     1       7.639   5.185  18.320  0.00  0.00    +0.000 C 
BRANCH   7   9
ATOM      8  C   UNL     1       6.939   7.434  17.409  0.00  0.00    +0.000 C 
ATOM      9  C   UNL     1       7.861   6.700  18.371  0.00  0.00    +0.000 C 
ENDBRANCH   7   9
ENDBRANCH   2   7
ENDBRANCH   1   6
BRANCH   1  10
ATOM     10  C   UNL     1       3.402   3.433  17.339  0.00  0.00    +0.000 C 
BRANCH  10  11
ATOM     11  C   UNL     1       2.710   2.465  18.296  0.00  0.00    +0.000 C 
BRANCH  11  12
ATOM     12  N   UNL     1       3.133   2.744  19.678  0.00  0.00    +0.000 NA
ATOM     13  H   UNL     1       3.940   3.368  19.764  0.00  0.00    +0.000 HD
BRANCH  12  14
ATOM     14  S   UNL     1       1.950   3.289  20.753  0.00  0.00    +0.000 S 
ATOM     15  C   UNL     1       2.096   5.060  20.636  0.00  0.00    +0.000 C 
ATOM     16  O   UNL     1       0.691   2.886  20.169  0.00  0.00    +0.000 OA
ATOM     17  O   UNL     1       2.339   2.858  22.076  0.00  0.00    +0.000 OA
ENDBRANCH  12  14
ENDBRANCH  11  12
ENDBRANCH  10  11
ENDBRANCH   1  10
TORSDOF 7
ENDMDL
MODEL 8
REMARK VINA RESULT:      -5.7      1.852      2.045
REMARK  Name = 
REMARK  9 active torsions:
REMARK  status: ('A' for Active; 'I' for Inactive)
REMARK    1  A    between atoms: C_1  and  C_2
REMARK    2  A    between atoms: C_2  and  C_3
REMARK    3  A    between atoms: C_3  and  C_4
REMARK    4  A    between atoms: N_8  and  C_9
REMARK    5  A    between atoms: C_9  and  C_10
REMARK    6  A    between atoms: C_10  and  C_11
REMARK    7  A    between atoms: C_11  and  N_12
REMARK    8  A    between atoms: N_12  and  S_13
REMARK    9  A    between atoms: S_13  and  C_14
REMARK                            x       y       z     vdW  Elec       q    Type
REMARK                         _______ _______ _______ _____ _____    ______ ____
ROOT
ATOM      1  C   UNL     1       4.916   3.787  17.793  0.00  0.00    +0.000 C 
ENDROOT
BRANCH   1   6
ATOM      2  C   UNL     1       6.294   4.908  15.960  0.00  0.00    +0.000 A 
ATOM      3  N   UNL     1       7.160   5.903  15.889  0.00  0.00    +0.000 NA
ATOM      4  C   UNL     1       7.313   6.374  17.161  0.00  0.00    +0.000 A 
ATOM      5  C   UNL     1       6.511   5.680  18.028  0.00  0.00    +0.000 A 
ATOM      6  N   UNL     1       5.848   4.759  17.257  0.00  0.00    +0.000 N 
BRANCH   2   7
ATOM      7  C   UNL     1       5.875   4.090  14.776  0.00  0.00    +0.000 C 
BRANCH   7   9
ATOM      8  C   UNL     1       6.362   3.515  12.366  0.00  0.00    +0.000 C 
ATOM      9  C   UNL     1       6.782   4.347  13.569  0.00  0.00    +0.000 C 
ENDBRANCH   7   9
ENDBRANCH   2   7
ENDBRANCH   1   6
BRANCH   1  10
ATOM     10  C   UNL     1       4.523   4.017  19.258  0.00  0.00    +0.000 C 
BRANCH  10  11
ATOM     11  C   UNL     1       3.604   2.947  19.843  0.00  0.00    +0.000 C 
BRANCH  11  12
ATOM     12  N   UNL     1       2.749   2.392  18.781  0.00  0.00    +0.000 NA
ATOM     13  H   UNL     1       2.631   1.376  18.809  0.00  0.00    +0.000 HD
BRANCH  12  14
ATOM     14  S   UNL     1       1.219   3.079  18.582  0.00  0.00    +0.000 S 
ATOM     15  C   UNL     1       0.968   3.936  20.123  0.00  0.00    +0.000 C 
ATOM     16  O   UNL     1       1.374   4.054  17.527  0.00  0.00    +0.000 OA
ATOM     17  O   UNL     1       0.271   1.994  18.472  0.00  0.00    +0.000 OA
ENDBRANCH  12  14
ENDBRANCH  11  12
ENDBRANCH  10  11
ENDBRANCH   1  10
TORSDOF 7
ENDMDL
MODEL 9
REMARK VINA RESULT:      -5.7      1.765      3.015
REMARK  Name = 
REMARK  9 active torsions:
REMARK  status: ('A' for Active; 'I' for Inactive)
REMARK    1  A    between atoms: C_1  and  C_2
REMARK    2  A    between atoms: C_2  and  C_3
REMARK    3  A    between atoms: C_3  and  C_4
REMARK    4  A    between atoms: N_8  and  C_9
REMARK    5  A    between atoms: C_9  and  C_10
REMARK    6  A    between atoms: C_10  and  C_11
REMARK    7  A    between atoms: C_11  and  N_12
REMARK    8  A    between atoms: N_12  and  S_13
REMARK    9  A    between atoms: S_13  and  C_14
REMARK                            x       y       z     vdW  Elec       q    Type
REMARK                         _______ _______ _______ _____ _____    ______ ____
ROOT
ATOM      1  C   UNL     1       4.587   5.366  18.071  0.00  0.00    +0.000 C 
ENDROOT
BRANCH   1   6
ATOM      2  C   UNL     1       6.588   6.237  16.747  0.00  0.00    +0.000 A 
ATOM      3  N   UNL     1       7.385   5.770  15.802  0.00  0.00    +0.000 NA
ATOM      4  C   UNL     1       6.940   4.514  15.507  0.00  0.00    +0.000 A 
ATOM      5  C   UNL     1       5.870   4.186  16.297  0.00  0.00    +0.000 A 
ATOM      6  N   UNL     1       5.660   5.279  17.100  0.00  0.00    +0.000 N 
BRANCH   2   7
ATOM      7  C   UNL     1       6.714   7.611  17.330  0.00  0.00    +0.000 C 
BRANCH   7   9
ATOM      8  C   UNL     1       8.414   9.267  18.195  0.00  0.00    +0.000 C 
ATOM      9  C   UNL     1       8.057   7.795  18.045  0.00  0.00    +0.000 C 
ENDBRANCH   7   9
ENDBRANCH   2   7
ENDBRANCH   1   6
BRANCH   1  10
ATOM     10  C   UNL     1       3.333   4.558  17.714  0.00  0.00    +0.000 C 
BRANCH  10  11
ATOM     11  C   UNL     1       3.158   3.271  18.517  0.00  0.00    +0.000 C 
BRANCH  11  12
ATOM     12  N   UNL     1       3.433   3.533  19.940  0.00  0.00    +0.000 NA
ATOM     13  H   UNL     1       4.152   4.239  20.118  0.00  0.00    +0.000 HD
BRANCH  12  14
ATOM     14  S   UNL     1       2.111   3.888  20.929  0.00  0.00    +0.000 S 
ATOM     15  C   UNL     1       0.742   3.199  20.022  0.00  0.00    +0.000 C 
ATOM     16  O   UNL     1       2.314   3.110  22.129  0.00  0.00    +0.000 OA
ATOM     17  O   UNL     1       1.983   5.327  20.976  0.00  0.00    +0.000 OA
ENDBRANCH  12  14
ENDBRANCH  11  12
ENDBRANCH  10  11
ENDBRANCH   1  10
TORSDOF 7
ENDMDL
