MODEL 1
REMARK VINA RESULT:      -6.5      0.000      0.000
REMARK  Name = 
REMARK  7 active torsions:
REMARK  status: ('A' for Active; 'I' for Inactive)
REMARK    1  A    between atoms: C_1  and  C_2
REMARK    2  A    between atoms: C_6  and  O_7
REMARK    3  A    between atoms: O_7  and  C_8
REMARK    4  A    between atoms: C_8  and  C_10
REMARK    5  A    between atoms: C_15  and  C_16
REMARK    6  A    between atoms: C_15  and  O_17
REMARK    7  A    between atoms: C_21  and  C_22
REMARK                            x       y       z     vdW  Elec       q    Type
REMARK                         _______ _______ _______ _____ _____    ______ ____
ROOT
ATOM      1  C   UNL     1       4.110   8.492  17.319  0.00  0.00    +0.000 C 
ATOM      2  C   UNL     1       3.319   7.345  17.852  0.00  0.00    +0.000 C 
ATOM      3  C   UNL     1       3.432   6.017  17.624  0.00  0.00    +0.000 C 
ATOM      4  C   UNL     1       2.402   5.222  18.445  0.00  0.00    +0.000 C 
ATOM      5  C   UNL     1       1.416   6.364  18.790  0.00  0.00    +0.000 C 
ATOM      6  C   UNL     1       2.261   7.632  18.894  0.00  0.00    +0.000 C 
ATOM      7  C   UNL     1       2.994   4.432  19.671  0.00  0.00    +0.000 C 
ATOM      8  C   UNL     1       1.901   3.953  20.647  0.00  0.00    +0.000 C 
ATOM      9  C   UNL     1       3.822   3.156  19.319  0.00  0.00    +0.000 C 
ATOM     10  C   UNL     1       4.600   3.083  18.003  0.00  0.00    +0.000 C 
ATOM     11  C   UNL     1       5.297   4.390  17.653  0.00  0.00    +0.000 C 
ATOM     12  C   UNL     1       6.583   4.258  16.853  0.00  0.00    +0.000 C 
ATOM     13  C   UNL     1       7.799   4.449  17.758  0.00  0.00    +0.000 C 
ATOM     14  C   UNL     1       6.483   5.403  15.883  0.00  0.00    +0.000 C 
ATOM     15  O   UNL     1       7.359   5.744  15.104  0.00  0.00    +0.000 OA
ATOM     16  O   UNL     1       5.285   6.042  16.005  0.00  0.00    +0.000 OA
ATOM     17  C   UNL     1       4.399   5.241  16.771  0.00  0.00    +0.000 C 
ENDROOT
BRANCH   7  18
ATOM     18  O   UNL     1       3.814   5.293  20.478  0.00  0.00    +0.000 OA
ATOM     19  H   UNL     1       4.346   4.763  21.091  0.00  0.00    +0.000 HD
ENDBRANCH   7  18
BRANCH   6  20
ATOM     20  O   UNL     1       1.532   8.831  18.605  0.00  0.00    +0.000 OA
BRANCH  20  21
ATOM     21  C   UNL     1       0.911   9.362  19.707  0.00  0.00    +0.000 C 
ATOM     22  O   UNL     1       1.305   9.155  20.855  0.00  0.00    +0.000 OA
BRANCH  21  23
ATOM     23  C   UNL     1      -0.212  10.215  19.354  0.00  0.00    +0.000 A 
ATOM     24  C   UNL     1      -1.024  10.255  18.230  0.00  0.00    +0.000 A 
ATOM     25  C   UNL     1      -2.011  11.292  18.299  0.00  0.00    +0.000 A 
ATOM     26  C   UNL     1      -1.922  12.018  19.463  0.00  0.00    +0.000 A 
ATOM     27  S   UNL     1      -0.666  11.453  20.468  0.00  0.00    +0.000 S 
ENDBRANCH  21  23
ENDBRANCH  20  21
ENDBRANCH   6  20
TORSDOF 4
ENDMDL
MODEL 2
REMARK VINA RESULT:      -6.5      6.268     10.863
REMARK  Name = 
REMARK  7 active torsions:
REMARK  status: ('A' for Active; 'I' for Inactive)
REMARK    1  A    between atoms: C_1  and  C_2
REMARK    2  A    between atoms: C_6  and  O_7
REMARK    3  A    between atoms: O_7  and  C_8
REMARK    4  A    between atoms: C_8  and  C_10
REMARK    5  A    between atoms: C_15  and  C_16
REMARK    6  A    between atoms: C_15  and  O_17
REMARK    7  A    between atoms: C_21  and  C_22
REMARK                            x       y       z     vdW  Elec       q    Type
REMARK                         _______ _______ _______ _____ _____    ______ ____
ROOT
ATOM      1  C   UNL     1      -2.518  11.831  19.021  0.00  0.00    +0.000 C 
ATOM      2  C   UNL     1      -2.735  12.706  20.211  0.00  0.00    +0.000 C 
ATOM      3  C   UNL     1      -3.855  13.311  20.666  0.00  0.00    +0.000 C 
ATOM      4  C   UNL     1      -3.580  14.083  21.968  0.00  0.00    +0.000 C 
ATOM      5  C   UNL     1      -2.039  14.179  21.886  0.00  0.00    +0.000 C 
ATOM      6  C   UNL     1      -1.576  12.918  21.159  0.00  0.00    +0.000 C 
ATOM      7  C   UNL     1      -4.159  13.415  23.271  0.00  0.00    +0.000 C 
ATOM      8  C   UNL     1      -3.567  14.024  24.558  0.00  0.00    +0.000 C 
ATOM      9  C   UNL     1      -5.708  13.504  23.447  0.00  0.00    +0.000 C 
ATOM     10  C   UNL     1      -6.621  13.537  22.219  0.00  0.00    +0.000 C 
ATOM     11  C   UNL     1      -6.175  12.581  21.123  0.00  0.00    +0.000 C 
ATOM     12  C   UNL     1      -7.284  12.013  20.252  0.00  0.00    +0.000 C 
ATOM     13  C   UNL     1      -7.606  10.577  20.662  0.00  0.00    +0.000 C 
ATOM     14  C   UNL     1      -6.662  12.026  18.882  0.00  0.00    +0.000 C 
ATOM     15  O   UNL     1      -7.168  11.556  17.875  0.00  0.00    +0.000 OA
ATOM     16  O   UNL     1      -5.432  12.611  18.910  0.00  0.00    +0.000 OA
ATOM     17  C   UNL     1      -5.266  13.299  20.141  0.00  0.00    +0.000 C 
ENDROOT
BRANCH   7  18
ATOM     18  O   UNL     1      -3.775  12.033  23.344  0.00  0.00    +0.000 OA
ATOM     19  H   UNL     1      -4.540  11.490  23.586  0.00  0.00    +0.000 HD
ENDBRANCH   7  18
BRANCH   6  20
ATOM     20  O   UNL     1      -0.334  13.081  20.464  0.00  0.00    +0.000 OA
BRANCH  20  21
ATOM     21  C   UNL     1       0.693  12.361  21.020  0.00  0.00    +0.000 C 
ATOM     22  O   UNL     1       1.826  12.822  21.164  0.00  0.00    +0.000 OA
BRANCH  21  23
ATOM     23  C   UNL     1       0.274  11.036  21.449  0.00  0.00    +0.000 A 
ATOM     24  C   UNL     1      -0.251  10.577  22.648  0.00  0.00    +0.000 A 
ATOM     25  C   UNL     1      -0.502   9.166  22.636  0.00  0.00    +0.000 A 
ATOM     26  C   UNL     1      -0.156   8.587  21.438  0.00  0.00    +0.000 A 
ATOM     27  S   UNL     1       0.459   9.731  20.335  0.00  0.00    +0.000 S 
ENDBRANCH  21  23
ENDBRANCH  20  21
ENDBRANCH   6  20
TORSDOF 4
ENDMDL
MODEL 3
REMARK VINA RESULT:      -6.5      1.099      1.312
REMARK  Name = 
REMARK  7 active torsions:
REMARK  status: ('A' for Active; 'I' for Inactive)
REMARK    1  A    between atoms: C_1  and  C_2
REMARK    2  A    between atoms: C_6  and  O_7
REMARK    3  A    between atoms: O_7  and  C_8
REMARK    4  A    between atoms: C_8  and  C_10
REMARK    5  A    between atoms: C_15  and  C_16
REMARK    6  A    between atoms: C_15  and  O_17
REMARK    7  A    between atoms: C_21  and  C_22
REMARK                            x       y       z     vdW  Elec       q    Type
REMARK                         _______ _______ _______ _____ _____    ______ ____
ROOT
ATOM      1  C   UNL     1       3.438   8.214  17.873  0.00  0.00    +0.000 C 
ATOM      2  C   UNL     1       2.858   6.976  18.472  0.00  0.00    +0.000 C 
ATOM      3  C   UNL     1       3.014   5.677  18.131  0.00  0.00    +0.000 C 
ATOM      4  C   UNL     1       2.236   4.754  19.085  0.00  0.00    +0.000 C 
ATOM      5  C   UNL     1       1.268   5.789  19.706  0.00  0.00    +0.000 C 
ATOM      6  C   UNL     1       2.025   7.116  19.726  0.00  0.00    +0.000 C 
ATOM      7  C   UNL     1       3.126   3.949  20.104  0.00  0.00    +0.000 C 
ATOM      8  C   UNL     1       2.298   3.327  21.246  0.00  0.00    +0.000 C 
ATOM      9  C   UNL     1       3.949   2.767  19.498  0.00  0.00    +0.000 C 
ATOM     10  C   UNL     1       4.437   2.834  18.049  0.00  0.00    +0.000 C 
ATOM     11  C   UNL     1       4.952   4.211  17.659  0.00  0.00    +0.000 C 
ATOM     12  C   UNL     1       6.047   4.232  16.606  0.00  0.00    +0.000 C 
ATOM     13  C   UNL     1       7.410   4.473  17.254  0.00  0.00    +0.000 C 
ATOM     14  C   UNL     1       5.666   5.418  15.762  0.00  0.00    +0.000 C 
ATOM     15  O   UNL     1       6.334   5.874  14.847  0.00  0.00    +0.000 OA
ATOM     16  O   UNL     1       4.480   5.947  16.172  0.00  0.00    +0.000 OA
ATOM     17  C   UNL     1       3.832   5.033  17.044  0.00  0.00    +0.000 C 
ENDROOT
BRANCH   7  18
ATOM     18  O   UNL     1       4.035   4.828  20.786  0.00  0.00    +0.000 OA
ATOM     19  H   UNL     1       3.573   5.287  21.505  0.00  0.00    +0.000 HD
ENDBRANCH   7  18
BRANCH   6  20
ATOM     20  O   UNL     1       1.170   8.264  19.681  0.00  0.00    +0.000 OA
BRANCH  20  21
ATOM     21  C   UNL     1       1.014   8.868  20.902  0.00  0.00    +0.000 C 
ATOM     22  O   UNL     1       1.606   8.486  21.912  0.00  0.00    +0.000 OA
BRANCH  21  23
ATOM     23  C   UNL     1       0.121  10.015  20.845  0.00  0.00    +0.000 A 
ATOM     24  C   UNL     1      -0.415  10.817  21.841  0.00  0.00    +0.000 A 
ATOM     25  C   UNL     1      -1.278  11.837  21.323  0.00  0.00    +0.000 A 
ATOM     26  C   UNL     1      -1.384  11.781  19.953  0.00  0.00    +0.000 A 
ATOM     27  S   UNL     1      -0.448  10.517  19.295  0.00  0.00    +0.000 S 
ENDBRANCH  21  23
ENDBRANCH  20  21
ENDBRANCH   6  20
TORSDOF 4
ENDMDL
MODEL 4
REMARK VINA RESULT:      -6.3      5.694     10.766
REMARK  Name = 
REMARK  7 active torsions:
REMARK  status: ('A' for Active; 'I' for Inactive)
REMARK    1  A    between atoms: C_1  and  C_2
REMARK    2  A    between atoms: C_6  and  O_7
REMARK    3  A    between atoms: O_7  and  C_8
REMARK    4  A    between atoms: C_8  and  C_10
REMARK    5  A    between atoms: C_15  and  C_16
REMARK    6  A    between atoms: C_15  and  O_17
REMARK    7  A    between atoms: C_21  and  C_22
REMARK                            x       y       z     vdW  Elec       q    Type
REMARK                         _______ _______ _______ _____ _____    ______ ____
ROOT
ATOM      1  C   UNL     1      -2.500  11.997  18.903  0.00  0.00    +0.000 C 
ATOM      2  C   UNL     1      -2.737  12.821  20.124  0.00  0.00    +0.000 C 
ATOM      3  C   UNL     1      -3.883  13.325  20.636  0.00  0.00    +0.000 C 
ATOM      4  C   UNL     1      -3.618  14.082  21.950  0.00  0.00    +0.000 C 
ATOM      5  C   UNL     1      -2.093  14.299  21.815  0.00  0.00    +0.000 C 
ATOM      6  C   UNL     1      -1.563  13.097  21.035  0.00  0.00    +0.000 C 
ATOM      7  C   UNL     1      -4.094  13.337  23.253  0.00  0.00    +0.000 C 
ATOM      8  C   UNL     1      -3.502  13.956  24.534  0.00  0.00    +0.000 C 
ATOM      9  C   UNL     1      -5.638  13.301  23.487  0.00  0.00    +0.000 C 
ATOM     10  C   UNL     1      -6.596  13.296  22.293  0.00  0.00    +0.000 C 
ATOM     11  C   UNL     1      -6.121  12.407  21.155  0.00  0.00    +0.000 C 
ATOM     12  C   UNL     1      -7.216  11.778  20.308  0.00  0.00    +0.000 C 
ATOM     13  C   UNL     1      -7.412  10.311  20.687  0.00  0.00    +0.000 C 
ATOM     14  C   UNL     1      -6.649  11.875  18.918  0.00  0.00    +0.000 C 
ATOM     15  O   UNL     1      -7.156  11.394  17.916  0.00  0.00    +0.000 OA
ATOM     16  O   UNL     1      -5.467  12.552  18.919  0.00  0.00    +0.000 OA
ATOM     17  C   UNL     1      -5.307  13.219  20.162  0.00  0.00    +0.000 C 
ENDROOT
BRANCH   7  18
ATOM     18  O   UNL     1      -3.603  11.987  23.271  0.00  0.00    +0.000 OA
ATOM     19  H   UNL     1      -2.661  11.982  23.501  0.00  0.00    +0.000 HD
ENDBRANCH   7  18
BRANCH   6  20
ATOM     20  O   UNL     1      -0.364  13.373  20.302  0.00  0.00    +0.000 OA
BRANCH  20  21
ATOM     21  C   UNL     1       0.740  12.746  20.819  0.00  0.00    +0.000 C 
ATOM     22  O   UNL     1       1.475  13.276  21.653  0.00  0.00    +0.000 OA
BRANCH  21  23
ATOM     23  C   UNL     1       0.904  11.395  20.307  0.00  0.00    +0.000 A 
ATOM     24  C   UNL     1       1.115  10.914  19.023  0.00  0.00    +0.000 A 
ATOM     25  C   UNL     1       1.195   9.484  18.976  0.00  0.00    +0.000 A 
ATOM     26  C   UNL     1       1.034   8.914  20.217  0.00  0.00    +0.000 A 
ATOM     27  S   UNL     1       0.796  10.089  21.429  0.00  0.00    +0.000 S 
ENDBRANCH  21  23
ENDBRANCH  20  21
ENDBRANCH   6  20
TORSDOF 4
ENDMDL
MODEL 5
REMARK VINA RESULT:      -6.3      1.320      1.479
REMARK  Name = 
REMARK  7 active torsions:
REMARK  status: ('A' for Active; 'I' for Inactive)
REMARK    1  A    between atoms: C_1  and  C_2
REMARK    2  A    between atoms: C_6  and  O_7
REMARK    3  A    between atoms: O_7  and  C_8
REMARK    4  A    between atoms: C_8  and  C_10
REMARK    5  A    between atoms: C_15  and  C_16
REMARK    6  A    between atoms: C_15  and  O_17
REMARK    7  A    between atoms: C_21  and  C_22
REMARK                            x       y       z     vdW  Elec       q    Type
REMARK                         _______ _______ _______ _____ _____    ______ ____
ROOT
ATOM      1  C   UNL     1       4.061   8.442  17.232  0.00  0.00    +0.000 C 
ATOM      2  C   UNL     1       3.291   7.286  17.778  0.00  0.00    +0.000 C 
ATOM      3  C   UNL     1       3.470   5.955  17.617  0.00  0.00    +0.000 C 
ATOM      4  C   UNL     1       2.431   5.154  18.421  0.00  0.00    +0.000 C 
ATOM      5  C   UNL     1       1.384   6.266  18.663  0.00  0.00    +0.000 C 
ATOM      6  C   UNL     1       2.170   7.573  18.751  0.00  0.00    +0.000 C 
ATOM      7  C   UNL     1       2.992   4.445  19.709  0.00  0.00    +0.000 C 
ATOM      8  C   UNL     1       1.870   3.962  20.651  0.00  0.00    +0.000 C 
ATOM      9  C   UNL     1       3.888   3.190  19.457  0.00  0.00    +0.000 C 
ATOM     10  C   UNL     1       4.735   3.094  18.187  0.00  0.00    +0.000 C 
ATOM     11  C   UNL     1       5.395   4.413  17.812  0.00  0.00    +0.000 C 
ATOM     12  C   UNL     1       6.725   4.301  17.084  0.00  0.00    +0.000 C 
ATOM     13  C   UNL     1       7.884   4.584  18.039  0.00  0.00    +0.000 C 
ATOM     14  C   UNL     1       6.628   5.398  16.059  0.00  0.00    +0.000 C 
ATOM     15  O   UNL     1       7.529   5.742  15.310  0.00  0.00    +0.000 OA
ATOM     16  O   UNL     1       5.402   5.990  16.091  0.00  0.00    +0.000 OA
ATOM     17  C   UNL     1       4.510   5.185  16.849  0.00  0.00    +0.000 C 
ENDROOT
BRANCH   7  18
ATOM     18  O   UNL     1       3.733   5.374  20.516  0.00  0.00    +0.000 OA
ATOM     19  H   UNL     1       4.039   6.114  19.969  0.00  0.00    +0.000 HD
ENDBRANCH   7  18
BRANCH   6  20
ATOM     20  O   UNL     1       1.409   8.726  18.372  0.00  0.00    +0.000 OA
BRANCH  20  21
ATOM     21  C   UNL     1       1.098   9.539  19.432  0.00  0.00    +0.000 C 
ATOM     22  O   UNL     1       0.596   9.111  20.472  0.00  0.00    +0.000 OA
BRANCH  21  23
ATOM     23  C   UNL     1       1.471  10.925  19.198  0.00  0.00    +0.000 A 
ATOM     24  C   UNL     1       2.149  11.534  18.153  0.00  0.00    +0.000 A 
ATOM     25  C   UNL     1       2.317  12.943  18.352  0.00  0.00    +0.000 A 
ATOM     26  C   UNL     1       1.774  13.369  19.542  0.00  0.00    +0.000 A 
ATOM     27  S   UNL     1       1.063  12.085  20.408  0.00  0.00    +0.000 S 
ENDBRANCH  21  23
ENDBRANCH  20  21
ENDBRANCH   6  20
TORSDOF 4
ENDMDL
MODEL 6
REMARK VINA RESULT:      -6.2      1.068      1.143
REMARK  Name = 
REMARK  7 active torsions:
REMARK  status: ('A' for Active; 'I' for Inactive)
REMARK    1  A    between atoms: C_1  and  C_2
REMARK    2  A    between atoms: C_6  and  O_7
REMARK    3  A    between atoms: O_7  and  C_8
REMARK    4  A    between atoms: C_8  and  C_10
REMARK    5  A    between atoms: C_15  and  C_16
REMARK    6  A    between atoms: C_15  and  O_17
REMARK    7  A    between atoms: C_21  and  C_22
REMARK                            x       y       z     vdW  Elec       q    Type
REMARK                         _______ _______ _______ _____ _____    ______ ____
ROOT
ATOM      1  C   UNL     1       3.827   8.946  17.422  0.00  0.00    +0.000 C 
ATOM      2  C   UNL     1       3.109   7.683  17.765  0.00  0.00    +0.000 C 
ATOM      3  C   UNL     1       3.509   6.394  17.686  0.00  0.00    +0.000 C 
ATOM      4  C   UNL     1       2.416   5.440  18.200  0.00  0.00    +0.000 C 
ATOM      5  C   UNL     1       1.197   6.390  18.129  0.00  0.00    +0.000 C 
ATOM      6  C   UNL     1       1.740   7.793  18.397  0.00  0.00    +0.000 C 
ATOM      7  C   UNL     1       2.704   4.794  19.606  0.00  0.00    +0.000 C 
ATOM      8  C   UNL     1       1.451   4.143  20.223  0.00  0.00    +0.000 C 
ATOM      9  C   UNL     1       3.802   3.683  19.629  0.00  0.00    +0.000 C 
ATOM     10  C   UNL     1       4.963   3.730  18.634  0.00  0.00    +0.000 C 
ATOM     11  C   UNL     1       5.508   5.134  18.422  0.00  0.00    +0.000 C 
ATOM     12  C   UNL     1       6.986   5.223  18.079  0.00  0.00    +0.000 C 
ATOM     13  C   UNL     1       7.796   5.649  19.303  0.00  0.00    +0.000 C 
ATOM     14  C   UNL     1       7.015   6.314  17.043  0.00  0.00    +0.000 C 
ATOM     15  O   UNL     1       8.026   6.793  16.555  0.00  0.00    +0.000 OA
ATOM     16  O   UNL     1       5.754   6.726  16.733  0.00  0.00    +0.000 OA
ATOM     17  C   UNL     1       4.814   5.791  17.241  0.00  0.00    +0.000 C 
ENDROOT
BRANCH   7  18
ATOM     18  O   UNL     1       3.065   5.805  20.561  0.00  0.00    +0.000 OA
ATOM     19  H   UNL     1       3.822   5.506  21.088  0.00  0.00    +0.000 HD
ENDBRANCH   7  18
BRANCH   6  20
ATOM     20  O   UNL     1       0.954   8.834  17.804  0.00  0.00    +0.000 OA
BRANCH  20  21
ATOM     21  C   UNL     1       0.460   9.725  18.722  0.00  0.00    +0.000 C 
ATOM     22  O   UNL     1       1.087  10.056  19.730  0.00  0.00    +0.000 OA
BRANCH  21  23
ATOM     23  C   UNL     1      -0.840  10.252  18.342  0.00  0.00    +0.000 A 
ATOM     24  C   UNL     1      -1.688   9.945  17.287  0.00  0.00    +0.000 A 
ATOM     25  C   UNL     1      -2.879  10.742  17.287  0.00  0.00    +0.000 A 
ATOM     26  C   UNL     1      -2.906  11.637  18.332  0.00  0.00    +0.000 A 
ATOM     27  S   UNL     1      -1.513  11.514  19.307  0.00  0.00    +0.000 S 
ENDBRANCH  21  23
ENDBRANCH  20  21
ENDBRANCH   6  20
TORSDOF 4
ENDMDL
MODEL 7
REMARK VINA RESULT:      -6.1      3.348      9.248
REMARK  Name = 
REMARK  7 active torsions:
REMARK  status: ('A' for Active; 'I' for Inactive)
REMARK    1  A    between atoms: C_1  and  C_2
REMARK    2  A    between atoms: C_6  and  O_7
REMARK    3  A    between atoms: O_7  and  C_8
REMARK    4  A    between atoms: C_8  and  C_10
REMARK    5  A    between atoms: C_15  and  C_16
REMARK    6  A    between atoms: C_15  and  O_17
REMARK    7  A    between atoms: C_21  and  C_22
REMARK                            x       y       z     vdW  Elec       q    Type
REMARK                         _______ _______ _______ _____ _____    ______ ____
ROOT
ATOM      1  C   UNL     1       1.164  12.083  20.871  0.00  0.00    +0.000 C 
ATOM      2  C   UNL     1       0.202  11.385  19.968  0.00  0.00    +0.000 C 
ATOM      3  C   UNL     1      -1.147  11.317  20.005  0.00  0.00    +0.000 C 
ATOM      4  C   UNL     1      -1.695  10.502  18.820  0.00  0.00    +0.000 C 
ATOM      5  C   UNL     1      -0.404   9.756  18.406  0.00  0.00    +0.000 C 
ATOM      6  C   UNL     1       0.752  10.699  18.738  0.00  0.00    +0.000 C 
ATOM      7  C   UNL     1      -2.388  11.353  17.692  0.00  0.00    +0.000 C 
ATOM      8  C   UNL     1      -2.598  10.550  16.392  0.00  0.00    +0.000 C 
ATOM      9  C   UNL     1      -3.793  11.935  18.049  0.00  0.00    +0.000 C 
ATOM     10  C   UNL     1      -4.131  12.294  19.497  0.00  0.00    +0.000 C 
ATOM     11  C   UNL     1      -2.978  12.968  20.226  0.00  0.00    +0.000 C 
ATOM     12  C   UNL     1      -3.371  13.955  21.313  0.00  0.00    +0.000 C 
ATOM     13  C   UNL     1      -3.219  15.391  20.814  0.00  0.00    +0.000 C 
ATOM     14  C   UNL     1      -2.356  13.677  22.388  0.00  0.00    +0.000 C 
ATOM     15  O   UNL     1      -2.230  14.318  23.420  0.00  0.00    +0.000 OA
ATOM     16  O   UNL     1      -1.562  12.623  22.049  0.00  0.00    +0.000 OA
ATOM     17  C   UNL     1      -2.141  11.930  20.954  0.00  0.00    +0.000 C 
ENDROOT
BRANCH   7  18
ATOM     18  O   UNL     1      -1.540  12.439  17.285  0.00  0.00    +0.000 OA
ATOM     19  H   UNL     1      -2.024  13.277  17.347  0.00  0.00    +0.000 HD
ENDBRANCH   7  18
BRANCH   6  20
ATOM     20  O   UNL     1       1.985  10.021  19.004  0.00  0.00    +0.000 OA
BRANCH  20  21
ATOM     21  C   UNL     1       2.165   8.906  18.226  0.00  0.00    +0.000 C 
ATOM     22  O   UNL     1       2.334   8.966  17.007  0.00  0.00    +0.000 OA
BRANCH  21  23
ATOM     23  C   UNL     1       2.179   7.680  19.008  0.00  0.00    +0.000 A 
ATOM     24  C   UNL     1       1.746   7.401  20.295  0.00  0.00    +0.000 A 
ATOM     25  C   UNL     1       1.981   6.038  20.673  0.00  0.00    +0.000 A 
ATOM     26  C   UNL     1       2.592   5.319  19.673  0.00  0.00    +0.000 A 
ATOM     27  S   UNL     1       2.874   6.273  18.288  0.00  0.00    +0.000 S 
ENDBRANCH  21  23
ENDBRANCH  20  21
ENDBRANCH   6  20
TORSDOF 4
ENDMDL
MODEL 8
REMARK VINA RESULT:      -6.0      3.327      9.352
REMARK  Name = 
REMARK  7 active torsions:
REMARK  status: ('A' for Active; 'I' for Inactive)
REMARK    1  A    between atoms: C_1  and  C_2
REMARK    2  A    between atoms: C_6  and  O_7
REMARK    3  A    between atoms: O_7  and  C_8
REMARK    4  A    between atoms: C_8  and  C_10
REMARK    5  A    between atoms: C_15  and  C_16
REMARK    6  A    between atoms: C_15  and  O_17
REMARK    7  A    between atoms: C_21  and  C_22
REMARK                            x       y       z     vdW  Elec       q    Type
REMARK                         _______ _______ _______ _____ _____    ______ ____
ROOT
ATOM      1  C   UNL     1      -0.506   9.304  22.784  0.00  0.00    +0.000 C 
ATOM      2  C   UNL     1      -0.157  10.005  21.513  0.00  0.00    +0.000 C 
ATOM      3  C   UNL     1      -0.660  11.135  20.966  0.00  0.00    +0.000 C 
ATOM      4  C   UNL     1       0.060  11.482  19.651  0.00  0.00    +0.000 C 
ATOM      5  C   UNL     1       0.707  10.111  19.345  0.00  0.00    +0.000 C 
ATOM      6  C   UNL     1       1.001   9.471  20.701  0.00  0.00    +0.000 C 
ATOM      7  C   UNL     1       1.049  12.704  19.737  0.00  0.00    +0.000 C 
ATOM      8  C   UNL     1       1.990  12.788  18.519  0.00  0.00    +0.000 C 
ATOM      9  C   UNL     1       0.380  14.112  19.840  0.00  0.00    +0.000 C 
ATOM     10  C   UNL     1      -0.980  14.267  20.524  0.00  0.00    +0.000 C 
ATOM     11  C   UNL     1      -1.110  13.426  21.785  0.00  0.00    +0.000 C 
ATOM     12  C   UNL     1      -2.018  13.991  22.864  0.00  0.00    +0.000 C 
ATOM     13  C   UNL     1      -1.192  14.618  23.987  0.00  0.00    +0.000 C 
ATOM     14  C   UNL     1      -2.723  12.763  23.374  0.00  0.00    +0.000 C 
ATOM     15  O   UNL     1      -3.483  12.734  24.329  0.00  0.00    +0.000 OA
ATOM     16  O   UNL     1      -2.381  11.666  22.643  0.00  0.00    +0.000 OA
ATOM     17  C   UNL     1      -1.726  12.078  21.452  0.00  0.00    +0.000 C 
ENDROOT
BRANCH   7  18
ATOM     18  O   UNL     1       1.947  12.549  20.847  0.00  0.00    +0.000 OA
ATOM     19  H   UNL     1       2.454  11.728  20.750  0.00  0.00    +0.000 HD
ENDBRANCH   7  18
BRANCH   6  20
ATOM     20  O   UNL     1       1.021   8.039  20.667  0.00  0.00    +0.000 OA
BRANCH  20  21
ATOM     21  C   UNL     1       1.929   7.535  19.772  0.00  0.00    +0.000 C 
ATOM     22  O   UNL     1       2.452   8.225  18.896  0.00  0.00    +0.000 OA
BRANCH  21  23
ATOM     23  C   UNL     1       2.225   6.131  20.011  0.00  0.00    +0.000 A 
ATOM     24  C   UNL     1       1.551   5.156  20.731  0.00  0.00    +0.000 A 
ATOM     25  C   UNL     1       2.228   3.893  20.716  0.00  0.00    +0.000 A 
ATOM     26  C   UNL     1       3.399   3.939  19.996  0.00  0.00    +0.000 A 
ATOM     27  S   UNL     1       3.677   5.487  19.338  0.00  0.00    +0.000 S 
ENDBRANCH  21  23
ENDBRANCH  20  21
ENDBRANCH   6  20
TORSDOF 4
ENDMDL
MODEL 9
REMARK VINA RESULT:      -6.0      1.357      1.665
REMARK  Name = 
REMARK  7 active torsions:
REMARK  status: ('A' for Active; 'I' for Inactive)
REMARK    1  A    between atoms: C_1  and  C_2
REMARK    2  A    between atoms: C_6  and  O_7
REMARK    3  A    between atoms: O_7  and  C_8
REMARK    4  A    between atoms: C_8  and  C_10
REMARK    5  A    between atoms: C_15  and  C_16
REMARK    6  A    between atoms: C_15  and  O_17
REMARK    7  A    between atoms: C_21  and  C_22
REMARK                            x       y       z     vdW  Elec       q    Type
REMARK                         _______ _______ _______ _____ _____    ______ ____
ROOT
ATOM      1  C   UNL     1       3.986   8.375  17.076  0.00  0.00    +0.000 C 
ATOM      2  C   UNL     1       3.241   7.225  17.669  0.00  0.00    +0.000 C 
ATOM      3  C   UNL     1       3.474   5.895  17.594  0.00  0.00    +0.000 C 
ATOM      4  C   UNL     1       2.441   5.104  18.416  0.00  0.00    +0.000 C 
ATOM      5  C   UNL     1       1.347   6.188  18.560  0.00  0.00    +0.000 C 
ATOM      6  C   UNL     1       2.082   7.527  18.591  0.00  0.00    +0.000 C 
ATOM      7  C   UNL     1       2.987   4.495  19.761  0.00  0.00    +0.000 C 
ATOM      8  C   UNL     1       1.855   4.028  20.698  0.00  0.00    +0.000 C 
ATOM      9  C   UNL     1       3.935   3.263  19.611  0.00  0.00    +0.000 C 
ATOM     10  C   UNL     1       4.824   3.124  18.373  0.00  0.00    +0.000 C 
ATOM     11  C   UNL     1       5.447   4.442  17.938  0.00  0.00    +0.000 C 
ATOM     12  C   UNL     1       6.801   4.338  17.257  0.00  0.00    +0.000 C 
ATOM     13  C   UNL     1       7.920   4.721  18.225  0.00  0.00    +0.000 C 
ATOM     14  C   UNL     1       6.697   5.367  16.164  0.00  0.00    +0.000 C 
ATOM     15  O   UNL     1       7.607   5.699  15.421  0.00  0.00    +0.000 OA
ATOM     16  O   UNL     1       5.449   5.912  16.125  0.00  0.00    +0.000 OA
ATOM     17  C   UNL     1       4.564   5.121  16.905  0.00  0.00    +0.000 C 
ENDROOT
BRANCH   7  18
ATOM     18  O   UNL     1       3.669   5.499  20.530  0.00  0.00    +0.000 OA
ATOM     19  H   UNL     1       3.365   5.472  21.450  0.00  0.00    +0.000 HD
ENDBRANCH   7  18
BRANCH   6  20
ATOM     20  O   UNL     1       1.291   8.626  18.121  0.00  0.00    +0.000 OA
BRANCH  20  21
ATOM     21  C   UNL     1       1.460   9.767  18.862  0.00  0.00    +0.000 C 
ATOM     22  O   UNL     1       1.997  10.779  18.409  0.00  0.00    +0.000 OA
BRANCH  21  23
ATOM     23  C   UNL     1       0.899   9.650  20.198  0.00  0.00    +0.000 A 
ATOM     24  C   UNL     1       1.167   8.772  21.238  0.00  0.00    +0.000 A 
ATOM     25  C   UNL     1       0.345   9.013  22.388  0.00  0.00    +0.000 A 
ATOM     26  C   UNL     1      -0.529  10.056  22.193  0.00  0.00    +0.000 A 
ATOM     27  S   UNL     1      -0.359  10.745  20.643  0.00  0.00    +0.000 S 
ENDBRANCH  21  23
ENDBRANCH  20  21
ENDBRANCH   6  20
TORSDOF 4
ENDMDL
