MODEL 1
REMARK VINA RESULT:      -6.2      0.000      0.000
REMARK  Name = 
REMARK  0 active torsions:
REMARK  status: ('A' for Active; 'I' for Inactive)
REMARK                            x       y       z     vdW  Elec       q    Type
REMARK                         _______ _______ _______ _____ _____    ______ ____
ROOT
ATOM      1 CL   UNL     1       8.155   9.070  17.391  0.00  0.00    +0.000 Cl
ATOM      2  C   UNL     1       7.490   7.512  17.841  0.00  0.00    +0.000 A 
ATOM      3  C   UNL     1       8.156   6.690  18.756  0.00  0.00    +0.000 A 
ATOM      4  C   UNL     1       7.598   5.462  19.125  0.00  0.00    +0.000 A 
ATOM      5  C   UNL     1       6.371   5.067  18.568  0.00  0.00    +0.000 A 
ATOM      6  N   UNL     1       5.770   3.831  18.951  0.00  0.00    +0.000 N 
ATOM      7  C   UNL     1       4.528   3.370  18.422  0.00  0.00    +0.000 C 
ATOM      8  N   UNL     1       3.853   4.002  17.542  0.00  0.00    +0.000 NA
ATOM      9  C   UNL     1       2.648   3.280  17.214  0.00  0.00    +0.000 C 
ATOM     10  C   UNL     1       2.763   1.961  17.998  0.00  0.00    +0.000 C 
ATOM     11  N   UNL     1       3.935   2.159  18.804  0.00  0.00    +0.000 N 
ATOM     12  N   UNL     1       5.757   5.888  17.670  0.00  0.00    +0.000 NA
ATOM     13  C   UNL     1       6.280   7.082  17.297  0.00  0.00    +0.000 A 
ATOM     14  H   UNL     1       6.248   3.240  19.648  0.00  0.00    +0.000 HD
ATOM     15  H   UNL     1       4.326   1.483  19.476  0.00  0.00    +0.000 HD
ENDROOT
TORSDOF 0
ENDMDL
MODEL 2
REMARK VINA RESULT:      -6.1      3.789      5.366
REMARK  Name = 
REMARK  0 active torsions:
REMARK  status: ('A' for Active; 'I' for Inactive)
REMARK                            x       y       z     vdW  Elec       q    Type
REMARK                         _______ _______ _______ _____ _____    ______ ____
ROOT
ATOM      1 CL   UNL     1       1.441   2.675  21.783  0.00  0.00    +0.000 Cl
ATOM      2  C   UNL     1       2.172   3.629  20.507  0.00  0.00    +0.000 A 
ATOM      3  C   UNL     1       1.918   5.000  20.408  0.00  0.00    +0.000 A 
ATOM      4  C   UNL     1       2.530   5.751  19.399  0.00  0.00    +0.000 A 
ATOM      5  C   UNL     1       3.397   5.115  18.496  0.00  0.00    +0.000 A 
ATOM      6  N   UNL     1       4.055   5.868  17.477  0.00  0.00    +0.000 N 
ATOM      7  C   UNL     1       4.944   5.283  16.527  0.00  0.00    +0.000 C 
ATOM      8  N   UNL     1       5.213   4.036  16.480  0.00  0.00    +0.000 NA
ATOM      9  C   UNL     1       6.142   3.759  15.412  0.00  0.00    +0.000 C 
ATOM     10  C   UNL     1       6.315   5.108  14.691  0.00  0.00    +0.000 C 
ATOM     11  N   UNL     1       5.595   6.024  15.532  0.00  0.00    +0.000 N 
ATOM     12  N   UNL     1       3.611   3.775  18.616  0.00  0.00    +0.000 NA
ATOM     13  C   UNL     1       3.026   3.027  19.584  0.00  0.00    +0.000 A 
ATOM     14  H   UNL     1       3.889   6.884  17.423  0.00  0.00    +0.000 HD
ATOM     15  H   UNL     1       5.495   7.037  15.371  0.00  0.00    +0.000 HD
ENDROOT
TORSDOF 0
ENDMDL
MODEL 3
REMARK VINA RESULT:      -6.0      3.502      5.707
REMARK  Name = 
REMARK  0 active torsions:
REMARK  status: ('A' for Active; 'I' for Inactive)
REMARK                            x       y       z     vdW  Elec       q    Type
REMARK                         _______ _______ _______ _____ _____    ______ ____
ROOT
ATOM      1 CL   UNL     1       1.317   2.527  21.897  0.00  0.00    +0.000 Cl
ATOM      2  C   UNL     1       1.988   2.934  20.330  0.00  0.00    +0.000 A 
ATOM      3  C   UNL     1       1.168   3.010  19.201  0.00  0.00    +0.000 A 
ATOM      4  C   UNL     1       1.715   3.362  17.963  0.00  0.00    +0.000 A 
ATOM      5  C   UNL     1       3.089   3.637  17.870  0.00  0.00    +0.000 A 
ATOM      6  N   UNL     1       3.664   4.026  16.623  0.00  0.00    +0.000 N 
ATOM      7  C   UNL     1       5.051   4.315  16.460  0.00  0.00    +0.000 C 
ATOM      8  N   UNL     1       5.910   4.229  17.401  0.00  0.00    +0.000 NA
ATOM      9  C   UNL     1       7.223   4.586  16.922  0.00  0.00    +0.000 C 
ATOM     10  C   UNL     1       7.036   4.802  15.409  0.00  0.00    +0.000 C 
ATOM     11  N   UNL     1       5.613   4.704  15.237  0.00  0.00    +0.000 N 
ATOM     12  N   UNL     1       3.860   3.540  18.990  0.00  0.00    +0.000 NA
ATOM     13  C   UNL     1       3.352   3.198  20.199  0.00  0.00    +0.000 A 
ATOM     14  H   UNL     1       3.052   4.109  15.798  0.00  0.00    +0.000 HD
ATOM     15  H   UNL     1       5.106   4.806  14.346  0.00  0.00    +0.000 HD
ENDROOT
TORSDOF 0
ENDMDL
MODEL 4
REMARK VINA RESULT:      -6.0      3.621      5.091
REMARK  Name = 
REMARK  0 active torsions:
REMARK  status: ('A' for Active; 'I' for Inactive)
REMARK                            x       y       z     vdW  Elec       q    Type
REMARK                         _______ _______ _______ _____ _____    ______ ____
ROOT
ATOM      1 CL   UNL     1       0.784   3.403  20.055  0.00  0.00    +0.000 Cl
ATOM      2  C   UNL     1       2.229   4.024  19.282  0.00  0.00    +0.000 A 
ATOM      3  C   UNL     1       3.084   4.895  19.962  0.00  0.00    +0.000 A 
ATOM      4  C   UNL     1       4.247   5.360  19.340  0.00  0.00    +0.000 A 
ATOM      5  C   UNL     1       4.543   4.942  18.032  0.00  0.00    +0.000 A 
ATOM      6  N   UNL     1       5.739   5.381  17.389  0.00  0.00    +0.000 N 
ATOM      7  C   UNL     1       6.097   4.998  16.062  0.00  0.00    +0.000 C 
ATOM      8  N   UNL     1       5.374   4.252  15.320  0.00  0.00    +0.000 NA
ATOM      9  C   UNL     1       6.007   4.046  14.040  0.00  0.00    +0.000 C 
ATOM     10  C   UNL     1       7.257   4.944  14.080  0.00  0.00    +0.000 C 
ATOM     11  N   UNL     1       7.274   5.423  15.434  0.00  0.00    +0.000 N 
ATOM     12  N   UNL     1       3.680   4.102  17.395  0.00  0.00    +0.000 NA
ATOM     13  C   UNL     1       2.546   3.641  17.978  0.00  0.00    +0.000 A 
ATOM     14  H   UNL     1       6.382   6.001  17.903  0.00  0.00    +0.000 HD
ATOM     15  H   UNL     1       7.981   6.052  15.841  0.00  0.00    +0.000 HD
ENDROOT
TORSDOF 0
ENDMDL
MODEL 5
REMARK VINA RESULT:      -5.9      1.652      2.029
REMARK  Name = 
REMARK  0 active torsions:
REMARK  status: ('A' for Active; 'I' for Inactive)
REMARK                            x       y       z     vdW  Elec       q    Type
REMARK                         _______ _______ _______ _____ _____    ______ ____
ROOT
ATOM      1 CL   UNL     1       7.833   7.838  17.445  0.00  0.00    +0.000 Cl
ATOM      2  C   UNL     1       6.784   6.438  17.338  0.00  0.00    +0.000 A 
ATOM      3  C   UNL     1       7.117   5.358  16.516  0.00  0.00    +0.000 A 
ATOM      4  C   UNL     1       6.281   4.237  16.463  0.00  0.00    +0.000 A 
ATOM      5  C   UNL     1       5.112   4.212  17.241  0.00  0.00    +0.000 A 
ATOM      6  N   UNL     1       4.260   3.068  17.224  0.00  0.00    +0.000 N 
ATOM      7  C   UNL     1       3.057   2.979  17.986  0.00  0.00    +0.000 C 
ATOM      8  N   UNL     1       2.618   3.919  18.730  0.00  0.00    +0.000 NA
ATOM      9  C   UNL     1       1.385   3.525  19.368  0.00  0.00    +0.000 C 
ATOM     10  C   UNL     1       1.059   2.149  18.759  0.00  0.00    +0.000 C 
ATOM     11  N   UNL     1       2.225   1.852  17.975  0.00  0.00    +0.000 N 
ATOM     12  N   UNL     1       4.813   5.289  18.020  0.00  0.00    +0.000 NA
ATOM     13  C   UNL     1       5.607   6.386  18.086  0.00  0.00    +0.000 A 
ATOM     14  H   UNL     1       4.523   2.260  16.639  0.00  0.00    +0.000 HD
ATOM     15  H   UNL     1       2.376   0.997  17.420  0.00  0.00    +0.000 HD
ENDROOT
TORSDOF 0
ENDMDL
MODEL 6
REMARK VINA RESULT:      -5.9      2.983      3.623
REMARK  Name = 
REMARK  0 active torsions:
REMARK  status: ('A' for Active; 'I' for Inactive)
REMARK                            x       y       z     vdW  Elec       q    Type
REMARK                         _______ _______ _______ _____ _____    ______ ____
ROOT
ATOM      1 CL   UNL     1       6.558   4.490  13.934  0.00  0.00    +0.000 Cl
ATOM      2  C   UNL     1       5.693   4.881  15.407  0.00  0.00    +0.000 A 
ATOM      3  C   UNL     1       5.361   6.205  15.709  0.00  0.00    +0.000 A 
ATOM      4  C   UNL     1       4.648   6.498  16.876  0.00  0.00    +0.000 A 
ATOM      5  C   UNL     1       4.270   5.451  17.733  0.00  0.00    +0.000 A 
ATOM      6  N   UNL     1       3.517   5.723  18.914  0.00  0.00    +0.000 N 
ATOM      7  C   UNL     1       3.105   4.709  19.828  0.00  0.00    +0.000 C 
ATOM      8  N   UNL     1       3.392   3.472  19.692  0.00  0.00    +0.000 NA
ATOM      9  C   UNL     1       2.834   2.701  20.776  0.00  0.00    +0.000 C 
ATOM     10  C   UNL     1       2.221   3.751  21.721  0.00  0.00    +0.000 C 
ATOM     11  N   UNL     1       2.359   4.976  20.983  0.00  0.00    +0.000 N 
ATOM     12  N   UNL     1       4.622   4.174  17.413  0.00  0.00    +0.000 NA
ATOM     13  C   UNL     1       5.315   3.868  16.289  0.00  0.00    +0.000 A 
ATOM     14  H   UNL     1       3.249   6.698  19.120  0.00  0.00    +0.000 HD
ATOM     15  H   UNL     1       2.049   5.906  21.299  0.00  0.00    +0.000 HD
ENDROOT
TORSDOF 0
ENDMDL
MODEL 7
REMARK VINA RESULT:      -5.8      3.796      5.020
REMARK  Name = 
REMARK  0 active torsions:
REMARK  status: ('A' for Active; 'I' for Inactive)
REMARK                            x       y       z     vdW  Elec       q    Type
REMARK                         _______ _______ _______ _____ _____    ______ ____
ROOT
ATOM      1 CL   UNL     1       3.346   3.370  20.138  0.00  0.00    +0.000 Cl
ATOM      2  C   UNL     1       4.413   4.034  18.915  0.00  0.00    +0.000 A 
ATOM      3  C   UNL     1       5.308   5.059  19.231  0.00  0.00    +0.000 A 
ATOM      4  C   UNL     1       6.171   5.559  18.250  0.00  0.00    +0.000 A 
ATOM      5  C   UNL     1       6.126   5.020  16.954  0.00  0.00    +0.000 A 
ATOM      6  N   UNL     1       7.017   5.495  15.945  0.00  0.00    +0.000 N 
ATOM      7  C   UNL     1       7.021   4.994  14.609  0.00  0.00    +0.000 C 
ATOM      8  N   UNL     1       6.217   4.098  14.185  0.00  0.00    +0.000 NA
ATOM      9  C   UNL     1       6.473   3.806  12.795  0.00  0.00    +0.000 C 
ATOM     10  C   UNL     1       7.554   4.820  12.380  0.00  0.00    +0.000 C 
ATOM     11  N   UNL     1       7.901   5.455  13.621  0.00  0.00    +0.000 N 
ATOM     12  N   UNL     1       5.231   4.030  16.679  0.00  0.00    +0.000 NA
ATOM     13  C   UNL     1       4.384   3.532  17.614  0.00  0.00    +0.000 A 
ATOM     14  H   UNL     1       7.696   6.232  16.187  0.00  0.00    +0.000 HD
ATOM     15  H   UNL     1       8.608   6.195  13.742  0.00  0.00    +0.000 HD
ENDROOT
TORSDOF 0
ENDMDL
MODEL 8
REMARK VINA RESULT:      -5.8      2.522      2.884
REMARK  Name = 
REMARK  0 active torsions:
REMARK  status: ('A' for Active; 'I' for Inactive)
REMARK                            x       y       z     vdW  Elec       q    Type
REMARK                         _______ _______ _______ _____ _____    ______ ____
ROOT
ATOM      1 CL   UNL     1       7.141   4.788  14.238  0.00  0.00    +0.000 Cl
ATOM      2  C   UNL     1       6.400   4.553  15.809  0.00  0.00    +0.000 A 
ATOM      3  C   UNL     1       7.120   4.805  16.981  0.00  0.00    +0.000 A 
ATOM      4  C   UNL     1       6.506   4.638  18.226  0.00  0.00    +0.000 A 
ATOM      5  C   UNL     1       5.167   4.218  18.284  0.00  0.00    +0.000 A 
ATOM      6  N   UNL     1       4.511   4.069  19.543  0.00  0.00    +0.000 N 
ATOM      7  C   UNL     1       3.156   3.643  19.671  0.00  0.00    +0.000 C 
ATOM      8  N   UNL     1       2.413   3.331  18.681  0.00  0.00    +0.000 NA
ATOM      9  C   UNL     1       1.101   2.943  19.136  0.00  0.00    +0.000 C 
ATOM     10  C   UNL     1       1.206   2.954  20.672  0.00  0.00    +0.000 C 
ATOM     11  N   UNL     1       2.511   3.504  20.907  0.00  0.00    +0.000 N 
ATOM     12  N   UNL     1       4.501   3.969  17.121  0.00  0.00    +0.000 NA
ATOM     13  C   UNL     1       5.077   4.122  15.903  0.00  0.00    +0.000 A 
ATOM     14  H   UNL     1       5.035   4.283  20.405  0.00  0.00    +0.000 HD
ATOM     15  H   UNL     1       2.936   3.673  21.831  0.00  0.00    +0.000 HD
ENDROOT
TORSDOF 0
ENDMDL
MODEL 9
REMARK VINA RESULT:      -5.7      3.098      5.500
REMARK  Name = 
REMARK  0 active torsions:
REMARK  status: ('A' for Active; 'I' for Inactive)
REMARK                            x       y       z     vdW  Elec       q    Type
REMARK                         _______ _______ _______ _____ _____    ______ ____
ROOT
ATOM      1 CL   UNL     1       0.470   2.237  18.645  0.00  0.00    +0.000 Cl
ATOM      2  C   UNL     1       2.089   2.866  18.882  0.00  0.00    +0.000 A 
ATOM      3  C   UNL     1       2.976   2.238  19.760  0.00  0.00    +0.000 A 
ATOM      4  C   UNL     1       4.273   2.737  19.918  0.00  0.00    +0.000 A 
ATOM      5  C   UNL     1       4.669   3.869  19.186  0.00  0.00    +0.000 A 
ATOM      6  N   UNL     1       5.997   4.378  19.309  0.00  0.00    +0.000 N 
ATOM      7  C   UNL     1       6.462   5.524  18.599  0.00  0.00    +0.000 C 
ATOM      8  N   UNL     1       5.733   6.214  17.811  0.00  0.00    +0.000 NA
ATOM      9  C   UNL     1       6.490   7.305  17.246  0.00  0.00    +0.000 C 
ATOM     10  C   UNL     1       7.854   7.235  17.956  0.00  0.00    +0.000 C 
ATOM     11  N   UNL     1       7.767   6.019  18.715  0.00  0.00    +0.000 N 
ATOM     12  N   UNL     1       3.773   4.462  18.349  0.00  0.00    +0.000 NA
ATOM     13  C   UNL     1       2.511   3.997  18.182  0.00  0.00    +0.000 A 
ATOM     14  H   UNL     1       6.658   3.896  19.937  0.00  0.00    +0.000 HD
ATOM     15  H   UNL     1       8.507   5.632  19.319  0.00  0.00    +0.000 HD
ENDROOT
TORSDOF 0
ENDMDL
