MODEL 1
REMARK VINA RESULT:     -10.1      0.000      0.000
REMARK  Name = 
REMARK  4 active torsions:
REMARK  status: ('A' for Active; 'I' for Inactive)
REMARK    1  A    between atoms: C_2  and  C_15
REMARK    2  A    between atoms: N_3  and  C_4
REMARK    3  A    between atoms: C_6  and  C_7
REMARK    4  A    between atoms: C_17  and  C_18
REMARK                            x       y       z     vdW  Elec       q    Type
REMARK                         _______ _______ _______ _____ _____    ______ ____
ROOT
ATOM      1  C   UNL     1       3.346   6.225  18.608  0.00  0.00    +0.000 A 
ATOM      2  C   UNL     1       2.662   7.395  18.938  0.00  0.00    +0.000 A 
ATOM      3  C   UNL     1       1.820   7.386  20.038  0.00  0.00    +0.000 A 
ATOM      4  N   UNL     1       1.661   6.275  20.798  0.00  0.00    +0.000 NA
ATOM      5  C   UNL     1       2.302   5.138  20.469  0.00  0.00    +0.000 A 
ATOM      6  C   UNL     1       2.076   4.012  21.251  0.00  0.00    +0.000 A 
ATOM      7  C   UNL     1       2.682   2.782  20.982  0.00  0.00    +0.000 A 
ATOM      8  C   UNL     1       3.542   2.669  19.903  0.00  0.00    +0.000 A 
ATOM      9  C   UNL     1       3.794   3.788  19.112  0.00  0.00    +0.000 A 
ATOM     10  C   UNL     1       3.172   5.041  19.370  0.00  0.00    +0.000 A 
ENDROOT
BRANCH   3  11
ATOM     11  C   UNL     1       1.059   8.580  20.467  0.00  0.00    +0.000 A 
ATOM     12  C   UNL     1       0.665   9.558  19.516  0.00  0.00    +0.000 A 
ATOM     13  C   UNL     1      -0.107  10.671  19.876  0.00  0.00    +0.000 A 
ATOM     14  C   UNL     1      -0.469  10.798  21.196  0.00  0.00    +0.000 A 
ATOM     15  C   UNL     1      -0.077   9.882  22.137  0.00  0.00    +0.000 A 
ATOM     16  C   UNL     1       0.687   8.778  21.811  0.00  0.00    +0.000 A 
ATOM     17  O   UNL     1      -0.531  10.186  23.383  0.00  0.00    +0.000 OA
ATOM     18  C   UNL     1      -1.246  11.410  23.116  0.00  0.00    +0.000 C 
ATOM     19  O   UNL     1      -1.226  11.794  21.726  0.00  0.00    +0.000 OA
ENDBRANCH   3  11
BRANCH   1  21
ATOM     20  O   UNL     1       4.400   7.311  16.851  0.00  0.00    +0.000 OA
ATOM     21  C   UNL     1       4.156   6.226  17.363  0.00  0.00    +0.000 C 
ATOM     22  N   UNL     1       4.580   4.990  16.890  0.00  0.00    +0.000 N 
ATOM     23  H   UNL     1       4.217   4.147  17.323  0.00  0.00    +0.000 HD
BRANCH  22  24
ATOM     24  C   UNL     1       5.402   4.785  15.745  0.00  0.00    +0.000 A 
ATOM     25  C   UNL     1       4.895   4.251  14.559  0.00  0.00    +0.000 A 
ATOM     26  C   UNL     1       5.713   3.989  13.450  0.00  0.00    +0.000 A 
ATOM     27  C   UNL     1       7.069   4.323  13.518  0.00  0.00    +0.000 A 
ATOM     28  C   UNL     1       7.592   4.891  14.684  0.00  0.00    +0.000 A 
ATOM     29  C   UNL     1       6.764   5.118  15.791  0.00  0.00    +0.000 A 
ATOM     30 CL   UNL     1       7.477   5.791  17.218  0.00  0.00    +0.000 Cl
BRANCH  26  31
ATOM     31  C   UNL     1       5.123   3.337  12.221  0.00  0.00    +0.000 C 
ATOM     32  F   UNL     1       5.614   2.093  11.967  0.00  0.00    +0.000 F 
ATOM     33  F   UNL     1       3.772   3.194  12.306  0.00  0.00    +0.000 F 
ATOM     34  F   UNL     1       5.353   4.064  11.093  0.00  0.00    +0.000 F 
ENDBRANCH  26  31
ENDBRANCH  22  24
ENDBRANCH   1  21
TORSDOF 4
ENDMDL
MODEL 2
REMARK VINA RESULT:     -10.1      0.841      1.313
REMARK  Name = 
REMARK  4 active torsions:
REMARK  status: ('A' for Active; 'I' for Inactive)
REMARK    1  A    between atoms: C_2  and  C_15
REMARK    2  A    between atoms: N_3  and  C_4
REMARK    3  A    between atoms: C_6  and  C_7
REMARK    4  A    between atoms: C_17  and  C_18
REMARK                            x       y       z     vdW  Elec       q    Type
REMARK                         _______ _______ _______ _____ _____    ______ ____
ROOT
ATOM      1  C   UNL     1       3.054   6.110  18.678  0.00  0.00    +0.000 A 
ATOM      2  C   UNL     1       2.546   7.310  19.178  0.00  0.00    +0.000 A 
ATOM      3  C   UNL     1       1.635   7.265  20.221  0.00  0.00    +0.000 A 
ATOM      4  N   UNL     1       1.242   6.088  20.765  0.00  0.00    +0.000 NA
ATOM      5  C   UNL     1       1.711   4.928  20.270  0.00  0.00    +0.000 A 
ATOM      6  C   UNL     1       1.248   3.744  20.831  0.00  0.00    +0.000 A 
ATOM      7  C   UNL     1       1.663   2.490  20.377  0.00  0.00    +0.000 A 
ATOM      8  C   UNL     1       2.571   2.410  19.335  0.00  0.00    +0.000 A 
ATOM      9  C   UNL     1       3.060   3.583  18.765  0.00  0.00    +0.000 A 
ATOM     10  C   UNL     1       2.633   4.865  19.212  0.00  0.00    +0.000 A 
ENDROOT
BRANCH   3  11
ATOM     11  C   UNL     1       1.050   8.484  20.818  0.00  0.00    +0.000 A 
ATOM     12  C   UNL     1       0.481   8.443  22.119  0.00  0.00    +0.000 A 
ATOM     13  C   UNL     1      -0.029   9.590  22.741  0.00  0.00    +0.000 A 
ATOM     14  C   UNL     1       0.028  10.774  22.044  0.00  0.00    +0.000 A 
ATOM     15  C   UNL     1       0.547  10.834  20.776  0.00  0.00    +0.000 A 
ATOM     16  C   UNL     1       1.052   9.718  20.138  0.00  0.00    +0.000 A 
ATOM     17  O   UNL     1       0.509  12.090  20.256  0.00  0.00    +0.000 OA
ATOM     18  C   UNL     1      -0.107  12.812  21.342  0.00  0.00    +0.000 C 
ATOM     19  O   UNL     1      -0.398  11.986  22.488  0.00  0.00    +0.000 OA
ENDBRANCH   3  11
BRANCH   1  21
ATOM     20  O   UNL     1       4.072   7.266  16.946  0.00  0.00    +0.000 OA
ATOM     21  C   UNL     1       3.943   6.177  17.490  0.00  0.00    +0.000 C 
ATOM     22  N   UNL     1       4.564   4.996  17.105  0.00  0.00    +0.000 N 
ATOM     23  H   UNL     1       4.289   4.127  17.553  0.00  0.00    +0.000 HD
BRANCH  22  24
ATOM     24  C   UNL     1       5.486   4.864  16.028  0.00  0.00    +0.000 A 
ATOM     25  C   UNL     1       5.105   4.341  14.791  0.00  0.00    +0.000 A 
ATOM     26  C   UNL     1       6.024   4.151  13.747  0.00  0.00    +0.000 A 
ATOM     27  C   UNL     1       7.351   4.549  13.935  0.00  0.00    +0.000 A 
ATOM     28  C   UNL     1       7.747   5.109  15.154  0.00  0.00    +0.000 A 
ATOM     29  C   UNL     1       6.821   5.262  16.195  0.00  0.00    +0.000 A 
ATOM     30 CL   UNL     1       7.379   5.928  17.691  0.00  0.00    +0.000 Cl
BRANCH  26  31
ATOM     31  C   UNL     1       5.570   3.507  12.458  0.00  0.00    +0.000 C 
ATOM     32  F   UNL     1       5.787   2.163  12.406  0.00  0.00    +0.000 F 
ATOM     33  F   UNL     1       4.239   3.677  12.232  0.00  0.00    +0.000 F 
ATOM     34  F   UNL     1       6.205   4.027  11.372  0.00  0.00    +0.000 F 
ENDBRANCH  26  31
ENDBRANCH  22  24
ENDBRANCH   1  21
TORSDOF 4
ENDMDL
MODEL 3
REMARK VINA RESULT:      -9.9      3.981      5.984
REMARK  Name = 
REMARK  4 active torsions:
REMARK  status: ('A' for Active; 'I' for Inactive)
REMARK    1  A    between atoms: C_2  and  C_15
REMARK    2  A    between atoms: N_3  and  C_4
REMARK    3  A    between atoms: C_6  and  C_7
REMARK    4  A    between atoms: C_17  and  C_18
REMARK                            x       y       z     vdW  Elec       q    Type
REMARK                         _______ _______ _______ _____ _____    ______ ____
ROOT
ATOM      1  C   UNL     1       1.355  10.066  19.447  0.00  0.00    +0.000 A 
ATOM      2  C   UNL     1       1.688  11.302  18.892  0.00  0.00    +0.000 A 
ATOM      3  C   UNL     1       1.305  12.456  19.557  0.00  0.00    +0.000 A 
ATOM      4  N   UNL     1       0.630  12.403  20.731  0.00  0.00    +0.000 NA
ATOM      5  C   UNL     1       0.286  11.213  21.257  0.00  0.00    +0.000 A 
ATOM      6  C   UNL     1      -0.442  11.209  22.440  0.00  0.00    +0.000 A 
ATOM      7  C   UNL     1      -0.859  10.026  23.057  0.00  0.00    +0.000 A 
ATOM      8  C   UNL     1      -0.537   8.809  22.480  0.00  0.00    +0.000 A 
ATOM      9  C   UNL     1       0.204   8.788  21.301  0.00  0.00    +0.000 A 
ATOM     10  C   UNL     1       0.622   9.987  20.659  0.00  0.00    +0.000 A 
ENDROOT
BRANCH   3  11
ATOM     11  C   UNL     1       1.619  13.808  19.048  0.00  0.00    +0.000 A 
ATOM     12  C   UNL     1       2.839  14.051  18.364  0.00  0.00    +0.000 A 
ATOM     13  C   UNL     1       3.145  15.304  17.816  0.00  0.00    +0.000 A 
ATOM     14  C   UNL     1       2.221  16.311  17.971  0.00  0.00    +0.000 A 
ATOM     15  C   UNL     1       1.049  16.109  18.652  0.00  0.00    +0.000 A 
ATOM     16  C   UNL     1       0.724  14.885  19.205  0.00  0.00    +0.000 A 
ATOM     17  O   UNL     1       0.273  17.225  18.699  0.00  0.00    +0.000 OA
ATOM     18  C   UNL     1       1.103  18.159  17.977  0.00  0.00    +0.000 C 
ATOM     19  O   UNL     1       2.333  17.579  17.496  0.00  0.00    +0.000 OA
ENDBRANCH   3  11
BRANCH   1  21
ATOM     20  O   UNL     1       1.225   8.772  17.528  0.00  0.00    +0.000 OA
ATOM     21  C   UNL     1       1.678   8.847  18.663  0.00  0.00    +0.000 C 
ATOM     22  N   UNL     1       2.480   7.897  19.282  0.00  0.00    +0.000 N 
ATOM     23  H   UNL     1       2.697   8.005  20.269  0.00  0.00    +0.000 HD
BRANCH  22  24
ATOM     24  C   UNL     1       2.939   6.690  18.683  0.00  0.00    +0.000 A 
ATOM     25  C   UNL     1       3.862   6.690  17.636  0.00  0.00    +0.000 A 
ATOM     26  C   UNL     1       4.270   5.507  17.001  0.00  0.00    +0.000 A 
ATOM     27  C   UNL     1       3.776   4.285  17.469  0.00  0.00    +0.000 A 
ATOM     28  C   UNL     1       2.877   4.259  18.540  0.00  0.00    +0.000 A 
ATOM     29  C   UNL     1       2.459   5.453  19.141  0.00  0.00    +0.000 A 
ATOM     30 CL   UNL     1       1.318   5.357  20.439  0.00  0.00    +0.000 Cl
BRANCH  26  31
ATOM     31  C   UNL     1       5.212   5.576  15.822  0.00  0.00    +0.000 C 
ATOM     32  F   UNL     1       5.101   4.523  14.965  0.00  0.00    +0.000 F 
ATOM     33  F   UNL     1       5.019   6.692  15.067  0.00  0.00    +0.000 F 
ATOM     34  F   UNL     1       6.517   5.605  16.208  0.00  0.00    +0.000 F 
ENDBRANCH  26  31
ENDBRANCH  22  24
ENDBRANCH   1  21
TORSDOF 4
ENDMDL
MODEL 4
REMARK VINA RESULT:      -9.6      1.120      1.358
REMARK  Name = 
REMARK  4 active torsions:
REMARK  status: ('A' for Active; 'I' for Inactive)
REMARK    1  A    between atoms: C_2  and  C_15
REMARK    2  A    between atoms: N_3  and  C_4
REMARK    3  A    between atoms: C_6  and  C_7
REMARK    4  A    between atoms: C_17  and  C_18
REMARK                            x       y       z     vdW  Elec       q    Type
REMARK                         _______ _______ _______ _____ _____    ______ ____
ROOT
ATOM      1  C   UNL     1       3.649   5.250  18.890  0.00  0.00    +0.000 A 
ATOM      2  C   UNL     1       3.238   6.583  18.923  0.00  0.00    +0.000 A 
ATOM      3  C   UNL     1       2.182   6.934  19.748  0.00  0.00    +0.000 A 
ATOM      4  N   UNL     1       1.557   6.016  20.525  0.00  0.00    +0.000 NA
ATOM      5  C   UNL     1       1.935   4.725  20.478  0.00  0.00    +0.000 A 
ATOM      6  C   UNL     1       1.238   3.812  21.259  0.00  0.00    +0.000 A 
ATOM      7  C   UNL     1       1.544   2.449  21.267  0.00  0.00    +0.000 A 
ATOM      8  C   UNL     1       2.579   1.979  20.477  0.00  0.00    +0.000 A 
ATOM      9  C   UNL     1       3.302   2.878  19.696  0.00  0.00    +0.000 A 
ATOM     10  C   UNL     1       2.989   4.266  19.671  0.00  0.00    +0.000 A 
ENDROOT
BRANCH   3  11
ATOM     11  C   UNL     1       1.683   8.321  19.854  0.00  0.00    +0.000 A 
ATOM     12  C   UNL     1       1.597   9.142  18.698  0.00  0.00    +0.000 A 
ATOM     13  C   UNL     1       1.073  10.441  18.749  0.00  0.00    +0.000 A 
ATOM     14  C   UNL     1       0.648  10.911  19.969  0.00  0.00    +0.000 A 
ATOM     15  C   UNL     1       0.747  10.148  21.104  0.00  0.00    +0.000 A 
ATOM     16  C   UNL     1       1.262   8.867  21.083  0.00  0.00    +0.000 A 
ATOM     17  O   UNL     1       0.278  10.791  22.207  0.00  0.00    +0.000 OA
ATOM     18  C   UNL     1      -0.116  12.055  21.634  0.00  0.00    +0.000 C 
ATOM     19  O   UNL     1       0.099  12.130  20.210  0.00  0.00    +0.000 OA
ENDBRANCH   3  11
BRANCH   1  21
ATOM     20  O   UNL     1       5.579   4.108  18.302  0.00  0.00    +0.000 OA
ATOM     21  C   UNL     1       4.708   4.876  17.917  0.00  0.00    +0.000 C 
ATOM     22  N   UNL     1       4.611   5.423  16.644  0.00  0.00    +0.000 N 
ATOM     23  H   UNL     1       3.918   6.146  16.470  0.00  0.00    +0.000 HD
BRANCH  22  24
ATOM     24  C   UNL     1       5.496   5.152  15.562  0.00  0.00    +0.000 A 
ATOM     25  C   UNL     1       5.079   4.458  14.425  0.00  0.00    +0.000 A 
ATOM     26  C   UNL     1       5.961   4.133  13.384  0.00  0.00    +0.000 A 
ATOM     27  C   UNL     1       7.289   4.566  13.465  0.00  0.00    +0.000 A 
ATOM     28  C   UNL     1       7.720   5.293  14.579  0.00  0.00    +0.000 A 
ATOM     29  C   UNL     1       6.830   5.581  15.622  0.00  0.00    +0.000 A 
ATOM     30 CL   UNL     1       7.432   6.454  16.990  0.00  0.00    +0.000 Cl
BRANCH  26  31
ATOM     31  C   UNL     1       5.471   3.312  12.215  0.00  0.00    +0.000 C 
ATOM     32  F   UNL     1       5.924   3.747  11.006  0.00  0.00    +0.000 F 
ATOM     33  F   UNL     1       5.842   2.006  12.303  0.00  0.00    +0.000 F 
ATOM     34  F   UNL     1       4.112   3.311  12.122  0.00  0.00    +0.000 F 
ENDBRANCH  26  31
ENDBRANCH  22  24
ENDBRANCH   1  21
TORSDOF 4
ENDMDL
MODEL 5
REMARK VINA RESULT:      -9.6      4.268      6.380
REMARK  Name = 
REMARK  4 active torsions:
REMARK  status: ('A' for Active; 'I' for Inactive)
REMARK    1  A    between atoms: C_2  and  C_15
REMARK    2  A    between atoms: N_3  and  C_4
REMARK    3  A    between atoms: C_6  and  C_7
REMARK    4  A    between atoms: C_17  and  C_18
REMARK                            x       y       z     vdW  Elec       q    Type
REMARK                         _______ _______ _______ _____ _____    ______ ____
ROOT
ATOM      1  C   UNL     1       1.359   9.889  19.424  0.00  0.00    +0.000 A 
ATOM      2  C   UNL     1       1.768  11.087  18.838  0.00  0.00    +0.000 A 
ATOM      3  C   UNL     1       1.473  12.278  19.481  0.00  0.00    +0.000 A 
ATOM      4  N   UNL     1       0.812  12.297  20.664  0.00  0.00    +0.000 NA
ATOM      5  C   UNL     1       0.395  11.145  21.221  0.00  0.00    +0.000 A 
ATOM      6  C   UNL     1      -0.316  11.215  22.412  0.00  0.00    +0.000 A 
ATOM      7  C   UNL     1      -0.803  10.077  23.060  0.00  0.00    +0.000 A 
ATOM      8  C   UNL     1      -0.572   8.829  22.507  0.00  0.00    +0.000 A 
ATOM      9  C   UNL     1       0.150   8.732  21.320  0.00  0.00    +0.000 A 
ATOM     10  C   UNL     1       0.639   9.886  20.646  0.00  0.00    +0.000 A 
ENDROOT
BRANCH   3  11
ATOM     11  C   UNL     1       1.871  13.595  18.939  0.00  0.00    +0.000 A 
ATOM     12  C   UNL     1       3.146  13.767  18.339  0.00  0.00    +0.000 A 
ATOM     13  C   UNL     1       3.535  14.983  17.762  0.00  0.00    +0.000 A 
ATOM     14  C   UNL     1       2.638  16.025  17.801  0.00  0.00    +0.000 A 
ATOM     15  C   UNL     1       1.412  15.891  18.399  0.00  0.00    +0.000 A 
ATOM     16  C   UNL     1       1.005  14.705  18.979  0.00  0.00    +0.000 A 
ATOM     17  O   UNL     1       0.674  17.033  18.337  0.00  0.00    +0.000 OA
ATOM     18  C   UNL     1       1.587  17.905  17.640  0.00  0.00    +0.000 C 
ATOM     19  O   UNL     1       2.829  17.265  17.281  0.00  0.00    +0.000 OA
ENDBRANCH   3  11
BRANCH   1  21
ATOM     20  O   UNL     1       1.231   8.612  17.493  0.00  0.00    +0.000 OA
ATOM     21  C   UNL     1       1.589   8.634  18.664  0.00  0.00    +0.000 C 
ATOM     22  N   UNL     1       2.205   7.591  19.345  0.00  0.00    +0.000 N 
ATOM     23  H   UNL     1       2.347   7.675  20.347  0.00  0.00    +0.000 HD
BRANCH  22  24
ATOM     24  C   UNL     1       2.554   6.332  18.781  0.00  0.00    +0.000 A 
ATOM     25  C   UNL     1       1.883   5.157  19.126  0.00  0.00    +0.000 A 
ATOM     26  C   UNL     1       2.263   3.905  18.621  0.00  0.00    +0.000 A 
ATOM     27  C   UNL     1       3.314   3.840  17.700  0.00  0.00    +0.000 A 
ATOM     28  C   UNL     1       3.978   5.008  17.313  0.00  0.00    +0.000 A 
ATOM     29  C   UNL     1       3.602   6.245  17.852  0.00  0.00    +0.000 A 
ATOM     30 CL   UNL     1       4.484   7.651  17.360  0.00  0.00    +0.000 Cl
BRANCH  26  31
ATOM     31  C   UNL     1       1.550   2.659  19.092  0.00  0.00    +0.000 C 
ATOM     32  F   UNL     1       1.275   2.652  20.426  0.00  0.00    +0.000 F 
ATOM     33  F   UNL     1       0.357   2.474  18.464  0.00  0.00    +0.000 F 
ATOM     34  F   UNL     1       2.277   1.532  18.858  0.00  0.00    +0.000 F 
ENDBRANCH  26  31
ENDBRANCH  22  24
ENDBRANCH   1  21
TORSDOF 4
ENDMDL
MODEL 6
REMARK VINA RESULT:      -9.6      3.991      6.010
REMARK  Name = 
REMARK  4 active torsions:
REMARK  status: ('A' for Active; 'I' for Inactive)
REMARK    1  A    between atoms: C_2  and  C_15
REMARK    2  A    between atoms: N_3  and  C_4
REMARK    3  A    between atoms: C_6  and  C_7
REMARK    4  A    between atoms: C_17  and  C_18
REMARK                            x       y       z     vdW  Elec       q    Type
REMARK                         _______ _______ _______ _____ _____    ______ ____
ROOT
ATOM      1  C   UNL     1       1.238  10.007  19.531  0.00  0.00    +0.000 A 
ATOM      2  C   UNL     1       1.478  11.265  18.979  0.00  0.00    +0.000 A 
ATOM      3  C   UNL     1       1.044  12.388  19.665  0.00  0.00    +0.000 A 
ATOM      4  N   UNL     1       0.409  12.285  20.858  0.00  0.00    +0.000 NA
ATOM      5  C   UNL     1       0.155  11.072  21.383  0.00  0.00    +0.000 A 
ATOM      6  C   UNL     1      -0.536  11.013  22.587  0.00  0.00    +0.000 A 
ATOM      7  C   UNL     1      -0.861   9.802  23.203  0.00  0.00    +0.000 A 
ATOM      8  C   UNL     1      -0.482   8.612  22.606  0.00  0.00    +0.000 A 
ATOM      9  C   UNL     1       0.224   8.646  21.406  0.00  0.00    +0.000 A 
ATOM     10  C   UNL     1       0.548   9.873  20.764  0.00  0.00    +0.000 A 
ENDROOT
BRANCH   3  11
ATOM     11  C   UNL     1       1.259  13.761  19.161  0.00  0.00    +0.000 A 
ATOM     12  C   UNL     1       0.413  14.820  19.582  0.00  0.00    +0.000 A 
ATOM     13  C   UNL     1       0.622  16.143  19.172  0.00  0.00    +0.000 A 
ATOM     14  C   UNL     1       1.680  16.392  18.329  0.00  0.00    +0.000 A 
ATOM     15  C   UNL     1       2.495  15.382  17.887  0.00  0.00    +0.000 A 
ATOM     16  C   UNL     1       2.309  14.068  18.272  0.00  0.00    +0.000 A 
ATOM     17  O   UNL     1       3.478  15.829  17.060  0.00  0.00    +0.000 OA
ATOM     18  C   UNL     1       3.178  17.239  17.025  0.00  0.00    +0.000 C 
ATOM     19  O   UNL     1       2.048  17.606  17.844  0.00  0.00    +0.000 OA
ENDBRANCH   3  11
BRANCH   1  21
ATOM     20  O   UNL     1       1.195   8.761  17.577  0.00  0.00    +0.000 OA
ATOM     21  C   UNL     1       1.612   8.816  18.727  0.00  0.00    +0.000 C 
ATOM     22  N   UNL     1       2.416   7.868  19.346  0.00  0.00    +0.000 N 
ATOM     23  H   UNL     1       2.601   7.954  20.341  0.00  0.00    +0.000 HD
BRANCH  22  24
ATOM     24  C   UNL     1       2.920   6.687  18.730  0.00  0.00    +0.000 A 
ATOM     25  C   UNL     1       3.841   6.736  17.682  0.00  0.00    +0.000 A 
ATOM     26  C   UNL     1       4.293   5.578  17.031  0.00  0.00    +0.000 A 
ATOM     27  C   UNL     1       3.847   4.332  17.484  0.00  0.00    +0.000 A 
ATOM     28  C   UNL     1       2.951   4.257  18.555  0.00  0.00    +0.000 A 
ATOM     29  C   UNL     1       2.488   5.427  19.172  0.00  0.00    +0.000 A 
ATOM     30 CL   UNL     1       1.354   5.270  20.470  0.00  0.00    +0.000 Cl
BRANCH  26  31
ATOM     31  C   UNL     1       5.229   5.699  15.852  0.00  0.00    +0.000 C 
ATOM     32  F   UNL     1       6.544   5.780  16.198  0.00  0.00    +0.000 F 
ATOM     33  F   UNL     1       5.132   4.642  15.000  0.00  0.00    +0.000 F 
ATOM     34  F   UNL     1       4.974   6.808  15.105  0.00  0.00    +0.000 F 
ENDBRANCH  26  31
ENDBRANCH  22  24
ENDBRANCH   1  21
TORSDOF 4
ENDMDL
MODEL 7
REMARK VINA RESULT:      -9.4      6.254     10.019
REMARK  Name = 
REMARK  4 active torsions:
REMARK  status: ('A' for Active; 'I' for Inactive)
REMARK    1  A    between atoms: C_2  and  C_15
REMARK    2  A    between atoms: N_3  and  C_4
REMARK    3  A    between atoms: C_6  and  C_7
REMARK    4  A    between atoms: C_17  and  C_18
REMARK                            x       y       z     vdW  Elec       q    Type
REMARK                         _______ _______ _______ _____ _____    ______ ____
ROOT
ATOM      1  C   UNL     1       0.737  10.894  19.503  0.00  0.00    +0.000 A 
ATOM      2  C   UNL     1       1.485   9.920  18.840  0.00  0.00    +0.000 A 
ATOM      3  C   UNL     1       1.674   8.693  19.453  0.00  0.00    +0.000 A 
ATOM      4  N   UNL     1       1.139   8.420  20.668  0.00  0.00    +0.000 NA
ATOM      5  C   UNL     1       0.436   9.364  21.321  0.00  0.00    +0.000 A 
ATOM      6  C   UNL     1      -0.058   9.055  22.582  0.00  0.00    +0.000 A 
ATOM      7  C   UNL     1      -0.786   9.971  23.345  0.00  0.00    +0.000 A 
ATOM      8  C   UNL     1      -1.034  11.234  22.835  0.00  0.00    +0.000 A 
ATOM      9  C   UNL     1      -0.561  11.563  21.567  0.00  0.00    +0.000 A 
ATOM     10  C   UNL     1       0.192  10.641  20.788  0.00  0.00    +0.000 A 
ENDROOT
BRANCH   3  11
ATOM     11  C   UNL     1       2.447   7.600  18.824  0.00  0.00    +0.000 A 
ATOM     12  C   UNL     1       3.280   7.864  17.705  0.00  0.00    +0.000 A 
ATOM     13  C   UNL     1       4.072   6.867  17.120  0.00  0.00    +0.000 A 
ATOM     14  C   UNL     1       4.012   5.604  17.661  0.00  0.00    +0.000 A 
ATOM     15  C   UNL     1       3.195   5.319  18.723  0.00  0.00    +0.000 A 
ATOM     16  C   UNL     1       2.401   6.281  19.316  0.00  0.00    +0.000 A 
ATOM     17  O   UNL     1       3.274   4.016  19.108  0.00  0.00    +0.000 OA
ATOM     18  C   UNL     1       4.230   3.513  18.152  0.00  0.00    +0.000 C 
ATOM     19  O   UNL     1       4.717   4.520  17.242  0.00  0.00    +0.000 OA
ENDBRANCH   3  11
BRANCH   1  21
ATOM     20  O   UNL     1      -0.245  12.409  18.049  0.00  0.00    +0.000 OA
ATOM     21  C   UNL     1       0.640  12.237  18.877  0.00  0.00    +0.000 C 
ATOM     22  N   UNL     1       1.557  13.192  19.297  0.00  0.00    +0.000 N 
ATOM     23  H   UNL     1       2.325  12.906  19.897  0.00  0.00    +0.000 HD
BRANCH  22  24
ATOM     24  C   UNL     1       1.598  14.545  18.855  0.00  0.00    +0.000 A 
ATOM     25  C   UNL     1       0.494  15.391  18.967  0.00  0.00    +0.000 A 
ATOM     26  C   UNL     1       0.509  16.706  18.476  0.00  0.00    +0.000 A 
ATOM     27  C   UNL     1       1.686  17.200  17.906  0.00  0.00    +0.000 A 
ATOM     28  C   UNL     1       2.816  16.381  17.815  0.00  0.00    +0.000 A 
ATOM     29  C   UNL     1       2.771  15.061  18.284  0.00  0.00    +0.000 A 
ATOM     30 CL   UNL     1       4.191  14.086  18.112  0.00  0.00    +0.000 Cl
BRANCH  26  31
ATOM     31  C   UNL     1      -0.742  17.548  18.555  0.00  0.00    +0.000 C 
ATOM     32  F   UNL     1      -1.832  16.877  19.022  0.00  0.00    +0.000 F 
ATOM     33  F   UNL     1      -0.593  18.628  19.370  0.00  0.00    +0.000 F 
ATOM     34  F   UNL     1      -1.106  18.043  17.340  0.00  0.00    +0.000 F 
ENDBRANCH  26  31
ENDBRANCH  22  24
ENDBRANCH   1  21
TORSDOF 4
ENDMDL
MODEL 8
REMARK VINA RESULT:      -9.3      6.187     10.052
REMARK  Name = 
REMARK  4 active torsions:
REMARK  status: ('A' for Active; 'I' for Inactive)
REMARK    1  A    between atoms: C_2  and  C_15
REMARK    2  A    between atoms: N_3  and  C_4
REMARK    3  A    between atoms: C_6  and  C_7
REMARK    4  A    between atoms: C_17  and  C_18
REMARK                            x       y       z     vdW  Elec       q    Type
REMARK                         _______ _______ _______ _____ _____    ______ ____
ROOT
ATOM      1  C   UNL     1       0.824  10.844  19.440  0.00  0.00    +0.000 A 
ATOM      2  C   UNL     1       1.566   9.877  18.761  0.00  0.00    +0.000 A 
ATOM      3  C   UNL     1       1.753   8.641  19.357  0.00  0.00    +0.000 A 
ATOM      4  N   UNL     1       1.222   8.353  20.570  0.00  0.00    +0.000 NA
ATOM      5  C   UNL     1       0.524   9.291  21.238  0.00  0.00    +0.000 A 
ATOM      6  C   UNL     1       0.034   8.966  22.497  0.00  0.00    +0.000 A 
ATOM      7  C   UNL     1      -0.687   9.875  23.275  0.00  0.00    +0.000 A 
ATOM      8  C   UNL     1      -0.933  11.146  22.783  0.00  0.00    +0.000 A 
ATOM      9  C   UNL     1      -0.463  11.490  21.518  0.00  0.00    +0.000 A 
ATOM     10  C   UNL     1       0.283  10.576  20.724  0.00  0.00    +0.000 A 
ENDROOT
BRANCH   3  11
ATOM     11  C   UNL     1       2.520   7.554  18.710  0.00  0.00    +0.000 A 
ATOM     12  C   UNL     1       2.325   6.205  19.108  0.00  0.00    +0.000 A 
ATOM     13  C   UNL     1       2.989   5.144  18.479  0.00  0.00    +0.000 A 
ATOM     14  C   UNL     1       3.855   5.449  17.455  0.00  0.00    +0.000 A 
ATOM     15  C   UNL     1       4.081   6.746  17.071  0.00  0.00    +0.000 A 
ATOM     16  C   UNL     1       3.443   7.811  17.678  0.00  0.00    +0.000 A 
ATOM     17  O   UNL     1       4.972   6.840  16.048  0.00  0.00    +0.000 OA
ATOM     18  C   UNL     1       5.290   5.448  15.841  0.00  0.00    +0.000 C 
ATOM     19  O   UNL     1       4.570   4.559  16.719  0.00  0.00    +0.000 OA
ENDBRANCH   3  11
BRANCH   1  21
ATOM     20  O   UNL     1      -0.171  12.388  18.026  0.00  0.00    +0.000 OA
ATOM     21  C   UNL     1       0.730  12.196  18.832  0.00  0.00    +0.000 C 
ATOM     22  N   UNL     1       1.667  13.135  19.243  0.00  0.00    +0.000 N 
ATOM     23  H   UNL     1       2.444  12.832  19.824  0.00  0.00    +0.000 HD
BRANCH  22  24
ATOM     24  C   UNL     1       1.714  14.492  18.817  0.00  0.00    +0.000 A 
ATOM     25  C   UNL     1       0.610  15.339  18.927  0.00  0.00    +0.000 A 
ATOM     26  C   UNL     1       0.632  16.659  18.451  0.00  0.00    +0.000 A 
ATOM     27  C   UNL     1       1.816  17.157  17.899  0.00  0.00    +0.000 A 
ATOM     28  C   UNL     1       2.946  16.338  17.811  0.00  0.00    +0.000 A 
ATOM     29  C   UNL     1       2.894  15.013  18.264  0.00  0.00    +0.000 A 
ATOM     30 CL   UNL     1       4.314  14.038  18.096  0.00  0.00    +0.000 Cl
BRANCH  26  31
ATOM     31  C   UNL     1      -0.619  17.503  18.526  0.00  0.00    +0.000 C 
ATOM     32  F   UNL     1      -1.686  16.859  19.076  0.00  0.00    +0.000 F 
ATOM     33  F   UNL     1      -0.442  18.631  19.266  0.00  0.00    +0.000 F 
ATOM     34  F   UNL     1      -1.031  17.920  17.297  0.00  0.00    +0.000 F 
ENDBRANCH  26  31
ENDBRANCH  22  24
ENDBRANCH   1  21
TORSDOF 4
ENDMDL
MODEL 9
REMARK VINA RESULT:      -9.2      1.325      1.863
REMARK  Name = 
REMARK  4 active torsions:
REMARK  status: ('A' for Active; 'I' for Inactive)
REMARK    1  A    between atoms: C_2  and  C_15
REMARK    2  A    between atoms: N_3  and  C_4
REMARK    3  A    between atoms: C_6  and  C_7
REMARK    4  A    between atoms: C_17  and  C_18
REMARK                            x       y       z     vdW  Elec       q    Type
REMARK                         _______ _______ _______ _____ _____    ______ ____
ROOT
ATOM      1  C   UNL     1       3.755   5.183  19.152  0.00  0.00    +0.000 A 
ATOM      2  C   UNL     1       3.265   6.488  19.211  0.00  0.00    +0.000 A 
ATOM      3  C   UNL     1       2.188   6.759  20.039  0.00  0.00    +0.000 A 
ATOM      4  N   UNL     1       1.617   5.790  20.794  0.00  0.00    +0.000 NA
ATOM      5  C   UNL     1       2.071   4.525  20.722  0.00  0.00    +0.000 A 
ATOM      6  C   UNL     1       1.428   3.556  21.482  0.00  0.00    +0.000 A 
ATOM      7  C   UNL     1       1.815   2.213  21.464  0.00  0.00    +0.000 A 
ATOM      8  C   UNL     1       2.879   1.823  20.668  0.00  0.00    +0.000 A 
ATOM      9  C   UNL     1       3.548   2.779  19.908  0.00  0.00    +0.000 A 
ATOM     10  C   UNL     1       3.153   4.146  19.910  0.00  0.00    +0.000 A 
ENDROOT
BRANCH   3  11
ATOM     11  C   UNL     1       1.607   8.112  20.170  0.00  0.00    +0.000 A 
ATOM     12  C   UNL     1       1.122   8.564  21.426  0.00  0.00    +0.000 A 
ATOM     13  C   UNL     1       0.619   9.860  21.603  0.00  0.00    +0.000 A 
ATOM     14  C   UNL     1       0.597  10.692  20.507  0.00  0.00    +0.000 A 
ATOM     15  C   UNL     1       1.034  10.269  19.278  0.00  0.00    +0.000 A 
ATOM     16  C   UNL     1       1.530   8.996  19.076  0.00  0.00    +0.000 A 
ATOM     17  O   UNL     1       0.927  11.234  18.326  0.00  0.00    +0.000 OA
ATOM     18  C   UNL     1       0.360  12.312  19.099  0.00  0.00    +0.000 C 
ATOM     19  O   UNL     1       0.165  11.980  20.489  0.00  0.00    +0.000 OA
ENDBRANCH   3  11
BRANCH   1  21
ATOM     20  O   UNL     1       5.769   4.199  18.560  0.00  0.00    +0.000 OA
ATOM     21  C   UNL     1       4.837   4.894  18.176  0.00  0.00    +0.000 C 
ATOM     22  N   UNL     1       4.692   5.428  16.902  0.00  0.00    +0.000 N 
ATOM     23  H   UNL     1       3.943   6.092  16.730  0.00  0.00    +0.000 HD
BRANCH  22  24
ATOM     24  C   UNL     1       5.592   5.226  15.817  0.00  0.00    +0.000 A 
ATOM     25  C   UNL     1       5.222   4.512  14.676  0.00  0.00    +0.000 A 
ATOM     26  C   UNL     1       6.124   4.256  13.632  0.00  0.00    +0.000 A 
ATOM     27  C   UNL     1       7.418   4.780  13.714  0.00  0.00    +0.000 A 
ATOM     28  C   UNL     1       7.799   5.528  14.833  0.00  0.00    +0.000 A 
ATOM     29  C   UNL     1       6.893   5.747  15.879  0.00  0.00    +0.000 A 
ATOM     30 CL   UNL     1       7.435   6.651  17.252  0.00  0.00    +0.000 Cl
BRANCH  26  31
ATOM     31  C   UNL     1       5.690   3.410  12.458  0.00  0.00    +0.000 C 
ATOM     32  F   UNL     1       5.827   2.071  12.663  0.00  0.00    +0.000 F 
ATOM     33  F   UNL     1       4.384   3.605  12.131  0.00  0.00    +0.000 F 
ATOM     34  F   UNL     1       6.405   3.688  11.333  0.00  0.00    +0.000 F 
ENDBRANCH  26  31
ENDBRANCH  22  24
ENDBRANCH   1  21
TORSDOF 4
ENDMDL
