MODEL 1
REMARK VINA RESULT:      -7.1      0.000      0.000
REMARK  Name = 
REMARK  5 active torsions:
REMARK  status: ('A' for Active; 'I' for Inactive)
REMARK    1  A    between atoms: C_1  and  C_2
REMARK    2  A    between atoms: N_6  and  C_7
REMARK    3  A    between atoms: C_12  and  C_14
REMARK    4  A    between atoms: C_18  and  S_19
REMARK    5  A    between atoms: S_19  and  C_20
REMARK                            x       y       z     vdW  Elec       q    Type
REMARK                         _______ _______ _______ _____ _____    ______ ____
ROOT
ATOM      1  C   UNL     1       2.146   5.772  19.119  0.00  0.00    +0.000 C 
ATOM      2  C   UNL     1       1.733   5.575  20.583  0.00  0.00    +0.000 C 
ATOM      3  C   UNL     1       0.920   6.804  21.008  0.00  0.00    +0.000 C 
ATOM      4  C   UNL     1       1.646   8.124  20.712  0.00  0.00    +0.000 C 
ATOM      5  N   UNL     1       2.206   8.179  19.350  0.00  0.00    +0.000 N 
ATOM      6  C   UNL     1       1.795   8.940  18.243  0.00  0.00    +0.000 C 
ATOM      7  O   UNL     1       2.263   8.761  17.121  0.00  0.00    +0.000 OA
ATOM      8  C   UNL     1       3.040   7.015  19.027  0.00  0.00    +0.000 C 
ENDROOT
BRANCH   1  14
ATOM      9  C   UNL     1       0.745   3.101  18.812  0.00  0.00    +0.000 C 
ATOM     10  C   UNL     1       2.065   3.440  18.218  0.00  0.00    +0.000 A 
ATOM     11  N   UNL     1       2.763   2.682  17.398  0.00  0.00    +0.000 NA
ATOM     12  C   UNL     1       3.889   3.395  17.090  0.00  0.00    +0.000 A 
ATOM     13  C   UNL     1       3.907   4.598  17.758  0.00  0.00    +0.000 A 
ATOM     14  N   UNL     1       2.724   4.637  18.438  0.00  0.00    +0.000 N 
ENDBRANCH   1  14
BRANCH   6  15
ATOM     15  C   UNL     1       0.707   9.944  18.336  0.00  0.00    +0.000 A 
ATOM     16  C   UNL     1       1.036  11.217  18.829  0.00  0.00    +0.000 A 
ATOM     17  C   UNL     1       0.083  12.239  18.864  0.00  0.00    +0.000 A 
ATOM     18  C   UNL     1      -1.199  12.002  18.373  0.00  0.00    +0.000 A 
ATOM     19  C   UNL     1      -1.533  10.719  17.933  0.00  0.00    +0.000 A 
ATOM     20  C   UNL     1      -0.606   9.675  17.973  0.00  0.00    +0.000 A 
BRANCH  19  21
ATOM     21  S   UNL     1      -3.110  10.408  17.184  0.00  0.00    +0.000 S 
ATOM     22  C   UNL     1      -2.688  10.075  15.498  0.00  0.00    +0.000 C 
ATOM     23  O   UNL     1      -3.648   9.199  17.776  0.00  0.00    +0.000 OA
ATOM     24  O   UNL     1      -3.853  11.654  17.233  0.00  0.00    +0.000 OA
ENDBRANCH  19  21
ENDBRANCH   6  15
TORSDOF 3
ENDMDL
MODEL 2
REMARK VINA RESULT:      -7.0      0.704      1.000
REMARK  Name = 
REMARK  5 active torsions:
REMARK  status: ('A' for Active; 'I' for Inactive)
REMARK    1  A    between atoms: C_1  and  C_2
REMARK    2  A    between atoms: N_6  and  C_7
REMARK    3  A    between atoms: C_12  and  C_14
REMARK    4  A    between atoms: C_18  and  S_19
REMARK    5  A    between atoms: S_19  and  C_20
REMARK                            x       y       z     vdW  Elec       q    Type
REMARK                         _______ _______ _______ _____ _____    ______ ____
ROOT
ATOM      1  C   UNL     1       2.157   5.766  19.137  0.00  0.00    +0.000 C 
ATOM      2  C   UNL     1       1.744   5.572  20.602  0.00  0.00    +0.000 C 
ATOM      3  C   UNL     1       0.945   6.810  21.029  0.00  0.00    +0.000 C 
ATOM      4  C   UNL     1       1.686   8.122  20.733  0.00  0.00    +0.000 C 
ATOM      5  N   UNL     1       2.244   8.172  19.370  0.00  0.00    +0.000 N 
ATOM      6  C   UNL     1       1.839   8.939  18.264  0.00  0.00    +0.000 C 
ATOM      7  O   UNL     1       2.304   8.755  17.141  0.00  0.00    +0.000 OA
ATOM      8  C   UNL     1       3.064   6.999  19.045  0.00  0.00    +0.000 C 
ENDROOT
BRANCH   1  14
ATOM      9  C   UNL     1       0.750   3.092  18.882  0.00  0.00    +0.000 C 
ATOM     10  C   UNL     1       2.058   3.426  18.259  0.00  0.00    +0.000 A 
ATOM     11  N   UNL     1       2.739   2.661  17.431  0.00  0.00    +0.000 NA
ATOM     12  C   UNL     1       3.858   3.372  17.093  0.00  0.00    +0.000 A 
ATOM     13  C   UNL     1       3.889   4.580  17.750  0.00  0.00    +0.000 A 
ATOM     14  N   UNL     1       2.721   4.625  18.454  0.00  0.00    +0.000 N 
ENDBRANCH   1  14
BRANCH   6  15
ATOM     15  C   UNL     1       0.763   9.954  18.360  0.00  0.00    +0.000 A 
ATOM     16  C   UNL     1       1.103  11.218  18.868  0.00  0.00    +0.000 A 
ATOM     17  C   UNL     1       0.162  12.251  18.907  0.00  0.00    +0.000 A 
ATOM     18  C   UNL     1      -1.119  12.034  18.404  0.00  0.00    +0.000 A 
ATOM     19  C   UNL     1      -1.465  10.761  17.948  0.00  0.00    +0.000 A 
ATOM     20  C   UNL     1      -0.550   9.705  17.984  0.00  0.00    +0.000 A 
BRANCH  19  21
ATOM     21  S   UNL     1      -3.040  10.476  17.184  0.00  0.00    +0.000 S 
ATOM     22  C   UNL     1      -4.066  11.715  17.923  0.00  0.00    +0.000 C 
ATOM     23  O   UNL     1      -2.903  10.768  15.772  0.00  0.00    +0.000 OA
ATOM     24  O   UNL     1      -3.497   9.174  17.636  0.00  0.00    +0.000 OA
ENDBRANCH  19  21
ENDBRANCH   6  15
TORSDOF 3
ENDMDL
MODEL 3
REMARK VINA RESULT:      -6.8      0.611      1.196
REMARK  Name = 
REMARK  5 active torsions:
REMARK  status: ('A' for Active; 'I' for Inactive)
REMARK    1  A    between atoms: C_1  and  C_2
REMARK    2  A    between atoms: N_6  and  C_7
REMARK    3  A    between atoms: C_12  and  C_14
REMARK    4  A    between atoms: C_18  and  S_19
REMARK    5  A    between atoms: S_19  and  C_20
REMARK                            x       y       z     vdW  Elec       q    Type
REMARK                         _______ _______ _______ _____ _____    ______ ____
ROOT
ATOM      1  C   UNL     1       2.090   5.854  19.065  0.00  0.00    +0.000 C 
ATOM      2  C   UNL     1       1.707   5.660  20.538  0.00  0.00    +0.000 C 
ATOM      3  C   UNL     1       0.916   6.896  20.982  0.00  0.00    +0.000 C 
ATOM      4  C   UNL     1       1.648   8.210  20.671  0.00  0.00    +0.000 C 
ATOM      5  N   UNL     1       2.178   8.260  19.297  0.00  0.00    +0.000 N 
ATOM      6  C   UNL     1       1.749   9.027  18.200  0.00  0.00    +0.000 C 
ATOM      7  O   UNL     1       2.190   8.844  17.067  0.00  0.00    +0.000 OA
ATOM      8  C   UNL     1       2.993   7.089  18.954  0.00  0.00    +0.000 C 
ENDROOT
BRANCH   1  14
ATOM      9  C   UNL     1       4.979   4.970  19.309  0.00  0.00    +0.000 C 
ATOM     10  C   UNL     1       3.934   4.250  18.535  0.00  0.00    +0.000 A 
ATOM     11  N   UNL     1       4.077   3.085  17.936  0.00  0.00    +0.000 NA
ATOM     12  C   UNL     1       2.864   2.798  17.374  0.00  0.00    +0.000 A 
ATOM     13  C   UNL     1       1.966   3.816  17.595  0.00  0.00    +0.000 A 
ATOM     14  N   UNL     1       2.641   4.714  18.370  0.00  0.00    +0.000 N 
ENDBRANCH   1  14
BRANCH   6  15
ATOM     15  C   UNL     1       0.673  10.040  18.318  0.00  0.00    +0.000 A 
ATOM     16  C   UNL     1       1.023  11.307  18.814  0.00  0.00    +0.000 A 
ATOM     17  C   UNL     1       0.081  12.337  18.872  0.00  0.00    +0.000 A 
ATOM     18  C   UNL     1      -1.211  12.117  18.401  0.00  0.00    +0.000 A 
ATOM     19  C   UNL     1      -1.565  10.841  17.957  0.00  0.00    +0.000 A 
ATOM     20  C   UNL     1      -0.648   9.788  17.975  0.00  0.00    +0.000 A 
BRANCH  19  21
ATOM     21  S   UNL     1      -3.158  10.552  17.232  0.00  0.00    +0.000 S 
ATOM     22  C   UNL     1      -2.777  10.334  15.518  0.00  0.00    +0.000 C 
ATOM     23  O   UNL     1      -3.660   9.299  17.760  0.00  0.00    +0.000 OA
ATOM     24  O   UNL     1      -3.917  11.780  17.380  0.00  0.00    +0.000 OA
ENDBRANCH  19  21
ENDBRANCH   6  15
TORSDOF 3
ENDMDL
MODEL 4
REMARK VINA RESULT:      -6.7      3.946      7.727
REMARK  Name = 
REMARK  5 active torsions:
REMARK  status: ('A' for Active; 'I' for Inactive)
REMARK    1  A    between atoms: C_1  and  C_2
REMARK    2  A    between atoms: N_6  and  C_7
REMARK    3  A    between atoms: C_12  and  C_14
REMARK    4  A    between atoms: C_18  and  S_19
REMARK    5  A    between atoms: S_19  and  C_20
REMARK                            x       y       z     vdW  Elec       q    Type
REMARK                         _______ _______ _______ _____ _____    ______ ____
ROOT
ATOM      1  C   UNL     1      -0.801  10.726  20.287  0.00  0.00    +0.000 C 
ATOM      2  C   UNL     1      -1.203  11.023  18.837  0.00  0.00    +0.000 C 
ATOM      3  C   UNL     1      -0.590   9.933  17.949  0.00  0.00    +0.000 C 
ATOM      4  C   UNL     1       0.919   9.764  18.181  0.00  0.00    +0.000 C 
ATOM      5  N   UNL     1       1.276   9.689  19.608  0.00  0.00    +0.000 N 
ATOM      6  C   UNL     1       1.722   8.591  20.364  0.00  0.00    +0.000 C 
ATOM      7  O   UNL     1       1.829   8.644  21.587  0.00  0.00    +0.000 OA
ATOM      8  C   UNL     1       0.727  10.801  20.394  0.00  0.00    +0.000 C 
ENDROOT
BRANCH   1  14
ATOM      9  C   UNL     1      -0.729   9.984  23.226  0.00  0.00    +0.000 C 
ATOM     10  C   UNL     1      -1.364  11.211  22.675  0.00  0.00    +0.000 A 
ATOM     11  N   UNL     1      -1.888  12.194  23.378  0.00  0.00    +0.000 NA
ATOM     12  C   UNL     1      -2.329  13.115  22.469  0.00  0.00    +0.000 A 
ATOM     13  C   UNL     1      -2.109  12.680  21.182  0.00  0.00    +0.000 A 
ATOM     14  N   UNL     1      -1.456  11.490  21.324  0.00  0.00    +0.000 N 
ENDBRANCH   1  14
BRANCH   6  15
ATOM     15  C   UNL     1       2.004   7.272  19.748  0.00  0.00    +0.000 A 
ATOM     16  C   UNL     1       2.584   7.261  18.469  0.00  0.00    +0.000 A 
ATOM     17  C   UNL     1       2.957   6.059  17.862  0.00  0.00    +0.000 A 
ATOM     18  C   UNL     1       2.782   4.859  18.548  0.00  0.00    +0.000 A 
ATOM     19  C   UNL     1       2.157   4.873  19.796  0.00  0.00    +0.000 A 
ATOM     20  C   UNL     1       1.710   6.066  20.369  0.00  0.00    +0.000 A 
BRANCH  19  21
ATOM     21  S   UNL     1       2.030   3.387  20.755  0.00  0.00    +0.000 S 
ATOM     22  C   UNL     1       3.356   2.396  20.126  0.00  0.00    +0.000 C 
ATOM     23  O   UNL     1       2.319   3.726  22.134  0.00  0.00    +0.000 OA
ATOM     24  O   UNL     1       0.775   2.756  20.391  0.00  0.00    +0.000 OA
ENDBRANCH  19  21
ENDBRANCH   6  15
TORSDOF 3
ENDMDL
MODEL 5
REMARK VINA RESULT:      -6.7      3.666      7.821
REMARK  Name = 
REMARK  5 active torsions:
REMARK  status: ('A' for Active; 'I' for Inactive)
REMARK    1  A    between atoms: C_1  and  C_2
REMARK    2  A    between atoms: N_6  and  C_7
REMARK    3  A    between atoms: C_12  and  C_14
REMARK    4  A    between atoms: C_18  and  S_19
REMARK    5  A    between atoms: S_19  and  C_20
REMARK                            x       y       z     vdW  Elec       q    Type
REMARK                         _______ _______ _______ _____ _____    ______ ____
ROOT
ATOM      1  C   UNL     1       0.967  11.105  20.186  0.00  0.00    +0.000 C 
ATOM      2  C   UNL     1       0.699  10.644  21.625  0.00  0.00    +0.000 C 
ATOM      3  C   UNL     1       1.342   9.263  21.800  0.00  0.00    +0.000 C 
ATOM      4  C   UNL     1       0.911   8.268  20.712  0.00  0.00    +0.000 C 
ATOM      5  N   UNL     1       0.993   8.834  19.353  0.00  0.00    +0.000 N 
ATOM      6  C   UNL     1       1.893   8.542  18.314  0.00  0.00    +0.000 C 
ATOM      7  O   UNL     1       1.937   9.212  17.285  0.00  0.00    +0.000 OA
ATOM      8  C   UNL     1       0.293  10.117  19.225  0.00  0.00    +0.000 C 
ENDROOT
BRANCH   1  14
ATOM      9  C   UNL     1       2.539  12.769  18.198  0.00  0.00    +0.000 C 
ATOM     10  C   UNL     1       1.309  13.222  18.900  0.00  0.00    +0.000 A 
ATOM     11  N   UNL     1       0.670  14.354  18.688  0.00  0.00    +0.000 NA
ATOM     12  C   UNL     1      -0.408  14.342  19.530  0.00  0.00    +0.000 A 
ATOM     13  C   UNL     1      -0.417  13.202  20.301  0.00  0.00    +0.000 A 
ATOM     14  N   UNL     1       0.653  12.477  19.863  0.00  0.00    +0.000 N 
ENDBRANCH   1  14
BRANCH   6  15
ATOM     15  C   UNL     1       2.908   7.467  18.429  0.00  0.00    +0.000 A 
ATOM     16  C   UNL     1       2.679   6.452  19.373  0.00  0.00    +0.000 A 
ATOM     17  C   UNL     1       3.547   5.362  19.477  0.00  0.00    +0.000 A 
ATOM     18  C   UNL     1       4.634   5.263  18.612  0.00  0.00    +0.000 A 
ATOM     19  C   UNL     1       4.885   6.301  17.712  0.00  0.00    +0.000 A 
ATOM     20  C   UNL     1       4.064   7.430  17.662  0.00  0.00    +0.000 A 
BRANCH  19  21
ATOM     21  S   UNL     1       6.180   6.155  16.509  0.00  0.00    +0.000 S 
ATOM     22  C   UNL     1       6.888   4.575  16.882  0.00  0.00    +0.000 C 
ATOM     23  O   UNL     1       5.561   6.090  15.201  0.00  0.00    +0.000 OA
ATOM     24  O   UNL     1       7.160   7.180  16.820  0.00  0.00    +0.000 OA
ENDBRANCH  19  21
ENDBRANCH   6  15
TORSDOF 3
ENDMDL
MODEL 6
REMARK VINA RESULT:      -6.7      2.128      2.646
REMARK  Name = 
REMARK  5 active torsions:
REMARK  status: ('A' for Active; 'I' for Inactive)
REMARK    1  A    between atoms: C_1  and  C_2
REMARK    2  A    between atoms: N_6  and  C_7
REMARK    3  A    between atoms: C_12  and  C_14
REMARK    4  A    between atoms: C_18  and  S_19
REMARK    5  A    between atoms: S_19  and  C_20
REMARK                            x       y       z     vdW  Elec       q    Type
REMARK                         _______ _______ _______ _____ _____    ______ ____
ROOT
ATOM      1  C   UNL     1       2.258   5.857  19.043  0.00  0.00    +0.000 C 
ATOM      2  C   UNL     1       1.891   5.540  20.499  0.00  0.00    +0.000 C 
ATOM      3  C   UNL     1       0.991   6.671  21.011  0.00  0.00    +0.000 C 
ATOM      4  C   UNL     1       1.604   8.061  20.786  0.00  0.00    +0.000 C 
ATOM      5  N   UNL     1       2.130   8.243  19.422  0.00  0.00    +0.000 N 
ATOM      6  C   UNL     1       1.638   9.034  18.370  0.00  0.00    +0.000 C 
ATOM      7  O   UNL     1       2.097   8.961  17.232  0.00  0.00    +0.000 OA
ATOM      8  C   UNL     1       3.048   7.171  19.016  0.00  0.00    +0.000 C 
ENDROOT
BRANCH   1  14
ATOM      9  C   UNL     1       1.044   3.123  18.548  0.00  0.00    +0.000 C 
ATOM     10  C   UNL     1       2.336   3.594  17.982  0.00  0.00    +0.000 A 
ATOM     11  N   UNL     1       3.082   2.945  17.111  0.00  0.00    +0.000 NA
ATOM     12  C   UNL     1       4.154   3.755  16.855  0.00  0.00    +0.000 A 
ATOM     13  C   UNL     1       4.091   4.906  17.606  0.00  0.00    +0.000 A 
ATOM     14  N   UNL     1       2.911   4.815  18.285  0.00  0.00    +0.000 N 
ENDBRANCH   1  14
BRANCH   6  15
ATOM     15  C   UNL     1       0.475   9.938  18.541  0.00  0.00    +0.000 A 
ATOM     16  C   UNL     1      -0.669   9.681  17.769  0.00  0.00    +0.000 A 
ATOM     17  C   UNL     1      -1.832  10.437  17.939  0.00  0.00    +0.000 A 
ATOM     18  C   UNL     1      -1.868  11.436  18.908  0.00  0.00    +0.000 A 
ATOM     19  C   UNL     1      -0.710  11.721  19.636  0.00  0.00    +0.000 A 
ATOM     20  C   UNL     1       0.477  11.020  19.411  0.00  0.00    +0.000 A 
BRANCH  19  21
ATOM     21  S   UNL     1      -0.749  12.895  20.965  0.00  0.00    +0.000 S 
ATOM     22  C   UNL     1      -2.148  12.370  21.914  0.00  0.00    +0.000 C 
ATOM     23  O   UNL     1       0.449  12.703  21.757  0.00  0.00    +0.000 OA
ATOM     24  O   UNL     1      -1.055  14.186  20.376  0.00  0.00    +0.000 OA
ENDBRANCH  19  21
ENDBRANCH   6  15
TORSDOF 3
ENDMDL
MODEL 7
REMARK VINA RESULT:      -6.6      0.912      1.569
REMARK  Name = 
REMARK  5 active torsions:
REMARK  status: ('A' for Active; 'I' for Inactive)
REMARK    1  A    between atoms: C_1  and  C_2
REMARK    2  A    between atoms: N_6  and  C_7
REMARK    3  A    between atoms: C_12  and  C_14
REMARK    4  A    between atoms: C_18  and  S_19
REMARK    5  A    between atoms: S_19  and  C_20
REMARK                            x       y       z     vdW  Elec       q    Type
REMARK                         _______ _______ _______ _____ _____    ______ ____
ROOT
ATOM      1  C   UNL     1       2.100   5.793  19.095  0.00  0.00    +0.000 C 
ATOM      2  C   UNL     1       1.750   5.600  20.576  0.00  0.00    +0.000 C 
ATOM      3  C   UNL     1       0.991   6.848  21.043  0.00  0.00    +0.000 C 
ATOM      4  C   UNL     1       1.739   8.149  20.719  0.00  0.00    +0.000 C 
ATOM      5  N   UNL     1       2.236   8.196  19.333  0.00  0.00    +0.000 N 
ATOM      6  C   UNL     1       1.795   8.974  18.249  0.00  0.00    +0.000 C 
ATOM      7  O   UNL     1       2.205   8.788  17.105  0.00  0.00    +0.000 OA
ATOM      8  C   UNL     1       3.022   7.012  18.967  0.00  0.00    +0.000 C 
ENDROOT
BRANCH   1  14
ATOM      9  C   UNL     1       4.972   4.840  19.289  0.00  0.00    +0.000 C 
ATOM     10  C   UNL     1       3.899   4.151  18.525  0.00  0.00    +0.000 A 
ATOM     11  N   UNL     1       4.006   2.988  17.916  0.00  0.00    +0.000 NA
ATOM     12  C   UNL     1       2.779   2.733  17.369  0.00  0.00    +0.000 A 
ATOM     13  C   UNL     1       1.908   3.770  17.611  0.00  0.00    +0.000 A 
ATOM     14  N   UNL     1       2.615   4.646  18.383  0.00  0.00    +0.000 N 
ENDBRANCH   1  14
BRANCH   6  15
ATOM     15  C   UNL     1       0.740  10.006  18.397  0.00  0.00    +0.000 A 
ATOM     16  C   UNL     1       1.114  11.247  18.937  0.00  0.00    +0.000 A 
ATOM     17  C   UNL     1       0.194  12.295  19.025  0.00  0.00    +0.000 A 
ATOM     18  C   UNL     1      -1.100  12.118  18.541  0.00  0.00    +0.000 A 
ATOM     19  C   UNL     1      -1.479  10.866  18.053  0.00  0.00    +0.000 A 
ATOM     20  C   UNL     1      -0.585   9.793  18.039  0.00  0.00    +0.000 A 
BRANCH  19  21
ATOM     21  S   UNL     1      -3.073  10.635  17.312  0.00  0.00    +0.000 S 
ATOM     22  C   UNL     1      -4.088  11.788  18.192  0.00  0.00    +0.000 C 
ATOM     23  O   UNL     1      -2.982  11.058  15.929  0.00  0.00    +0.000 OA
ATOM     24  O   UNL     1      -3.505   9.292  17.653  0.00  0.00    +0.000 OA
ENDBRANCH  19  21
ENDBRANCH   6  15
TORSDOF 3
ENDMDL
MODEL 8
REMARK VINA RESULT:      -6.6      1.988      2.683
REMARK  Name = 
REMARK  5 active torsions:
REMARK  status: ('A' for Active; 'I' for Inactive)
REMARK    1  A    between atoms: C_1  and  C_2
REMARK    2  A    between atoms: N_6  and  C_7
REMARK    3  A    between atoms: C_12  and  C_14
REMARK    4  A    between atoms: C_18  and  S_19
REMARK    5  A    between atoms: S_19  and  C_20
REMARK                            x       y       z     vdW  Elec       q    Type
REMARK                         _______ _______ _______ _____ _____    ______ ____
ROOT
ATOM      1  C   UNL     1       2.204   5.714  19.097  0.00  0.00    +0.000 C 
ATOM      2  C   UNL     1       1.813   5.472  20.561  0.00  0.00    +0.000 C 
ATOM      3  C   UNL     1       0.981   6.674  21.026  0.00  0.00    +0.000 C 
ATOM      4  C   UNL     1       1.677   8.015  20.755  0.00  0.00    +0.000 C 
ATOM      5  N   UNL     1       2.219   8.115  19.388  0.00  0.00    +0.000 N 
ATOM      6  C   UNL     1       1.779   8.895  18.305  0.00  0.00    +0.000 C 
ATOM      7  O   UNL     1       2.236   8.753  17.173  0.00  0.00    +0.000 OA
ATOM      8  C   UNL     1       3.071   6.976  19.026  0.00  0.00    +0.000 C 
ENDROOT
BRANCH   1  14
ATOM      9  C   UNL     1       0.832   3.039  18.701  0.00  0.00    +0.000 C 
ATOM     10  C   UNL     1       2.150   3.411  18.122  0.00  0.00    +0.000 A 
ATOM     11  N   UNL     1       2.858   2.688  17.279  0.00  0.00    +0.000 NA
ATOM     12  C   UNL     1       3.976   3.423  16.996  0.00  0.00    +0.000 A 
ATOM     13  C   UNL     1       3.979   4.603  17.703  0.00  0.00    +0.000 A 
ATOM     14  N   UNL     1       2.795   4.607  18.381  0.00  0.00    +0.000 N 
ENDBRANCH   1  14
BRANCH   6  15
ATOM     15  C   UNL     1       0.672   9.874  18.436  0.00  0.00    +0.000 A 
ATOM     16  C   UNL     1      -0.540   9.576  17.793  0.00  0.00    +0.000 A 
ATOM     17  C   UNL     1      -1.653  10.407  17.943  0.00  0.00    +0.000 A 
ATOM     18  C   UNL     1      -1.570  11.527  18.767  0.00  0.00    +0.000 A 
ATOM     19  C   UNL     1      -0.347  11.845  19.362  0.00  0.00    +0.000 A 
ATOM     20  C   UNL     1       0.788  11.060  19.148  0.00  0.00    +0.000 A 
BRANCH  19  21
ATOM     21  S   UNL     1      -0.230  13.185  20.517  0.00  0.00    +0.000 S 
ATOM     22  C   UNL     1       0.911  14.286  19.730  0.00  0.00    +0.000 C 
ATOM     23  O   UNL     1      -1.528  13.828  20.579  0.00  0.00    +0.000 OA
ATOM     24  O   UNL     1       0.397  12.656  21.714  0.00  0.00    +0.000 OA
ENDBRANCH  19  21
ENDBRANCH   6  15
TORSDOF 3
ENDMDL
MODEL 9
REMARK VINA RESULT:      -6.6      3.524      5.707
REMARK  Name = 
REMARK  5 active torsions:
REMARK  status: ('A' for Active; 'I' for Inactive)
REMARK    1  A    between atoms: C_1  and  C_2
REMARK    2  A    between atoms: N_6  and  C_7
REMARK    3  A    between atoms: C_12  and  C_14
REMARK    4  A    between atoms: C_18  and  S_19
REMARK    5  A    between atoms: S_19  and  C_20
REMARK                            x       y       z     vdW  Elec       q    Type
REMARK                         _______ _______ _______ _____ _____    ______ ____
ROOT
ATOM      1  C   UNL     1       0.004  10.433  19.654  0.00  0.00    +0.000 C 
ATOM      2  C   UNL     1       0.521  11.823  20.046  0.00  0.00    +0.000 C 
ATOM      3  C   UNL     1      -0.638  12.814  19.888  0.00  0.00    +0.000 C 
ATOM      4  C   UNL     1      -1.297  12.736  18.503  0.00  0.00    +0.000 C 
ATOM      5  N   UNL     1      -1.588  11.354  18.083  0.00  0.00    +0.000 N 
ATOM      6  C   UNL     1      -2.825  10.697  17.963  0.00  0.00    +0.000 C 
ATOM      7  O   UNL     1      -2.900   9.488  17.752  0.00  0.00    +0.000 OA
ATOM      8  C   UNL     1      -0.422  10.469  18.181  0.00  0.00    +0.000 C 
ENDROOT
BRANCH   1  14
ATOM      9  C   UNL     1      -0.044   8.919  22.280  0.00  0.00    +0.000 C 
ATOM     10  C   UNL     1       0.790   8.554  21.105  0.00  0.00    +0.000 A 
ATOM     11  N   UNL     1       1.540   7.477  20.992  0.00  0.00    +0.000 NA
ATOM     12  C   UNL     1       2.103   7.537  19.747  0.00  0.00    +0.000 A 
ATOM     13  C   UNL     1       1.726   8.687  19.092  0.00  0.00    +0.000 A 
ATOM     14  N   UNL     1       0.857   9.304  19.945  0.00  0.00    +0.000 N 
ENDBRANCH   1  14
BRANCH   6  15
ATOM     15  C   UNL     1      -4.115  11.397  18.172  0.00  0.00    +0.000 A 
ATOM     16  C   UNL     1      -4.804  11.847  17.033  0.00  0.00    +0.000 A 
ATOM     17  C   UNL     1      -6.065  12.438  17.147  0.00  0.00    +0.000 A 
ATOM     18  C   UNL     1      -6.661  12.552  18.401  0.00  0.00    +0.000 A 
ATOM     19  C   UNL     1      -5.948  12.150  19.533  0.00  0.00    +0.000 A 
ATOM     20  C   UNL     1      -4.654  11.634  19.429  0.00  0.00    +0.000 A 
BRANCH  19  21
ATOM     21  S   UNL     1      -6.718  12.160  21.130  0.00  0.00    +0.000 S 
ATOM     22  C   UNL     1      -7.819  13.543  21.030  0.00  0.00    +0.000 C 
ATOM     23  O   UNL     1      -7.504  10.948  21.248  0.00  0.00    +0.000 OA
ATOM     24  O   UNL     1      -5.680  12.471  22.096  0.00  0.00    +0.000 OA
ENDBRANCH  19  21
ENDBRANCH   6  15
TORSDOF 3
ENDMDL
