MODEL 1
REMARK VINA RESULT:      -7.9      0.000      0.000
REMARK  Name = 
REMARK  7 active torsions:
REMARK  status: ('A' for Active; 'I' for Inactive)
REMARK    1  A    between atoms: C_1  and  C_2
REMARK    2  A    between atoms: C_2  and  C_3
REMARK    3  A    between atoms: C_3  and  C_4
REMARK    4  A    between atoms: C_4  and  C_5
REMARK    5  A    between atoms: C_14  and  C_15
REMARK    6  A    between atoms: C_18  and  O_19
REMARK    7  A    between atoms: O_19  and  C_20
REMARK                            x       y       z     vdW  Elec       q    Type
REMARK                         _______ _______ _______ _____ _____    ______ ____
ROOT
ATOM      1  C   UNL     1       3.154   3.777  17.498  0.00  0.00    +0.000 A 
ATOM      2  N   UNL     1       4.162   3.170  16.906  0.00  0.00    +0.000 NA
ATOM      3  C   UNL     1       5.160   4.018  16.521  0.00  0.00    +0.000 A 
ATOM      4  N   UNL     1       6.335   3.652  15.929  0.00  0.00    +0.000 N 
ATOM      5  C   UNL     1       7.073   4.797  15.747  0.00  0.00    +0.000 A 
ATOM      6  N   UNL     1       6.440   5.874  16.170  0.00  0.00    +0.000 NA
ATOM      7  C   UNL     1       5.264   5.388  16.642  0.00  0.00    +0.000 A 
ATOM      8  C   UNL     1       4.107   6.021  17.282  0.00  0.00    +0.000 A 
ATOM      9  N   UNL     1       3.820   7.255  17.599  0.00  0.00    +0.000 NA
ATOM     10  C   UNL     1       2.595   7.129  18.235  0.00  0.00    +0.000 A 
ATOM     11  N   UNL     1       2.115   5.871  18.282  0.00  0.00    +0.000 NA
ATOM     12  N   UNL     1       3.103   5.177  17.679  0.00  0.00    +0.000 N 
ATOM     13  H   UNL     1       6.609   2.710  15.687  0.00  0.00    +0.000 HD
ENDROOT
BRANCH  10  14
ATOM     14  C   UNL     1       1.929   8.277  18.842  0.00  0.00    +0.000 A 
ATOM     15  C   UNL     1       1.561   8.244  20.194  0.00  0.00    +0.000 A 
ATOM     16  C   UNL     1       0.871   9.316  20.766  0.00  0.00    +0.000 A 
ATOM     17  C   UNL     1       0.552  10.443  20.008  0.00  0.00    +0.000 A 
ATOM     18  C   UNL     1       0.914  10.488  18.662  0.00  0.00    +0.000 A 
ATOM     19  C   UNL     1       1.604   9.412  18.085  0.00  0.00    +0.000 A 
BRANCH  17  20
ATOM     20  O   UNL     1      -0.164  11.401  20.670  0.00  0.00    +0.000 OA
ATOM     21  C   UNL     1      -0.363  11.183  22.061  0.00  0.00    +0.000 C 
ENDBRANCH  17  20
ENDBRANCH  10  14
BRANCH   1  22
ATOM     22  C   UNL     1       1.959   3.019  18.018  0.00  0.00    +0.000 C 
BRANCH  22  23
ATOM     23  C   UNL     1       2.257   2.416  19.388  0.00  0.00    +0.000 C 
BRANCH  23  25
ATOM     24  C   UNL     1       2.085   3.853  21.440  0.00  0.00    +0.000 C 
ATOM     25  C   UNL     1       1.323   2.970  20.464  0.00  0.00    +0.000 C 
ENDBRANCH  23  25
ENDBRANCH  22  23
ENDBRANCH   1  22
TORSDOF 5
ENDMDL
MODEL 2
REMARK VINA RESULT:      -7.8      0.546      1.173
REMARK  Name = 
REMARK  7 active torsions:
REMARK  status: ('A' for Active; 'I' for Inactive)
REMARK    1  A    between atoms: C_1  and  C_2
REMARK    2  A    between atoms: C_2  and  C_3
REMARK    3  A    between atoms: C_3  and  C_4
REMARK    4  A    between atoms: C_4  and  C_5
REMARK    5  A    between atoms: C_14  and  C_15
REMARK    6  A    between atoms: C_18  and  O_19
REMARK    7  A    between atoms: O_19  and  C_20
REMARK                            x       y       z     vdW  Elec       q    Type
REMARK                         _______ _______ _______ _____ _____    ______ ____
ROOT
ATOM      1  C   UNL     1       3.088   3.793  17.546  0.00  0.00    +0.000 A 
ATOM      2  N   UNL     1       4.100   3.174  16.975  0.00  0.00    +0.000 NA
ATOM      3  C   UNL     1       5.111   4.010  16.600  0.00  0.00    +0.000 A 
ATOM      4  N   UNL     1       6.292   3.631  16.031  0.00  0.00    +0.000 N 
ATOM      5  C   UNL     1       7.043   4.769  15.853  0.00  0.00    +0.000 A 
ATOM      6  N   UNL     1       6.412   5.854  16.258  0.00  0.00    +0.000 NA
ATOM      7  C   UNL     1       5.225   5.381  16.713  0.00  0.00    +0.000 A 
ATOM      8  C   UNL     1       4.062   6.028  17.330  0.00  0.00    +0.000 A 
ATOM      9  N   UNL     1       3.780   7.266  17.633  0.00  0.00    +0.000 NA
ATOM     10  C   UNL     1       2.544   7.155  18.249  0.00  0.00    +0.000 A 
ATOM     11  N   UNL     1       2.054   5.901  18.298  0.00  0.00    +0.000 NA
ATOM     12  N   UNL     1       3.045   5.195  17.716  0.00  0.00    +0.000 N 
ATOM     13  H   UNL     1       6.563   2.685  15.801  0.00  0.00    +0.000 HD
ENDROOT
BRANCH  10  14
ATOM     14  C   UNL     1       1.878   8.313  18.837  0.00  0.00    +0.000 A 
ATOM     15  C   UNL     1       1.649   9.461  18.066  0.00  0.00    +0.000 A 
ATOM     16  C   UNL     1       1.065  10.594  18.639  0.00  0.00    +0.000 A 
ATOM     17  C   UNL     1       0.682  10.595  19.981  0.00  0.00    +0.000 A 
ATOM     18  C   UNL     1       0.902   9.458  20.757  0.00  0.00    +0.000 A 
ATOM     19  C   UNL     1       1.492   8.322  20.185  0.00  0.00    +0.000 A 
BRANCH  17  20
ATOM     20  O   UNL     1       0.166  11.777  20.432  0.00  0.00    +0.000 OA
ATOM     21  C   UNL     1       0.753  12.960  19.903  0.00  0.00    +0.000 C 
ENDBRANCH  17  20
ENDBRANCH  10  14
BRANCH   1  22
ATOM     22  C   UNL     1       1.878   3.048  18.052  0.00  0.00    +0.000 C 
BRANCH  22  23
ATOM     23  C   UNL     1       2.157   2.431  19.419  0.00  0.00    +0.000 C 
BRANCH  23  25
ATOM     24  C   UNL     1       2.105   3.444  21.716  0.00  0.00    +0.000 C 
ATOM     25  C   UNL     1       1.275   3.044  20.507  0.00  0.00    +0.000 C 
ENDBRANCH  23  25
ENDBRANCH  22  23
ENDBRANCH   1  22
TORSDOF 5
ENDMDL
MODEL 3
REMARK VINA RESULT:      -7.7      1.405      3.617
REMARK  Name = 
REMARK  7 active torsions:
REMARK  status: ('A' for Active; 'I' for Inactive)
REMARK    1  A    between atoms: C_1  and  C_2
REMARK    2  A    between atoms: C_2  and  C_3
REMARK    3  A    between atoms: C_3  and  C_4
REMARK    4  A    between atoms: C_4  and  C_5
REMARK    5  A    between atoms: C_14  and  C_15
REMARK    6  A    between atoms: C_18  and  O_19
REMARK    7  A    between atoms: O_19  and  C_20
REMARK                            x       y       z     vdW  Elec       q    Type
REMARK                         _______ _______ _______ _____ _____    ______ ____
ROOT
ATOM      1  C   UNL     1       4.738   5.137  16.894  0.00  0.00    +0.000 A 
ATOM      2  N   UNL     1       4.919   3.834  16.848  0.00  0.00    +0.000 NA
ATOM      3  C   UNL     1       4.101   3.138  17.689  0.00  0.00    +0.000 A 
ATOM      4  N   UNL     1       4.047   1.779  17.809  0.00  0.00    +0.000 N 
ATOM      5  C   UNL     1       3.065   1.489  18.727  0.00  0.00    +0.000 A 
ATOM      6  N   UNL     1       2.498   2.576  19.214  0.00  0.00    +0.000 NA
ATOM      7  C   UNL     1       3.140   3.585  18.574  0.00  0.00    +0.000 A 
ATOM      8  C   UNL     1       2.994   5.044  18.609  0.00  0.00    +0.000 A 
ATOM      9  N   UNL     1       2.210   5.851  19.271  0.00  0.00    +0.000 NA
ATOM     10  C   UNL     1       2.563   7.095  18.773  0.00  0.00    +0.000 A 
ATOM     11  N   UNL     1       3.555   7.072  17.861  0.00  0.00    +0.000 NA
ATOM     12  N   UNL     1       3.807   5.750  17.762  0.00  0.00    +0.000 N 
ATOM     13  H   UNL     1       4.616   1.116  17.302  0.00  0.00    +0.000 HD
ENDROOT
BRANCH  10  14
ATOM     14  C   UNL     1       1.862   8.307  19.182  0.00  0.00    +0.000 A 
ATOM     15  C   UNL     1       1.402   8.446  20.499  0.00  0.00    +0.000 A 
ATOM     16  C   UNL     1       0.679   9.579  20.881  0.00  0.00    +0.000 A 
ATOM     17  C   UNL     1       0.418  10.598  19.965  0.00  0.00    +0.000 A 
ATOM     18  C   UNL     1       0.872  10.473  18.653  0.00  0.00    +0.000 A 
ATOM     19  C   UNL     1       1.595   9.336  18.267  0.00  0.00    +0.000 A 
BRANCH  17  20
ATOM     20  O   UNL     1      -0.338  11.630  20.449  0.00  0.00    +0.000 OA
ATOM     21  C   UNL     1      -0.769  11.510  21.799  0.00  0.00    +0.000 C 
ENDBRANCH  17  20
ENDBRANCH  10  14
BRANCH   1  22
ATOM     22  C   UNL     1       5.528   6.085  16.028  0.00  0.00    +0.000 C 
BRANCH  22  23
ATOM     23  C   UNL     1       7.014   6.013  16.367  0.00  0.00    +0.000 C 
BRANCH  23  25
ATOM     24  C   UNL     1       7.800   8.058  17.596  0.00  0.00    +0.000 C 
ATOM     25  C   UNL     1       7.311   6.625  17.736  0.00  0.00    +0.000 C 
ENDBRANCH  23  25
ENDBRANCH  22  23
ENDBRANCH   1  22
TORSDOF 5
ENDMDL
MODEL 4
REMARK VINA RESULT:      -7.6      1.448      3.683
REMARK  Name = 
REMARK  7 active torsions:
REMARK  status: ('A' for Active; 'I' for Inactive)
REMARK    1  A    between atoms: C_1  and  C_2
REMARK    2  A    between atoms: C_2  and  C_3
REMARK    3  A    between atoms: C_3  and  C_4
REMARK    4  A    between atoms: C_4  and  C_5
REMARK    5  A    between atoms: C_14  and  C_15
REMARK    6  A    between atoms: C_18  and  O_19
REMARK    7  A    between atoms: O_19  and  C_20
REMARK                            x       y       z     vdW  Elec       q    Type
REMARK                         _______ _______ _______ _____ _____    ______ ____
ROOT
ATOM      1  C   UNL     1       4.763   5.124  16.916  0.00  0.00    +0.000 A 
ATOM      2  N   UNL     1       4.948   3.821  16.881  0.00  0.00    +0.000 NA
ATOM      3  C   UNL     1       4.120   3.129  17.717  0.00  0.00    +0.000 A 
ATOM      4  N   UNL     1       4.068   1.770  17.846  0.00  0.00    +0.000 N 
ATOM      5  C   UNL     1       3.075   1.485  18.753  0.00  0.00    +0.000 A 
ATOM      6  N   UNL     1       2.499   2.573  19.225  0.00  0.00    +0.000 NA
ATOM      7  C   UNL     1       3.148   3.580  18.586  0.00  0.00    +0.000 A 
ATOM      8  C   UNL     1       2.998   5.038  18.610  0.00  0.00    +0.000 A 
ATOM      9  N   UNL     1       2.204   5.848  19.257  0.00  0.00    +0.000 NA
ATOM     10  C   UNL     1       2.560   7.090  18.755  0.00  0.00    +0.000 A 
ATOM     11  N   UNL     1       3.564   7.063  17.855  0.00  0.00    +0.000 NA
ATOM     12  N   UNL     1       3.820   5.741  17.768  0.00  0.00    +0.000 N 
ATOM     13  H   UNL     1       4.645   1.105  17.350  0.00  0.00    +0.000 HD
ENDROOT
BRANCH  10  14
ATOM     14  C   UNL     1       1.851   8.303  19.146  0.00  0.00    +0.000 A 
ATOM     15  C   UNL     1       1.646   9.331  18.215  0.00  0.00    +0.000 A 
ATOM     16  C   UNL     1       1.020  10.520  18.599  0.00  0.00    +0.000 A 
ATOM     17  C   UNL     1       0.573  10.697  19.909  0.00  0.00    +0.000 A 
ATOM     18  C   UNL     1       0.770   9.681  20.843  0.00  0.00    +0.000 A 
ATOM     19  C   UNL     1       1.400   8.489  20.461  0.00  0.00    +0.000 A 
BRANCH  17  20
ATOM     20  O   UNL     1       0.020  11.920  20.170  0.00  0.00    +0.000 OA
ATOM     21  C   UNL     1      -1.392  11.945  20.337  0.00  0.00    +0.000 C 
ENDBRANCH  17  20
ENDBRANCH  10  14
BRANCH   1  22
ATOM     22  C   UNL     1       5.562   6.068  16.053  0.00  0.00    +0.000 C 
BRANCH  22  23
ATOM     23  C   UNL     1       7.042   6.009  16.419  0.00  0.00    +0.000 C 
BRANCH  23  25
ATOM     24  C   UNL     1       7.774   6.159  18.817  0.00  0.00    +0.000 C 
ATOM     25  C   UNL     1       7.376   6.947  17.579  0.00  0.00    +0.000 C 
ENDBRANCH  23  25
ENDBRANCH  22  23
ENDBRANCH   1  22
TORSDOF 5
ENDMDL
MODEL 5
REMARK VINA RESULT:      -7.5      1.668      3.844
REMARK  Name = 
REMARK  7 active torsions:
REMARK  status: ('A' for Active; 'I' for Inactive)
REMARK    1  A    between atoms: C_1  and  C_2
REMARK    2  A    between atoms: C_2  and  C_3
REMARK    3  A    between atoms: C_3  and  C_4
REMARK    4  A    between atoms: C_4  and  C_5
REMARK    5  A    between atoms: C_14  and  C_15
REMARK    6  A    between atoms: C_18  and  O_19
REMARK    7  A    between atoms: O_19  and  C_20
REMARK                            x       y       z     vdW  Elec       q    Type
REMARK                         _______ _______ _______ _____ _____    ______ ____
ROOT
ATOM      1  C   UNL     1       4.946   5.512  17.548  0.00  0.00    +0.000 A 
ATOM      2  N   UNL     1       5.375   4.297  17.819  0.00  0.00    +0.000 NA
ATOM      3  C   UNL     1       4.719   3.704  18.858  0.00  0.00    +0.000 A 
ATOM      4  N   UNL     1       4.931   2.436  19.318  0.00  0.00    +0.000 N 
ATOM      5  C   UNL     1       4.038   2.219  20.340  0.00  0.00    +0.000 A 
ATOM      6  N   UNL     1       3.278   3.271  20.574  0.00  0.00    +0.000 NA
ATOM      7  C   UNL     1       3.704   4.181  19.662  0.00  0.00    +0.000 A 
ATOM      8  C   UNL     1       3.278   5.547  19.340  0.00  0.00    +0.000 A 
ATOM      9  N   UNL     1       2.363   6.340  19.827  0.00  0.00    +0.000 NA
ATOM     10  C   UNL     1       2.461   7.456  19.011  0.00  0.00    +0.000 A 
ATOM     11  N   UNL     1       3.425   7.380  18.073  0.00  0.00    +0.000 NA
ATOM     12  N   UNL     1       3.927   6.147  18.292  0.00  0.00    +0.000 N 
ATOM     13  H   UNL     1       5.610   1.781  18.958  0.00  0.00    +0.000 HD
ENDROOT
BRANCH  10  14
ATOM     14  C   UNL     1       1.545   8.583  19.147  0.00  0.00    +0.000 A 
ATOM     15  C   UNL     1       1.030   8.926  20.405  0.00  0.00    +0.000 A 
ATOM     16  C   UNL     1       0.107   9.967  20.533  0.00  0.00    +0.000 A 
ATOM     17  C   UNL     1      -0.305  10.694  19.415  0.00  0.00    +0.000 A 
ATOM     18  C   UNL     1       0.202  10.363  18.159  0.00  0.00    +0.000 A 
ATOM     19  C   UNL     1       1.126   9.317  18.028  0.00  0.00    +0.000 A 
BRANCH  17  20
ATOM     20  O   UNL     1      -1.245  11.654  19.665  0.00  0.00    +0.000 OA
ATOM     21  C   UNL     1      -1.466  11.973  21.033  0.00  0.00    +0.000 C 
ENDBRANCH  17  20
ENDBRANCH  10  14
BRANCH   1  22
ATOM     22  C   UNL     1       5.525   6.332  16.423  0.00  0.00    +0.000 C 
BRANCH  22  23
ATOM     23  C   UNL     1       5.317   5.631  15.083  0.00  0.00    +0.000 C 
BRANCH  23  25
ATOM     24  C   UNL     1       6.235   3.850  13.570  0.00  0.00    +0.000 C 
ATOM     25  C   UNL     1       6.570   4.878  14.639  0.00  0.00    +0.000 C 
ENDBRANCH  23  25
ENDBRANCH  22  23
ENDBRANCH   1  22
TORSDOF 5
ENDMDL
MODEL 6
REMARK VINA RESULT:      -7.4      1.937      3.973
REMARK  Name = 
REMARK  7 active torsions:
REMARK  status: ('A' for Active; 'I' for Inactive)
REMARK    1  A    between atoms: C_1  and  C_2
REMARK    2  A    between atoms: C_2  and  C_3
REMARK    3  A    between atoms: C_3  and  C_4
REMARK    4  A    between atoms: C_4  and  C_5
REMARK    5  A    between atoms: C_14  and  C_15
REMARK    6  A    between atoms: C_18  and  O_19
REMARK    7  A    between atoms: O_19  and  C_20
REMARK                            x       y       z     vdW  Elec       q    Type
REMARK                         _______ _______ _______ _____ _____    ______ ____
ROOT
ATOM      1  C   UNL     1       5.037   5.498  17.693  0.00  0.00    +0.000 A 
ATOM      2  N   UNL     1       5.453   4.274  17.942  0.00  0.00    +0.000 NA
ATOM      3  C   UNL     1       4.746   3.646  18.926  0.00  0.00    +0.000 A 
ATOM      4  N   UNL     1       4.935   2.362  19.351  0.00  0.00    +0.000 N 
ATOM      5  C   UNL     1       3.992   2.111  20.319  0.00  0.00    +0.000 A 
ATOM      6  N   UNL     1       3.221   3.155  20.552  0.00  0.00    +0.000 NA
ATOM      7  C   UNL     1       3.692   4.096  19.694  0.00  0.00    +0.000 A 
ATOM      8  C   UNL     1       3.283   5.473  19.400  0.00  0.00    +0.000 A 
ATOM      9  N   UNL     1       2.344   6.250  19.868  0.00  0.00    +0.000 NA
ATOM     10  C   UNL     1       2.483   7.394  19.099  0.00  0.00    +0.000 A 
ATOM     11  N   UNL     1       3.493   7.350  18.207  0.00  0.00    +0.000 NA
ATOM     12  N   UNL     1       3.982   6.108  18.408  0.00  0.00    +0.000 N 
ATOM     13  H   UNL     1       5.631   1.719  19.002  0.00  0.00    +0.000 HD
ENDROOT
BRANCH  10  14
ATOM     14  C   UNL     1       1.561   8.517  19.228  0.00  0.00    +0.000 A 
ATOM     15  C   UNL     1       1.334   9.372  18.140  0.00  0.00    +0.000 A 
ATOM     16  C   UNL     1       0.498  10.483  18.276  0.00  0.00    +0.000 A 
ATOM     17  C   UNL     1      -0.140  10.751  19.488  0.00  0.00    +0.000 A 
ATOM     18  C   UNL     1       0.077   9.907  20.576  0.00  0.00    +0.000 A 
ATOM     19  C   UNL     1       0.918   8.793  20.443  0.00  0.00    +0.000 A 
BRANCH  17  20
ATOM     20  O   UNL     1      -0.893  11.891  19.505  0.00  0.00    +0.000 OA
ATOM     21  C   UNL     1      -1.324  12.338  20.784  0.00  0.00    +0.000 C 
ENDBRANCH  17  20
ENDBRANCH  10  14
BRANCH   1  22
ATOM     22  C   UNL     1       5.671   6.357  16.627  0.00  0.00    +0.000 C 
BRANCH  22  23
ATOM     23  C   UNL     1       7.193   6.305  16.730  0.00  0.00    +0.000 C 
BRANCH  23  25
ATOM     24  C   UNL     1       7.839   8.543  17.669  0.00  0.00    +0.000 C 
ATOM     25  C   UNL     1       7.703   7.056  17.959  0.00  0.00    +0.000 C 
ENDBRANCH  23  25
ENDBRANCH  22  23
ENDBRANCH   1  22
TORSDOF 5
ENDMDL
MODEL 7
REMARK VINA RESULT:      -7.4      1.722      4.026
REMARK  Name = 
REMARK  7 active torsions:
REMARK  status: ('A' for Active; 'I' for Inactive)
REMARK    1  A    between atoms: C_1  and  C_2
REMARK    2  A    between atoms: C_2  and  C_3
REMARK    3  A    between atoms: C_3  and  C_4
REMARK    4  A    between atoms: C_4  and  C_5
REMARK    5  A    between atoms: C_14  and  C_15
REMARK    6  A    between atoms: C_18  and  O_19
REMARK    7  A    between atoms: O_19  and  C_20
REMARK                            x       y       z     vdW  Elec       q    Type
REMARK                         _______ _______ _______ _____ _____    ______ ____
ROOT
ATOM      1  C   UNL     1       4.951   5.546  17.538  0.00  0.00    +0.000 A 
ATOM      2  N   UNL     1       5.381   4.330  17.803  0.00  0.00    +0.000 NA
ATOM      3  C   UNL     1       4.724   3.731  18.839  0.00  0.00    +0.000 A 
ATOM      4  N   UNL     1       4.937   2.461  19.292  0.00  0.00    +0.000 N 
ATOM      5  C   UNL     1       4.042   2.238  20.312  0.00  0.00    +0.000 A 
ATOM      6  N   UNL     1       3.280   3.288  20.550  0.00  0.00    +0.000 NA
ATOM      7  C   UNL     1       3.706   4.203  19.643  0.00  0.00    +0.000 A 
ATOM      8  C   UNL     1       3.280   5.570  19.327  0.00  0.00    +0.000 A 
ATOM      9  N   UNL     1       2.363   6.359  19.816  0.00  0.00    +0.000 NA
ATOM     10  C   UNL     1       2.461   7.479  19.007  0.00  0.00    +0.000 A 
ATOM     11  N   UNL     1       3.427   7.410  18.070  0.00  0.00    +0.000 NA
ATOM     12  N   UNL     1       3.929   6.176  18.284  0.00  0.00    +0.000 N 
ATOM     13  H   UNL     1       5.617   1.808  18.930  0.00  0.00    +0.000 HD
ENDROOT
BRANCH  10  14
ATOM     14  C   UNL     1       1.543   8.605  19.147  0.00  0.00    +0.000 A 
ATOM     15  C   UNL     1       1.255   9.421  18.043  0.00  0.00    +0.000 A 
ATOM     16  C   UNL     1       0.423  10.534  18.185  0.00  0.00    +0.000 A 
ATOM     17  C   UNL     1      -0.149  10.843  19.419  0.00  0.00    +0.000 A 
ATOM     18  C   UNL     1       0.129  10.038  20.523  0.00  0.00    +0.000 A 
ATOM     19  C   UNL     1       0.966   8.922  20.384  0.00  0.00    +0.000 A 
BRANCH  17  20
ATOM     20  O   UNL     1      -0.904  11.982  19.437  0.00  0.00    +0.000 OA
ATOM     21  C   UNL     1      -0.665  12.908  18.384  0.00  0.00    +0.000 C 
ENDBRANCH  17  20
ENDBRANCH  10  14
BRANCH   1  22
ATOM     22  C   UNL     1       5.531   6.372  16.418  0.00  0.00    +0.000 C 
BRANCH  22  23
ATOM     23  C   UNL     1       5.319   5.682  15.074  0.00  0.00    +0.000 C 
BRANCH  23  25
ATOM     24  C   UNL     1       6.210   3.831  13.629  0.00  0.00    +0.000 C 
ATOM     25  C   UNL     1       6.567   4.921  14.627  0.00  0.00    +0.000 C 
ENDBRANCH  23  25
ENDBRANCH  22  23
ENDBRANCH   1  22
TORSDOF 5
ENDMDL
MODEL 8
REMARK VINA RESULT:      -7.4      1.380      3.873
REMARK  Name = 
REMARK  7 active torsions:
REMARK  status: ('A' for Active; 'I' for Inactive)
REMARK    1  A    between atoms: C_1  and  C_2
REMARK    2  A    between atoms: C_2  and  C_3
REMARK    3  A    between atoms: C_3  and  C_4
REMARK    4  A    between atoms: C_4  and  C_5
REMARK    5  A    between atoms: C_14  and  C_15
REMARK    6  A    between atoms: C_18  and  O_19
REMARK    7  A    between atoms: O_19  and  C_20
REMARK                            x       y       z     vdW  Elec       q    Type
REMARK                         _______ _______ _______ _____ _____    ______ ____
ROOT
ATOM      1  C   UNL     1       4.654   4.896  16.776  0.00  0.00    +0.000 A 
ATOM      2  N   UNL     1       4.791   3.587  16.824  0.00  0.00    +0.000 NA
ATOM      3  C   UNL     1       3.995   2.987  17.755  0.00  0.00    +0.000 A 
ATOM      4  N   UNL     1       3.904   1.644  17.983  0.00  0.00    +0.000 N 
ATOM      5  C   UNL     1       2.961   1.461  18.967  0.00  0.00    +0.000 A 
ATOM      6  N   UNL     1       2.454   2.600  19.394  0.00  0.00    +0.000 NA
ATOM      7  C   UNL     1       3.095   3.534  18.647  0.00  0.00    +0.000 A 
ATOM      8  C   UNL     1       2.997   4.996  18.575  0.00  0.00    +0.000 A 
ATOM      9  N   UNL     1       2.274   5.879  19.209  0.00  0.00    +0.000 NA
ATOM     10  C   UNL     1       2.641   7.068  18.599  0.00  0.00    +0.000 A 
ATOM     11  N   UNL     1       3.584   6.940  17.645  0.00  0.00    +0.000 NA
ATOM     12  N   UNL     1       3.788   5.606  17.638  0.00  0.00    +0.000 N 
ATOM     13  H   UNL     1       4.425   0.924  17.502  0.00  0.00    +0.000 HD
ENDROOT
BRANCH  10  14
ATOM     14  C   UNL     1       2.000   8.332  18.945  0.00  0.00    +0.000 A 
ATOM     15  C   UNL     1       1.444   8.515  20.219  0.00  0.00    +0.000 A 
ATOM     16  C   UNL     1       0.778   9.702  20.537  0.00  0.00    +0.000 A 
ATOM     17  C   UNL     1       0.670  10.730  19.600  0.00  0.00    +0.000 A 
ATOM     18  C   UNL     1       1.221  10.560  18.330  0.00  0.00    +0.000 A 
ATOM     19  C   UNL     1       1.888   9.369  18.008  0.00  0.00    +0.000 A 
BRANCH  17  20
ATOM     20  O   UNL     1      -0.044  11.819  20.016  0.00  0.00    +0.000 OA
ATOM     21  C   UNL     1       0.596  13.080  19.871  0.00  0.00    +0.000 C 
ENDBRANCH  17  20
ENDBRANCH  10  14
BRANCH   1  22
ATOM     22  C   UNL     1       5.429   5.746  15.801  0.00  0.00    +0.000 C 
BRANCH  22  23
ATOM     23  C   UNL     1       6.820   5.164  15.567  0.00  0.00    +0.000 C 
BRANCH  23  25
ATOM     24  C   UNL     1       6.116   3.856  13.541  0.00  0.00    +0.000 C 
ATOM     25  C   UNL     1       7.080   4.900  14.084  0.00  0.00    +0.000 C 
ENDBRANCH  23  25
ENDBRANCH  22  23
ENDBRANCH   1  22
TORSDOF 5
ENDMDL
MODEL 9
REMARK VINA RESULT:      -7.4      1.393      4.013
REMARK  Name = 
REMARK  7 active torsions:
REMARK  status: ('A' for Active; 'I' for Inactive)
REMARK    1  A    between atoms: C_1  and  C_2
REMARK    2  A    between atoms: C_2  and  C_3
REMARK    3  A    between atoms: C_3  and  C_4
REMARK    4  A    between atoms: C_4  and  C_5
REMARK    5  A    between atoms: C_14  and  C_15
REMARK    6  A    between atoms: C_18  and  O_19
REMARK    7  A    between atoms: O_19  and  C_20
REMARK                            x       y       z     vdW  Elec       q    Type
REMARK                         _______ _______ _______ _____ _____    ______ ____
ROOT
ATOM      1  C   UNL     1       4.633   4.938  16.764  0.00  0.00    +0.000 A 
ATOM      2  N   UNL     1       4.771   3.629  16.813  0.00  0.00    +0.000 NA
ATOM      3  C   UNL     1       3.973   3.030  17.743  0.00  0.00    +0.000 A 
ATOM      4  N   UNL     1       3.882   1.687  17.972  0.00  0.00    +0.000 N 
ATOM      5  C   UNL     1       2.937   1.504  18.954  0.00  0.00    +0.000 A 
ATOM      6  N   UNL     1       2.428   2.644  19.379  0.00  0.00    +0.000 NA
ATOM      7  C   UNL     1       3.070   3.577  18.632  0.00  0.00    +0.000 A 
ATOM      8  C   UNL     1       2.972   5.039  18.559  0.00  0.00    +0.000 A 
ATOM      9  N   UNL     1       2.246   5.922  19.190  0.00  0.00    +0.000 NA
ATOM     10  C   UNL     1       2.614   7.110  18.580  0.00  0.00    +0.000 A 
ATOM     11  N   UNL     1       3.559   6.982  17.628  0.00  0.00    +0.000 NA
ATOM     12  N   UNL     1       3.765   5.648  17.623  0.00  0.00    +0.000 N 
ATOM     13  H   UNL     1       4.405   0.967  17.494  0.00  0.00    +0.000 HD
ENDROOT
BRANCH  10  14
ATOM     14  C   UNL     1       1.971   8.375  18.923  0.00  0.00    +0.000 A 
ATOM     15  C   UNL     1       1.973   9.437  18.008  0.00  0.00    +0.000 A 
ATOM     16  C   UNL     1       1.411  10.669  18.353  0.00  0.00    +0.000 A 
ATOM     17  C   UNL     1       0.824  10.858  19.604  0.00  0.00    +0.000 A 
ATOM     18  C   UNL     1       0.815   9.808  20.522  0.00  0.00    +0.000 A 
ATOM     19  C   UNL     1       1.381   8.572  20.179  0.00  0.00    +0.000 A 
BRANCH  17  20
ATOM     20  O   UNL     1       0.352  12.120  19.837  0.00  0.00    +0.000 OA
ATOM     21  C   UNL     1       1.155  13.188  19.348  0.00  0.00    +0.000 C 
ENDBRANCH  17  20
ENDBRANCH  10  14
BRANCH   1  22
ATOM     22  C   UNL     1       5.410   5.788  15.791  0.00  0.00    +0.000 C 
BRANCH  22  23
ATOM     23  C   UNL     1       6.793   5.193  15.541  0.00  0.00    +0.000 C 
BRANCH  23  25
ATOM     24  C   UNL     1       6.063   3.821  13.569  0.00  0.00    +0.000 C 
ATOM     25  C   UNL     1       7.021   4.895  14.060  0.00  0.00    +0.000 C 
ENDBRANCH  23  25
ENDBRANCH  22  23
ENDBRANCH   1  22
TORSDOF 5
ENDMDL
