MODEL 1
REMARK VINA RESULT:      -9.2      0.000      0.000
REMARK  Name = 
REMARK  6 active torsions:
REMARK  status: ('A' for Active; 'I' for Inactive)
REMARK    1  A    between atoms: C_1  and  C_2
REMARK    2  A    between atoms: N_5  and  C_6
REMARK    3  A    between atoms: C_11  and  C_12
REMARK    4  A    between atoms: N_14  and  C_15
REMARK    5  A    between atoms: C_16  and  C_17
REMARK    6  A    between atoms: C_27  and  N_28
REMARK                            x       y       z     vdW  Elec       q    Type
REMARK                         _______ _______ _______ _____ _____    ______ ____
ROOT
ATOM      1  C   UNL     1       1.542   7.585  20.455  0.00  0.00    +0.000 A 
ATOM      2  C   UNL     1       1.878   8.117  19.212  0.00  0.00    +0.000 A 
ATOM      3  C   UNL     1       1.511   9.424  18.848  0.00  0.00    +0.000 A 
ATOM      4  C   UNL     1       0.801  10.222  19.767  0.00  0.00    +0.000 A 
ATOM      5  S   UNL     1       0.237  11.848  19.565  0.00  0.00    +0.000 S 
ATOM      6  C   UNL     1      -0.447  11.902  21.125  0.00  0.00    +0.000 A 
ATOM      7  C   UNL     1      -0.251  10.706  21.788  0.00  0.00    +0.000 A 
ATOM      8  C   UNL     1       0.465   9.729  21.026  0.00  0.00    +0.000 A 
ATOM      9  C   UNL     1       0.852   8.406  21.362  0.00  0.00    +0.000 A 
ENDROOT
BRANCH   1  14
ATOM     10  C   UNL     1       2.430   1.770  19.091  0.00  0.00    +0.000 C 
ATOM     11  C   UNL     1       2.855   3.211  19.121  0.00  0.00    +0.000 A 
ATOM     12  N   UNL     1       2.199   4.042  19.957  0.00  0.00    +0.000 NA
ATOM     13  C   UNL     1       2.559   5.328  19.922  0.00  0.00    +0.000 A 
ATOM     14  N   UNL     1       1.899   6.252  20.757  0.00  0.00    +0.000 N 
ATOM     15  C   UNL     1       3.593   5.761  19.121  0.00  0.00    +0.000 A 
ATOM     16  C   UNL     1       4.263   4.852  18.330  0.00  0.00    +0.000 A 
ATOM     17  N   UNL     1       3.870   3.572  18.304  0.00  0.00    +0.000 NA
ATOM     18  H   UNL     1       1.224   5.768  21.342  0.00  0.00    +0.000 HD
BRANCH  16  19
ATOM     19  N   UNL     1       5.285   5.294  17.513  0.00  0.00    +0.000 N 
ATOM     20  C   UNL     1       5.615   4.588  16.265  0.00  0.00    +0.000 C 
ATOM     21  C   UNL     1       7.123   4.738  16.015  0.00  0.00    +0.000 C 
ATOM     22  O   UNL     1       7.512   6.123  15.971  0.00  0.00    +0.000 OA
ATOM     23  C   UNL     1       7.158   6.790  17.201  0.00  0.00    +0.000 C 
ATOM     24  C   UNL     1       5.642   6.714  17.473  0.00  0.00    +0.000 C 
ENDBRANCH  16  19
ENDBRANCH   1  14
BRANCH   6  25
ATOM     25  C   UNL     1      -1.122  13.066  21.699  0.00  0.00    +0.000 C 
ATOM     26  O   UNL     1      -1.803  13.805  20.985  0.00  0.00    +0.000 OA
ATOM     27  N   UNL     1      -0.937  13.315  23.057  0.00  0.00    +0.000 N 
ATOM     28  H   UNL     1      -0.052  12.998  23.435  0.00  0.00    +0.000 HD
BRANCH  27  29
ATOM     29  C   UNL     1      -1.545  14.442  23.684  0.00  0.00    +0.000 A 
ATOM     30  C   UNL     1      -0.913  15.698  23.719  0.00  0.00    +0.000 A 
ATOM     31  C   UNL     1       0.361  16.014  22.973  0.00  0.00    +0.000 C 
ATOM     32  C   UNL     1      -1.517  16.759  24.428  0.00  0.00    +0.000 A 
ATOM     33  C   UNL     1      -2.746  16.588  25.059  0.00  0.00    +0.000 A 
ATOM     34  C   UNL     1      -3.403  15.362  24.977  0.00  0.00    +0.000 A 
ATOM     35  C   UNL     1      -2.812  14.297  24.280  0.00  0.00    +0.000 A 
ATOM     36 CL   UNL     1      -3.654  12.787  24.248  0.00  0.00    +0.000 Cl
ENDBRANCH  27  29
ENDBRANCH   6  25
TORSDOF 4
ENDMDL
MODEL 2
REMARK VINA RESULT:      -9.2      1.061      1.305
REMARK  Name = 
REMARK  6 active torsions:
REMARK  status: ('A' for Active; 'I' for Inactive)
REMARK    1  A    between atoms: C_1  and  C_2
REMARK    2  A    between atoms: N_5  and  C_6
REMARK    3  A    between atoms: C_11  and  C_12
REMARK    4  A    between atoms: N_14  and  C_15
REMARK    5  A    between atoms: C_16  and  C_17
REMARK    6  A    between atoms: C_27  and  N_28
REMARK                            x       y       z     vdW  Elec       q    Type
REMARK                         _______ _______ _______ _____ _____    ______ ____
ROOT
ATOM      1  C   UNL     1       1.617   7.540  20.351  0.00  0.00    +0.000 A 
ATOM      2  C   UNL     1       2.025   8.076  19.132  0.00  0.00    +0.000 A 
ATOM      3  C   UNL     1       1.582   9.339  18.700  0.00  0.00    +0.000 A 
ATOM      4  C   UNL     1       0.719  10.087  19.525  0.00  0.00    +0.000 A 
ATOM      5  S   UNL     1       0.037  11.652  19.226  0.00  0.00    +0.000 S 
ATOM      6  C   UNL     1      -0.798  11.673  20.711  0.00  0.00    +0.000 A 
ATOM      7  C   UNL     1      -0.564  10.511  21.422  0.00  0.00    +0.000 A 
ATOM      8  C   UNL     1       0.306   9.588  20.759  0.00  0.00    +0.000 A 
ATOM      9  C   UNL     1       0.772   8.312  21.165  0.00  0.00    +0.000 A 
ENDROOT
BRANCH   1  14
ATOM     10  C   UNL     1       2.785   1.706  19.318  0.00  0.00    +0.000 C 
ATOM     11  C   UNL     1       3.130   3.167  19.244  0.00  0.00    +0.000 A 
ATOM     12  N   UNL     1       2.455   4.013  20.050  0.00  0.00    +0.000 NA
ATOM     13  C   UNL     1       2.741   5.311  19.922  0.00  0.00    +0.000 A 
ATOM     14  N   UNL     1       2.057   6.250  20.722  0.00  0.00    +0.000 N 
ATOM     15  C   UNL     1       3.722   5.748  19.060  0.00  0.00    +0.000 A 
ATOM     16  C   UNL     1       4.416   4.828  18.303  0.00  0.00    +0.000 A 
ATOM     17  N   UNL     1       4.095   3.529  18.370  0.00  0.00    +0.000 NA
ATOM     18  H   UNL     1       1.430   5.768  21.360  0.00  0.00    +0.000 HD
BRANCH  16  19
ATOM     19  N   UNL     1       5.386   5.271  17.424  0.00  0.00    +0.000 N 
ATOM     20  C   UNL     1       5.569   4.630  16.113  0.00  0.00    +0.000 C 
ATOM     21  C   UNL     1       7.056   4.725  15.738  0.00  0.00    +0.000 C 
ATOM     22  O   UNL     1       7.510   6.090  15.739  0.00  0.00    +0.000 OA
ATOM     23  C   UNL     1       7.299   6.696  17.032  0.00  0.00    +0.000 C 
ATOM     24  C   UNL     1       5.811   6.673  17.435  0.00  0.00    +0.000 C 
ENDBRANCH  16  19
ENDBRANCH   1  14
BRANCH   6  25
ATOM     25  C   UNL     1      -1.625  12.782  21.187  0.00  0.00    +0.000 C 
ATOM     26  O   UNL     1      -1.625  13.859  20.586  0.00  0.00    +0.000 OA
ATOM     27  N   UNL     1      -2.372  12.580  22.344  0.00  0.00    +0.000 N 
ATOM     28  H   UNL     1      -1.976  11.919  23.002  0.00  0.00    +0.000 HD
BRANCH  27  29
ATOM     29  C   UNL     1      -3.186  13.621  22.881  0.00  0.00    +0.000 A 
ATOM     30  C   UNL     1      -2.676  14.560  23.795  0.00  0.00    +0.000 A 
ATOM     31  C   UNL     1      -1.215  14.661  24.163  0.00  0.00    +0.000 C 
ATOM     32  C   UNL     1      -3.544  15.517  24.363  0.00  0.00    +0.000 A 
ATOM     33  C   UNL     1      -4.888  15.567  24.002  0.00  0.00    +0.000 A 
ATOM     34  C   UNL     1      -5.383  14.675  23.053  0.00  0.00    +0.000 A 
ATOM     35  C   UNL     1      -4.533  13.715  22.483  0.00  0.00    +0.000 A 
ATOM     36 CL   UNL     1      -5.213  12.609  21.342  0.00  0.00    +0.000 Cl
ENDBRANCH  27  29
ENDBRANCH   6  25
TORSDOF 4
ENDMDL
MODEL 3
REMARK VINA RESULT:      -9.2      1.147      1.154
REMARK  Name = 
REMARK  6 active torsions:
REMARK  status: ('A' for Active; 'I' for Inactive)
REMARK    1  A    between atoms: C_1  and  C_2
REMARK    2  A    between atoms: N_5  and  C_6
REMARK    3  A    between atoms: C_11  and  C_12
REMARK    4  A    between atoms: N_14  and  C_15
REMARK    5  A    between atoms: C_16  and  C_17
REMARK    6  A    between atoms: C_27  and  N_28
REMARK                            x       y       z     vdW  Elec       q    Type
REMARK                         _______ _______ _______ _____ _____    ______ ____
ROOT
ATOM      1  C   UNL     1       1.627   7.426  20.554  0.00  0.00    +0.000 A 
ATOM      2  C   UNL     1       1.885   8.009  19.315  0.00  0.00    +0.000 A 
ATOM      3  C   UNL     1       1.512   9.335  19.036  0.00  0.00    +0.000 A 
ATOM      4  C   UNL     1       0.877  10.099  20.036  0.00  0.00    +0.000 A 
ATOM      5  S   UNL     1       0.322  11.738  19.944  0.00  0.00    +0.000 S 
ATOM      6  C   UNL     1      -0.254  11.729  21.548  0.00  0.00    +0.000 A 
ATOM      7  C   UNL     1      -0.028  10.502  22.142  0.00  0.00    +0.000 A 
ATOM      8  C   UNL     1       0.620   9.552  21.291  0.00  0.00    +0.000 A 
ATOM      9  C   UNL     1       1.012   8.212  21.541  0.00  0.00    +0.000 A 
ENDROOT
BRANCH   1  14
ATOM     10  C   UNL     1       2.493   1.702  18.836  0.00  0.00    +0.000 C 
ATOM     11  C   UNL     1       2.920   3.138  18.947  0.00  0.00    +0.000 A 
ATOM     12  N   UNL     1       2.274   3.918  19.838  0.00  0.00    +0.000 NA
ATOM     13  C   UNL     1       2.636   5.204  19.875  0.00  0.00    +0.000 A 
ATOM     14  N   UNL     1       1.986   6.077  20.772  0.00  0.00    +0.000 N 
ATOM     15  C   UNL     1       3.660   5.684  19.090  0.00  0.00    +0.000 A 
ATOM     16  C   UNL     1       4.320   4.823  18.238  0.00  0.00    +0.000 A 
ATOM     17  N   UNL     1       3.926   3.546  18.141  0.00  0.00    +0.000 NA
ATOM     18  H   UNL     1       1.317   5.559  21.335  0.00  0.00    +0.000 HD
BRANCH  16  19
ATOM     19  N   UNL     1       5.334   5.312  17.437  0.00  0.00    +0.000 N 
ATOM     20  C   UNL     1       5.667   4.666  16.159  0.00  0.00    +0.000 C 
ATOM     21  C   UNL     1       7.172   4.844  15.910  0.00  0.00    +0.000 C 
ATOM     22  O   UNL     1       7.545   6.234  15.925  0.00  0.00    +0.000 OA
ATOM     23  C   UNL     1       7.188   6.842  17.184  0.00  0.00    +0.000 C 
ATOM     24  C   UNL     1       5.674   6.737  17.459  0.00  0.00    +0.000 C 
ENDBRANCH  16  19
ENDBRANCH   1  14
BRANCH   6  25
ATOM     25  C   UNL     1      -0.872  12.873  22.218  0.00  0.00    +0.000 C 
ATOM     26  O   UNL     1      -0.286  13.445  23.139  0.00  0.00    +0.000 OA
ATOM     27  N   UNL     1      -2.142  13.258  21.797  0.00  0.00    +0.000 N 
ATOM     28  H   UNL     1      -2.717  12.511  21.426  0.00  0.00    +0.000 HD
BRANCH  27  29
ATOM     29  C   UNL     1      -2.818  14.351  22.416  0.00  0.00    +0.000 A 
ATOM     30  C   UNL     1      -2.705  15.663  21.923  0.00  0.00    +0.000 A 
ATOM     31  C   UNL     1      -2.012  16.014  20.629  0.00  0.00    +0.000 C 
ATOM     32  C   UNL     1      -3.323  16.722  22.622  0.00  0.00    +0.000 A 
ATOM     33  C   UNL     1      -4.074  16.479  23.769  0.00  0.00    +0.000 A 
ATOM     34  C   UNL     1      -4.236  15.173  24.227  0.00  0.00    +0.000 A 
ATOM     35  C   UNL     1      -3.623  14.111  23.546  0.00  0.00    +0.000 A 
ATOM     36 CL   UNL     1      -3.826  12.517  24.184  0.00  0.00    +0.000 Cl
ENDBRANCH  27  29
ENDBRANCH   6  25
TORSDOF 4
ENDMDL
MODEL 4
REMARK VINA RESULT:      -9.2      1.483      1.834
REMARK  Name = 
REMARK  6 active torsions:
REMARK  status: ('A' for Active; 'I' for Inactive)
REMARK    1  A    between atoms: C_1  and  C_2
REMARK    2  A    between atoms: N_5  and  C_6
REMARK    3  A    between atoms: C_11  and  C_12
REMARK    4  A    between atoms: N_14  and  C_15
REMARK    5  A    between atoms: C_16  and  C_17
REMARK    6  A    between atoms: C_27  and  N_28
REMARK                            x       y       z     vdW  Elec       q    Type
REMARK                         _______ _______ _______ _____ _____    ______ ____
ROOT
ATOM      1  C   UNL     1       1.633   7.400  20.559  0.00  0.00    +0.000 A 
ATOM      2  C   UNL     1       1.903   7.992  19.327  0.00  0.00    +0.000 A 
ATOM      3  C   UNL     1       1.528   9.318  19.052  0.00  0.00    +0.000 A 
ATOM      4  C   UNL     1       0.878  10.073  20.049  0.00  0.00    +0.000 A 
ATOM      5  S   UNL     1       0.317  11.710  19.961  0.00  0.00    +0.000 S 
ATOM      6  C   UNL     1      -0.278  11.689  21.559  0.00  0.00    +0.000 A 
ATOM      7  C   UNL     1      -0.055  10.459  22.148  0.00  0.00    +0.000 A 
ATOM      8  C   UNL     1       0.608   9.517  21.298  0.00  0.00    +0.000 A 
ATOM      9  C   UNL     1       1.002   8.177  21.544  0.00  0.00    +0.000 A 
ENDROOT
BRANCH   1  14
ATOM     10  C   UNL     1       2.500   1.681  18.824  0.00  0.00    +0.000 C 
ATOM     11  C   UNL     1       2.926   3.118  18.937  0.00  0.00    +0.000 A 
ATOM     12  N   UNL     1       2.282   3.895  19.833  0.00  0.00    +0.000 NA
ATOM     13  C   UNL     1       2.642   5.181  19.872  0.00  0.00    +0.000 A 
ATOM     14  N   UNL     1       1.994   6.051  20.773  0.00  0.00    +0.000 N 
ATOM     15  C   UNL     1       3.663   5.664  19.083  0.00  0.00    +0.000 A 
ATOM     16  C   UNL     1       4.321   4.806  18.228  0.00  0.00    +0.000 A 
ATOM     17  N   UNL     1       3.928   3.529  18.129  0.00  0.00    +0.000 NA
ATOM     18  H   UNL     1       1.328   5.531  21.337  0.00  0.00    +0.000 HD
BRANCH  16  19
ATOM     19  N   UNL     1       5.331   5.299  17.424  0.00  0.00    +0.000 N 
ATOM     20  C   UNL     1       5.672   4.645  16.152  0.00  0.00    +0.000 C 
ATOM     21  C   UNL     1       7.176   4.837  15.904  0.00  0.00    +0.000 C 
ATOM     22  O   UNL     1       7.534   6.230  15.908  0.00  0.00    +0.000 OA
ATOM     23  C   UNL     1       7.169   6.846  17.161  0.00  0.00    +0.000 C 
ATOM     24  C   UNL     1       5.657   6.727  17.434  0.00  0.00    +0.000 C 
ENDBRANCH  16  19
ENDBRANCH   1  14
BRANCH   6  25
ATOM     25  C   UNL     1      -0.909  12.826  22.228  0.00  0.00    +0.000 C 
ATOM     26  O   UNL     1      -0.319  13.420  23.133  0.00  0.00    +0.000 OA
ATOM     27  N   UNL     1      -2.194  13.179  21.827  0.00  0.00    +0.000 N 
ATOM     28  H   UNL     1      -2.759  12.416  21.473  0.00  0.00    +0.000 HD
BRANCH  27  29
ATOM     29  C   UNL     1      -2.883  14.263  22.447  0.00  0.00    +0.000 A 
ATOM     30  C   UNL     1      -3.742  14.063  23.542  0.00  0.00    +0.000 A 
ATOM     31  C   UNL     1      -3.890  12.742  24.259  0.00  0.00    +0.000 C 
ATOM     32  C   UNL     1      -4.467  15.155  24.064  0.00  0.00    +0.000 A 
ATOM     33  C   UNL     1      -4.314  16.434  23.534  0.00  0.00    +0.000 A 
ATOM     34  C   UNL     1      -3.419  16.646  22.487  0.00  0.00    +0.000 A 
ATOM     35  C   UNL     1      -2.696  15.569  21.954  0.00  0.00    +0.000 A 
ATOM     36 CL   UNL     1      -1.632  15.886  20.628  0.00  0.00    +0.000 Cl
ENDBRANCH  27  29
ENDBRANCH   6  25
TORSDOF 4
ENDMDL
MODEL 5
REMARK VINA RESULT:      -9.2      0.951      1.539
REMARK  Name = 
REMARK  6 active torsions:
REMARK  status: ('A' for Active; 'I' for Inactive)
REMARK    1  A    between atoms: C_1  and  C_2
REMARK    2  A    between atoms: N_5  and  C_6
REMARK    3  A    between atoms: C_11  and  C_12
REMARK    4  A    between atoms: N_14  and  C_15
REMARK    5  A    between atoms: C_16  and  C_17
REMARK    6  A    between atoms: C_27  and  N_28
REMARK                            x       y       z     vdW  Elec       q    Type
REMARK                         _______ _______ _______ _____ _____    ______ ____
ROOT
ATOM      1  C   UNL     1       1.483   7.557  20.450  0.00  0.00    +0.000 A 
ATOM      2  C   UNL     1       1.835   8.106  19.219  0.00  0.00    +0.000 A 
ATOM      3  C   UNL     1       1.458   9.412  18.862  0.00  0.00    +0.000 A 
ATOM      4  C   UNL     1       0.721  10.191  19.776  0.00  0.00    +0.000 A 
ATOM      5  S   UNL     1       0.139  11.812  19.579  0.00  0.00    +0.000 S 
ATOM      6  C   UNL     1      -0.574  11.841  21.127  0.00  0.00    +0.000 A 
ATOM      7  C   UNL     1      -0.375  10.640  21.781  0.00  0.00    +0.000 A 
ATOM      8  C   UNL     1       0.368   9.680  21.023  0.00  0.00    +0.000 A 
ATOM      9  C   UNL     1       0.766   8.359  21.352  0.00  0.00    +0.000 A 
ENDROOT
BRANCH   1  14
ATOM     10  C   UNL     1       2.417   1.756  19.056  0.00  0.00    +0.000 C 
ATOM     11  C   UNL     1       2.830   3.200  19.093  0.00  0.00    +0.000 A 
ATOM     12  N   UNL     1       2.168   4.022  19.934  0.00  0.00    +0.000 NA
ATOM     13  C   UNL     1       2.518   5.310  19.904  0.00  0.00    +0.000 A 
ATOM     14  N   UNL     1       1.852   6.225  20.745  0.00  0.00    +0.000 N 
ATOM     15  C   UNL     1       3.546   5.756  19.103  0.00  0.00    +0.000 A 
ATOM     16  C   UNL     1       4.223   4.857  18.307  0.00  0.00    +0.000 A 
ATOM     17  N   UNL     1       3.840   3.573  18.276  0.00  0.00    +0.000 NA
ATOM     18  H   UNL     1       1.181   5.733  21.329  0.00  0.00    +0.000 HD
BRANCH  16  19
ATOM     19  N   UNL     1       5.240   5.311  17.490  0.00  0.00    +0.000 N 
ATOM     20  C   UNL     1       5.578   4.611  16.242  0.00  0.00    +0.000 C 
ATOM     21  C   UNL     1       7.084   4.777  15.992  0.00  0.00    +0.000 C 
ATOM     22  O   UNL     1       7.458   6.166  15.950  0.00  0.00    +0.000 OA
ATOM     23  C   UNL     1       7.096   6.828  17.181  0.00  0.00    +0.000 C 
ATOM     24  C   UNL     1       5.582   6.735  17.453  0.00  0.00    +0.000 C 
ENDBRANCH  16  19
ENDBRANCH   1  14
BRANCH   6  25
ATOM     25  C   UNL     1      -1.275  12.990  21.700  0.00  0.00    +0.000 C 
ATOM     26  O   UNL     1      -1.905  13.760  20.973  0.00  0.00    +0.000 OA
ATOM     27  N   UNL     1      -1.171  13.189  23.074  0.00  0.00    +0.000 N 
ATOM     28  H   UNL     1      -0.313  12.851  23.494  0.00  0.00    +0.000 HD
BRANCH  27  29
ATOM     29  C   UNL     1      -1.808  14.299  23.704  0.00  0.00    +0.000 A 
ATOM     30  C   UNL     1      -3.084  14.185  24.286  0.00  0.00    +0.000 A 
ATOM     31  C   UNL     1      -3.815  12.874  24.448  0.00  0.00    +0.000 C 
ATOM     32  C   UNL     1      -3.708  15.333  24.819  0.00  0.00    +0.000 A 
ATOM     33  C   UNL     1      -3.062  16.567  24.809  0.00  0.00    +0.000 A 
ATOM     34  C   UNL     1      -1.775  16.671  24.285  0.00  0.00    +0.000 A 
ATOM     35  C   UNL     1      -1.144  15.539  23.748  0.00  0.00    +0.000 A 
ATOM     36 CL   UNL     1       0.436  15.738  23.075  0.00  0.00    +0.000 Cl
ENDBRANCH  27  29
ENDBRANCH   6  25
TORSDOF 4
ENDMDL
MODEL 6
REMARK VINA RESULT:      -9.1      1.326      1.864
REMARK  Name = 
REMARK  6 active torsions:
REMARK  status: ('A' for Active; 'I' for Inactive)
REMARK    1  A    between atoms: C_1  and  C_2
REMARK    2  A    between atoms: N_5  and  C_6
REMARK    3  A    between atoms: C_11  and  C_12
REMARK    4  A    between atoms: N_14  and  C_15
REMARK    5  A    between atoms: C_16  and  C_17
REMARK    6  A    between atoms: C_27  and  N_28
REMARK                            x       y       z     vdW  Elec       q    Type
REMARK                         _______ _______ _______ _____ _____    ______ ____
ROOT
ATOM      1  C   UNL     1       1.594   7.581  20.338  0.00  0.00    +0.000 A 
ATOM      2  C   UNL     1       2.038   8.115  19.130  0.00  0.00    +0.000 A 
ATOM      3  C   UNL     1       1.602   9.373  18.680  0.00  0.00    +0.000 A 
ATOM      4  C   UNL     1       0.710  10.120  19.474  0.00  0.00    +0.000 A 
ATOM      5  S   UNL     1       0.029  11.680  19.146  0.00  0.00    +0.000 S 
ATOM      6  C   UNL     1      -0.852  11.703  20.605  0.00  0.00    +0.000 A 
ATOM      7  C   UNL     1      -0.634  10.545  21.327  0.00  0.00    +0.000 A 
ATOM      8  C   UNL     1       0.260   9.624  20.696  0.00  0.00    +0.000 A 
ATOM      9  C   UNL     1       0.721   8.352  21.123  0.00  0.00    +0.000 A 
ENDROOT
BRANCH   1  14
ATOM     10  C   UNL     1       2.757   1.733  19.387  0.00  0.00    +0.000 C 
ATOM     11  C   UNL     1       3.106   3.192  19.296  0.00  0.00    +0.000 A 
ATOM     12  N   UNL     1       2.427   4.049  20.087  0.00  0.00    +0.000 NA
ATOM     13  C   UNL     1       2.717   5.345  19.945  0.00  0.00    +0.000 A 
ATOM     14  N   UNL     1       2.030   6.295  20.728  0.00  0.00    +0.000 N 
ATOM     15  C   UNL     1       3.704   5.769  19.083  0.00  0.00    +0.000 A 
ATOM     16  C   UNL     1       4.402   4.838  18.343  0.00  0.00    +0.000 A 
ATOM     17  N   UNL     1       4.077   3.541  18.425  0.00  0.00    +0.000 NA
ATOM     18  H   UNL     1       1.397   5.823  21.368  0.00  0.00    +0.000 HD
BRANCH  16  19
ATOM     19  N   UNL     1       5.377   5.269  17.465  0.00  0.00    +0.000 N 
ATOM     20  C   UNL     1       5.595   4.586  16.181  0.00  0.00    +0.000 C 
ATOM     21  C   UNL     1       7.085   4.694  15.827  0.00  0.00    +0.000 C 
ATOM     22  O   UNL     1       7.515   6.067  15.787  0.00  0.00    +0.000 OA
ATOM     23  C   UNL     1       7.271   6.713  17.054  0.00  0.00    +0.000 C 
ATOM     24  C   UNL     1       5.777   6.678  17.433  0.00  0.00    +0.000 C 
ENDBRANCH  16  19
ENDBRANCH   1  14
BRANCH   6  25
ATOM     25  C   UNL     1      -1.699  12.809  21.050  0.00  0.00    +0.000 C 
ATOM     26  O   UNL     1      -1.662  13.894  20.466  0.00  0.00    +0.000 OA
ATOM     27  N   UNL     1      -2.510  12.595  22.161  0.00  0.00    +0.000 N 
ATOM     28  H   UNL     1      -2.154  11.923  22.830  0.00  0.00    +0.000 HD
BRANCH  27  29
ATOM     29  C   UNL     1      -3.348  13.633  22.666  0.00  0.00    +0.000 A 
ATOM     30  C   UNL     1      -4.688  13.764  22.259  0.00  0.00    +0.000 A 
ATOM     31  C   UNL     1      -5.404  12.750  21.399  0.00  0.00    +0.000 C 
ATOM     32  C   UNL     1      -5.450  14.858  22.722  0.00  0.00    +0.000 A 
ATOM     33  C   UNL     1      -4.904  15.787  23.604  0.00  0.00    +0.000 A 
ATOM     34  C   UNL     1      -3.595  15.628  24.055  0.00  0.00    +0.000 A 
ATOM     35  C   UNL     1      -2.825  14.547  23.599  0.00  0.00    +0.000 A 
ATOM     36 CL   UNL     1      -1.194  14.424  24.161  0.00  0.00    +0.000 Cl
ENDBRANCH  27  29
ENDBRANCH   6  25
TORSDOF 4
ENDMDL
MODEL 7
REMARK VINA RESULT:      -9.0      2.340      3.688
REMARK  Name = 
REMARK  6 active torsions:
REMARK  status: ('A' for Active; 'I' for Inactive)
REMARK    1  A    between atoms: C_1  and  C_2
REMARK    2  A    between atoms: N_5  and  C_6
REMARK    3  A    between atoms: C_11  and  C_12
REMARK    4  A    between atoms: N_14  and  C_15
REMARK    5  A    between atoms: C_16  and  C_17
REMARK    6  A    between atoms: C_27  and  N_28
REMARK                            x       y       z     vdW  Elec       q    Type
REMARK                         _______ _______ _______ _____ _____    ______ ____
ROOT
ATOM      1  C   UNL     1       1.511   8.992  19.378  0.00  0.00    +0.000 A 
ATOM      2  C   UNL     1       1.708   8.164  20.482  0.00  0.00    +0.000 A 
ATOM      3  C   UNL     1       1.069   8.412  21.709  0.00  0.00    +0.000 A 
ATOM      4  C   UNL     1       0.197   9.513  21.823  0.00  0.00    +0.000 A 
ATOM      5  S   UNL     1      -0.702  10.030  23.212  0.00  0.00    +0.000 S 
ATOM      6  C   UNL     1      -1.395  11.350  22.385  0.00  0.00    +0.000 A 
ATOM      7  C   UNL     1      -0.950  11.397  21.078  0.00  0.00    +0.000 A 
ATOM      8  C   UNL     1      -0.037  10.351  20.735  0.00  0.00    +0.000 A 
ATOM      9  C   UNL     1       0.622  10.071  19.510  0.00  0.00    +0.000 A 
ENDROOT
BRANCH   1  14
ATOM     10  C   UNL     1       6.038   6.637  16.150  0.00  0.00    +0.000 C 
ATOM     11  C   UNL     1       4.729   6.534  16.880  0.00  0.00    +0.000 A 
ATOM     12  N   UNL     1       4.068   7.679  17.149  0.00  0.00    +0.000 NA
ATOM     13  C   UNL     1       2.936   7.563  17.848  0.00  0.00    +0.000 A 
ATOM     14  N   UNL     1       2.207   8.723  18.179  0.00  0.00    +0.000 N 
ATOM     15  C   UNL     1       2.443   6.330  18.214  0.00  0.00    +0.000 A 
ATOM     16  C   UNL     1       3.136   5.192  17.860  0.00  0.00    +0.000 A 
ATOM     17  N   UNL     1       4.306   5.295  17.217  0.00  0.00    +0.000 NA
ATOM     18  H   UNL     1       2.654   9.540  17.771  0.00  0.00    +0.000 HD
BRANCH  16  19
ATOM     19  N   UNL     1       2.649   3.958  18.246  0.00  0.00    +0.000 N 
ATOM     20  C   UNL     1       1.229   3.777  18.585  0.00  0.00    +0.000 C 
ATOM     21  C   UNL     1       1.129   2.683  19.658  0.00  0.00    +0.000 C 
ATOM     22  O   UNL     1       1.738   1.457  19.215  0.00  0.00    +0.000 OA
ATOM     23  C   UNL     1       3.123   1.672  18.872  0.00  0.00    +0.000 C 
ATOM     24  C   UNL     1       3.277   2.727  17.759  0.00  0.00    +0.000 C 
ENDBRANCH  16  19
ENDBRANCH   1  14
BRANCH   6  25
ATOM     25  C   UNL     1      -2.354  12.287  22.968  0.00  0.00    +0.000 C 
ATOM     26  O   UNL     1      -3.273  11.875  23.679  0.00  0.00    +0.000 OA
ATOM     27  N   UNL     1      -2.205  13.638  22.662  0.00  0.00    +0.000 N 
ATOM     28  H   UNL     1      -1.784  13.831  21.761  0.00  0.00    +0.000 HD
BRANCH  27  29
ATOM     29  C   UNL     1      -3.113  14.609  23.176  0.00  0.00    +0.000 A 
ATOM     30  C   UNL     1      -2.862  15.292  24.380  0.00  0.00    +0.000 A 
ATOM     31  C   UNL     1      -1.563  15.192  25.142  0.00  0.00    +0.000 C 
ATOM     32  C   UNL     1      -3.833  16.180  24.889  0.00  0.00    +0.000 A 
ATOM     33  C   UNL     1      -5.018  16.417  24.198  0.00  0.00    +0.000 A 
ATOM     34  C   UNL     1      -5.245  15.786  22.976  0.00  0.00    +0.000 A 
ATOM     35  C   UNL     1      -4.291  14.897  22.460  0.00  0.00    +0.000 A 
ATOM     36 CL   UNL     1      -4.645  14.112  20.960  0.00  0.00    +0.000 Cl
ENDBRANCH  27  29
ENDBRANCH   6  25
TORSDOF 4
ENDMDL
MODEL 8
REMARK VINA RESULT:      -8.9      2.997      4.540
REMARK  Name = 
REMARK  6 active torsions:
REMARK  status: ('A' for Active; 'I' for Inactive)
REMARK    1  A    between atoms: C_1  and  C_2
REMARK    2  A    between atoms: N_5  and  C_6
REMARK    3  A    between atoms: C_11  and  C_12
REMARK    4  A    between atoms: N_14  and  C_15
REMARK    5  A    between atoms: C_16  and  C_17
REMARK    6  A    between atoms: C_27  and  N_28
REMARK                            x       y       z     vdW  Elec       q    Type
REMARK                         _______ _______ _______ _____ _____    ______ ____
ROOT
ATOM      1  C   UNL     1       1.077   9.583  19.037  0.00  0.00    +0.000 A 
ATOM      2  C   UNL     1       1.469   9.366  20.356  0.00  0.00    +0.000 A 
ATOM      3  C   UNL     1       0.777   9.946  21.433  0.00  0.00    +0.000 A 
ATOM      4  C   UNL     1      -0.349  10.754  21.175  0.00  0.00    +0.000 A 
ATOM      5  S   UNL     1      -1.362  11.577  22.315  0.00  0.00    +0.000 S 
ATOM      6  C   UNL     1      -2.362  12.224  21.096  0.00  0.00    +0.000 A 
ATOM      7  C   UNL     1      -1.933  11.823  19.846  0.00  0.00    +0.000 A 
ATOM      8  C   UNL     1      -0.779  10.977  19.869  0.00  0.00    +0.000 A 
ATOM      9  C   UNL     1      -0.060  10.375  18.806  0.00  0.00    +0.000 A 
ENDROOT
BRANCH   1  14
ATOM     10  C   UNL     1       5.776   6.542  16.771  0.00  0.00    +0.000 C 
ATOM     11  C   UNL     1       4.437   6.612  17.450  0.00  0.00    +0.000 A 
ATOM     12  N   UNL     1       3.749   7.770  17.363  0.00  0.00    +0.000 NA
ATOM     13  C   UNL     1       2.589   7.823  18.023  0.00  0.00    +0.000 A 
ATOM     14  N   UNL     1       1.829   9.010  17.988  0.00  0.00    +0.000 N 
ATOM     15  C   UNL     1       2.098   6.728  18.699  0.00  0.00    +0.000 A 
ATOM     16  C   UNL     1       2.822   5.555  18.704  0.00  0.00    +0.000 A 
ATOM     17  N   UNL     1       4.018   5.506  18.103  0.00  0.00    +0.000 NA
ATOM     18  H   UNL     1       2.282   9.692  17.386  0.00  0.00    +0.000 HD
BRANCH  16  19
ATOM     19  N   UNL     1       2.336   4.465  19.399  0.00  0.00    +0.000 N 
ATOM     20  C   UNL     1       2.076   4.543  20.845  0.00  0.00    +0.000 C 
ATOM     21  C   UNL     1       2.329   3.156  21.453  0.00  0.00    +0.000 C 
ATOM     22  O   UNL     1       1.524   2.149  20.814  0.00  0.00    +0.000 OA
ATOM     23  C   UNL     1       1.789   2.110  19.396  0.00  0.00    +0.000 C 
ATOM     24  C   UNL     1       1.500   3.468  18.725  0.00  0.00    +0.000 C 
ENDBRANCH  16  19
ENDBRANCH   1  14
BRANCH   6  25
ATOM     25  C   UNL     1      -3.536  13.063  21.339  0.00  0.00    +0.000 C 
ATOM     26  O   UNL     1      -3.706  14.097  20.690  0.00  0.00    +0.000 OA
ATOM     27  N   UNL     1      -4.417  12.665  22.341  0.00  0.00    +0.000 N 
ATOM     28  H   UNL     1      -3.998  12.140  23.099  0.00  0.00    +0.000 HD
BRANCH  27  29
ATOM     29  C   UNL     1      -5.572  13.443  22.651  0.00  0.00    +0.000 A 
ATOM     30  C   UNL     1      -6.823  13.170  22.069  0.00  0.00    +0.000 A 
ATOM     31  C   UNL     1      -7.101  11.959  21.211  0.00  0.00    +0.000 C 
ATOM     32  C   UNL     1      -7.915  14.022  22.341  0.00  0.00    +0.000 A 
ATOM     33  C   UNL     1      -7.779  15.104  23.206  0.00  0.00    +0.000 A 
ATOM     34  C   UNL     1      -6.556  15.343  23.829  0.00  0.00    +0.000 A 
ATOM     35  C   UNL     1      -5.461  14.508  23.565  0.00  0.00    +0.000 A 
ATOM     36 CL   UNL     1      -3.957  14.877  24.335  0.00  0.00    +0.000 Cl
ENDBRANCH  27  29
ENDBRANCH   6  25
TORSDOF 4
ENDMDL
MODEL 9
REMARK VINA RESULT:      -8.9      3.797     11.708
REMARK  Name = 
REMARK  6 active torsions:
REMARK  status: ('A' for Active; 'I' for Inactive)
REMARK    1  A    between atoms: C_1  and  C_2
REMARK    2  A    between atoms: N_5  and  C_6
REMARK    3  A    between atoms: C_11  and  C_12
REMARK    4  A    between atoms: N_14  and  C_15
REMARK    5  A    between atoms: C_16  and  C_17
REMARK    6  A    between atoms: C_27  and  N_28
REMARK                            x       y       z     vdW  Elec       q    Type
REMARK                         _______ _______ _______ _____ _____    ______ ____
ROOT
ATOM      1  C   UNL     1      -0.783  11.271  22.067  0.00  0.00    +0.000 A 
ATOM      2  C   UNL     1      -0.630  11.957  20.863  0.00  0.00    +0.000 A 
ATOM      3  C   UNL     1       0.085  11.402  19.789  0.00  0.00    +0.000 A 
ATOM      4  C   UNL     1       0.648  10.118  19.923  0.00  0.00    +0.000 A 
ATOM      5  S   UNL     1       1.568   9.221  18.759  0.00  0.00    +0.000 S 
ATOM      6  C   UNL     1       1.770   7.892  19.807  0.00  0.00    +0.000 A 
ATOM      7  C   UNL     1       1.149   8.125  21.019  0.00  0.00    +0.000 A 
ATOM      8  C   UNL     1       0.499   9.397  21.106  0.00  0.00    +0.000 A 
ATOM      9  C   UNL     1      -0.231   9.984  22.171  0.00  0.00    +0.000 A 
ENDROOT
BRANCH   1  14
ATOM     10  C   UNL     1      -3.881  15.778  24.628  0.00  0.00    +0.000 C 
ATOM     11  C   UNL     1      -3.777  14.567  23.744  0.00  0.00    +0.000 A 
ATOM     12  N   UNL     1      -2.692  13.778  23.885  0.00  0.00    +0.000 NA
ATOM     13  C   UNL     1      -2.597  12.741  23.049  0.00  0.00    +0.000 A 
ATOM     14  N   UNL     1      -1.478  11.888  23.131  0.00  0.00    +0.000 N 
ATOM     15  C   UNL     1      -3.592  12.461  22.138  0.00  0.00    +0.000 A 
ATOM     16  C   UNL     1      -4.705  13.274  22.080  0.00  0.00    +0.000 A 
ATOM     17  N   UNL     1      -4.783  14.355  22.867  0.00  0.00    +0.000 NA
ATOM     18  H   UNL     1      -0.879  12.177  23.900  0.00  0.00    +0.000 HD
BRANCH  16  19
ATOM     19  N   UNL     1      -5.691  13.002  21.152  0.00  0.00    +0.000 N 
ATOM     20  C   UNL     1      -6.846  12.161  21.500  0.00  0.00    +0.000 C 
ATOM     21  C   UNL     1      -7.287  11.407  20.236  0.00  0.00    +0.000 C 
ATOM     22  O   UNL     1      -7.586  12.316  19.161  0.00  0.00    +0.000 OA
ATOM     23  C   UNL     1      -6.439  13.139  18.858  0.00  0.00    +0.000 C 
ATOM     24  C   UNL     1      -5.987  13.958  20.082  0.00  0.00    +0.000 C 
ENDBRANCH  16  19
ENDBRANCH   1  14
BRANCH   6  25
ATOM     25  C   UNL     1       2.474   6.657  19.460  0.00  0.00    +0.000 C 
ATOM     26  O   UNL     1       3.231   6.125  20.274  0.00  0.00    +0.000 OA
ATOM     27  N   UNL     1       2.278   6.140  18.183  0.00  0.00    +0.000 N 
ATOM     28  H   UNL     1       2.068   6.826  17.468  0.00  0.00    +0.000 HD
BRANCH  27  29
ATOM     29  C   UNL     1       2.946   4.951  17.764  0.00  0.00    +0.000 A 
ATOM     30  C   UNL     1       2.423   3.675  18.038  0.00  0.00    +0.000 A 
ATOM     31  C   UNL     1       1.057   3.442  18.638  0.00  0.00    +0.000 C 
ATOM     32  C   UNL     1       3.165   2.529  17.680  0.00  0.00    +0.000 A 
ATOM     33  C   UNL     1       4.389   2.646  17.026  0.00  0.00    +0.000 A 
ATOM     34  C   UNL     1       4.882   3.908  16.701  0.00  0.00    +0.000 A 
ATOM     35  C   UNL     1       4.158   5.056  17.056  0.00  0.00    +0.000 A 
ATOM     36 CL   UNL     1       4.840   6.596  16.663  0.00  0.00    +0.000 Cl
ENDBRANCH  27  29
ENDBRANCH   6  25
TORSDOF 4
ENDMDL
