MODEL 1
REMARK VINA RESULT:      -7.1      0.000      0.000
REMARK  Name = 
REMARK  6 active torsions:
REMARK  status: ('A' for Active; 'I' for Inactive)
REMARK    1  A    between atoms: C_1  and  C_2
REMARK    2  A    between atoms: C_2  and  N_3
REMARK    3  A    between atoms: C_2  and  C_11
REMARK    4  A    between atoms: N_3  and  C_4
REMARK    5  A    between atoms: C_4  and  C_5
REMARK    6  A    between atoms: N_9  and  C_10
REMARK                            x       y       z     vdW  Elec       q    Type
REMARK                         _______ _______ _______ _____ _____    ______ ____
ROOT
ATOM      1  C   UNL     1       4.926   5.469  19.349  0.00  0.00    +0.000 C 
ATOM      2  C   UNL     1       4.762   4.232  18.450  0.00  0.00    +0.000 C 
ENDROOT
BRANCH   2   3
ATOM      3  C   UNL     1       5.484   4.394  17.111  0.00  0.00    +0.000 A 
ATOM      4  C   UNL     1       4.774   4.253  15.898  0.00  0.00    +0.000 A 
ATOM      5  C   UNL     1       5.405   4.428  14.665  0.00  0.00    +0.000 A 
ATOM      6  C   UNL     1       6.749   4.765  14.627  0.00  0.00    +0.000 A 
ATOM      7  F   UNL     1       7.350   4.942  13.444  0.00  0.00    +0.000 F 
ATOM      8  C   UNL     1       7.473   4.937  15.797  0.00  0.00    +0.000 A 
ATOM      9  C   UNL     1       6.845   4.757  17.033  0.00  0.00    +0.000 A 
ATOM     10 CL   UNL     1       7.807   5.033  18.444  0.00  0.00    +0.000 Cl
ENDBRANCH   2   3
BRANCH   2  11
ATOM     11  N   UNL     1       5.249   2.997  19.083  0.00  0.00    +0.000 NA
ATOM     12  H   UNL     1       5.297   2.280  18.353  0.00  0.00    +0.000 HD
BRANCH  11  13
ATOM     13  C   UNL     1       4.366   2.477  20.129  0.00  0.00    +0.000 C 
BRANCH  13  14
ATOM     14  C   UNL     1       2.943   2.491  19.673  0.00  0.00    +0.000 A 
ATOM     15  N   UNL     1       2.430   1.848  18.642  0.00  0.00    +0.000 NA
ATOM     16  C   UNL     1       1.120   2.230  18.650  0.00  0.00    +0.000 A 
ATOM     17  N   UNL     1       0.777   3.071  19.628  0.00  0.00    +0.000 NA
ATOM     18  N   UNL     1       1.948   3.218  20.276  0.00  0.00    +0.000 N 
ATOM     19  C   UNL     1       2.035   4.055  21.444  0.00  0.00    +0.000 C 
ENDBRANCH  13  14
ENDBRANCH  11  13
ENDBRANCH   2  11
TORSDOF 4
ENDMDL
MODEL 2
REMARK VINA RESULT:      -7.0      1.697      2.057
REMARK  Name = 
REMARK  6 active torsions:
REMARK  status: ('A' for Active; 'I' for Inactive)
REMARK    1  A    between atoms: C_1  and  C_2
REMARK    2  A    between atoms: C_2  and  N_3
REMARK    3  A    between atoms: C_2  and  C_11
REMARK    4  A    between atoms: N_3  and  C_4
REMARK    5  A    between atoms: C_4  and  C_5
REMARK    6  A    between atoms: N_9  and  C_10
REMARK                            x       y       z     vdW  Elec       q    Type
REMARK                         _______ _______ _______ _____ _____    ______ ____
ROOT
ATOM      1  C   UNL     1       7.782   5.753  19.407  0.00  0.00    +0.000 C 
ATOM      2  C   UNL     1       6.339   5.607  18.894  0.00  0.00    +0.000 C 
ENDROOT
BRANCH   2   3
ATOM      3  C   UNL     1       6.287   5.366  17.383  0.00  0.00    +0.000 A 
ATOM      4  C   UNL     1       7.147   4.421  16.784  0.00  0.00    +0.000 A 
ATOM      5  C   UNL     1       7.096   4.161  15.413  0.00  0.00    +0.000 A 
ATOM      6  C   UNL     1       6.170   4.827  14.626  0.00  0.00    +0.000 A 
ATOM      7  F   UNL     1       6.115   4.571  13.313  0.00  0.00    +0.000 F 
ATOM      8  C   UNL     1       5.290   5.744  15.182  0.00  0.00    +0.000 A 
ATOM      9  C   UNL     1       5.344   6.009  16.554  0.00  0.00    +0.000 A 
ATOM     10 CL   UNL     1       4.185   7.133  17.177  0.00  0.00    +0.000 Cl
ENDBRANCH   2   3
BRANCH   2  11
ATOM     11  N   UNL     1       5.605   4.517  19.554  0.00  0.00    +0.000 NA
ATOM     12  H   UNL     1       5.684   3.690  18.954  0.00  0.00    +0.000 HD
BRANCH  11  13
ATOM     13  C   UNL     1       4.175   4.781  19.724  0.00  0.00    +0.000 C 
BRANCH  13  14
ATOM     14  C   UNL     1       3.361   3.659  19.165  0.00  0.00    +0.000 A 
ATOM     15  N   UNL     1       3.237   3.321  17.896  0.00  0.00    +0.000 NA
ATOM     16  C   UNL     1       2.365   2.271  17.933  0.00  0.00    +0.000 A 
ATOM     17  N   UNL     1       1.938   1.927  19.149  0.00  0.00    +0.000 NA
ATOM     18  N   UNL     1       2.590   2.815  19.923  0.00  0.00    +0.000 N 
ATOM     19  C   UNL     1       2.430   2.793  21.353  0.00  0.00    +0.000 C 
ENDBRANCH  13  14
ENDBRANCH  11  13
ENDBRANCH   2  11
TORSDOF 4
ENDMDL
MODEL 3
REMARK VINA RESULT:      -6.9      3.720      6.066
REMARK  Name = 
REMARK  6 active torsions:
REMARK  status: ('A' for Active; 'I' for Inactive)
REMARK    1  A    between atoms: C_1  and  C_2
REMARK    2  A    between atoms: C_2  and  N_3
REMARK    3  A    between atoms: C_2  and  C_11
REMARK    4  A    between atoms: N_3  and  C_4
REMARK    5  A    between atoms: C_4  and  C_5
REMARK    6  A    between atoms: N_9  and  C_10
REMARK                            x       y       z     vdW  Elec       q    Type
REMARK                         _______ _______ _______ _____ _____    ______ ____
ROOT
ATOM      1  C   UNL     1       2.562   3.412  17.165  0.00  0.00    +0.000 C 
ATOM      2  C   UNL     1       3.517   4.419  17.827  0.00  0.00    +0.000 C 
ENDROOT
BRANCH   2   3
ATOM      3  C   UNL     1       2.788   5.353  18.796  0.00  0.00    +0.000 A 
ATOM      4  C   UNL     1       2.128   4.829  19.928  0.00  0.00    +0.000 A 
ATOM      5  C   UNL     1       1.483   5.664  20.843  0.00  0.00    +0.000 A 
ATOM      6  C   UNL     1       1.507   7.036  20.648  0.00  0.00    +0.000 A 
ATOM      7  F   UNL     1       0.897   7.837  21.531  0.00  0.00    +0.000 F 
ATOM      8  C   UNL     1       2.167   7.591  19.562  0.00  0.00    +0.000 A 
ATOM      9  C   UNL     1       2.808   6.755  18.642  0.00  0.00    +0.000 A 
ATOM     10 CL   UNL     1       3.645   7.527  17.339  0.00  0.00    +0.000 Cl
ENDBRANCH   2   3
BRANCH   2  11
ATOM     11  N   UNL     1       4.614   3.769  18.561  0.00  0.00    +0.000 NA
ATOM     12  H   UNL     1       4.320   3.689  19.539  0.00  0.00    +0.000 HD
BRANCH  11  13
ATOM     13  C   UNL     1       5.865   4.530  18.555  0.00  0.00    +0.000 C 
BRANCH  13  14
ATOM     14  C   UNL     1       6.350   4.738  17.157  0.00  0.00    +0.000 A 
ATOM     15  N   UNL     1       6.269   3.888  16.152  0.00  0.00    +0.000 NA
ATOM     16  C   UNL     1       6.886   4.550  15.129  0.00  0.00    +0.000 A 
ATOM     17  N   UNL     1       7.343   5.767  15.431  0.00  0.00    +0.000 NA
ATOM     18  N   UNL     1       6.984   5.874  16.723  0.00  0.00    +0.000 N 
ATOM     19  C   UNL     1       7.275   7.073  17.465  0.00  0.00    +0.000 C 
ENDBRANCH  13  14
ENDBRANCH  11  13
ENDBRANCH   2  11
TORSDOF 4
ENDMDL
MODEL 4
REMARK VINA RESULT:      -6.9      4.034      6.226
REMARK  Name = 
REMARK  6 active torsions:
REMARK  status: ('A' for Active; 'I' for Inactive)
REMARK    1  A    between atoms: C_1  and  C_2
REMARK    2  A    between atoms: C_2  and  N_3
REMARK    3  A    between atoms: C_2  and  C_11
REMARK    4  A    between atoms: N_3  and  C_4
REMARK    5  A    between atoms: C_4  and  C_5
REMARK    6  A    between atoms: N_9  and  C_10
REMARK                            x       y       z     vdW  Elec       q    Type
REMARK                         _______ _______ _______ _____ _____    ______ ____
ROOT
ATOM      1  C   UNL     1       1.929   8.426  17.652  0.00  0.00    +0.000 C 
ATOM      2  C   UNL     1       2.993   7.416  18.113  0.00  0.00    +0.000 C 
ENDROOT
BRANCH   2   3
ATOM      3  C   UNL     1       2.367   6.133  18.665  0.00  0.00    +0.000 A 
ATOM      4  C   UNL     1       2.347   4.958  17.882  0.00  0.00    +0.000 A 
ATOM      5  C   UNL     1       1.811   3.767  18.376  0.00  0.00    +0.000 A 
ATOM      6  C   UNL     1       1.307   3.729  19.666  0.00  0.00    +0.000 A 
ATOM      7  F   UNL     1       0.801   2.584  20.142  0.00  0.00    +0.000 F 
ATOM      8  C   UNL     1       1.332   4.855  20.474  0.00  0.00    +0.000 A 
ATOM      9  C   UNL     1       1.864   6.051  19.980  0.00  0.00    +0.000 A 
ATOM     10 CL   UNL     1       1.897   7.397  21.065  0.00  0.00    +0.000 Cl
ENDBRANCH   2   3
BRANCH   2  11
ATOM     11  N   UNL     1       3.929   7.042  17.042  0.00  0.00    +0.000 NA
ATOM     12  H   UNL     1       3.613   6.145  16.662  0.00  0.00    +0.000 HD
BRANCH  11  13
ATOM     13  C   UNL     1       5.306   6.848  17.497  0.00  0.00    +0.000 C 
BRANCH  13  14
ATOM     14  C   UNL     1       6.056   5.970  16.549  0.00  0.00    +0.000 A 
ATOM     15  N   UNL     1       5.843   5.830  15.255  0.00  0.00    +0.000 NA
ATOM     16  C   UNL     1       6.767   4.896  14.882  0.00  0.00    +0.000 A 
ATOM     17  N   UNL     1       7.551   4.445  15.863  0.00  0.00    +0.000 NA
ATOM     18  N   UNL     1       7.091   5.147  16.916  0.00  0.00    +0.000 N 
ATOM     19  C   UNL     1       7.683   4.981  18.218  0.00  0.00    +0.000 C 
ENDBRANCH  13  14
ENDBRANCH  11  13
ENDBRANCH   2  11
TORSDOF 4
ENDMDL
MODEL 5
REMARK VINA RESULT:      -6.9      3.852      6.075
REMARK  Name = 
REMARK  6 active torsions:
REMARK  status: ('A' for Active; 'I' for Inactive)
REMARK    1  A    between atoms: C_1  and  C_2
REMARK    2  A    between atoms: C_2  and  N_3
REMARK    3  A    between atoms: C_2  and  C_11
REMARK    4  A    between atoms: N_3  and  C_4
REMARK    5  A    between atoms: C_4  and  C_5
REMARK    6  A    between atoms: N_9  and  C_10
REMARK                            x       y       z     vdW  Elec       q    Type
REMARK                         _______ _______ _______ _____ _____    ______ ____
ROOT
ATOM      1  C   UNL     1       2.545   7.750  18.343  0.00  0.00    +0.000 C 
ATOM      2  C   UNL     1       3.448   6.508  18.249  0.00  0.00    +0.000 C 
ENDROOT
BRANCH   2   3
ATOM      3  C   UNL     1       2.662   5.209  18.441  0.00  0.00    +0.000 A 
ATOM      4  C   UNL     1       2.799   4.152  17.516  0.00  0.00    +0.000 A 
ATOM      5  C   UNL     1       2.117   2.946  17.687  0.00  0.00    +0.000 A 
ATOM      6  C   UNL     1       1.305   2.772  18.797  0.00  0.00    +0.000 A 
ATOM      7  F   UNL     1       0.659   1.612  18.966  0.00  0.00    +0.000 F 
ATOM      8  C   UNL     1       1.166   3.778  19.742  0.00  0.00    +0.000 A 
ATOM      9  C   UNL     1       1.844   4.989  19.569  0.00  0.00    +0.000 A 
ATOM     10 CL   UNL     1       1.651   6.175  20.814  0.00  0.00    +0.000 Cl
ENDBRANCH   2   3
BRANCH   2  11
ATOM     11  N   UNL     1       4.168   6.420  16.970  0.00  0.00    +0.000 NA
ATOM     12  H   UNL     1       4.278   5.425  16.751  0.00  0.00    +0.000 HD
BRANCH  11  13
ATOM     13  C   UNL     1       5.513   6.997  17.003  0.00  0.00    +0.000 C 
BRANCH  13  14
ATOM     14  C   UNL     1       6.521   5.963  17.387  0.00  0.00    +0.000 A 
ATOM     15  N   UNL     1       7.021   5.746  18.588  0.00  0.00    +0.000 NA
ATOM     16  C   UNL     1       7.912   4.732  18.381  0.00  0.00    +0.000 A 
ATOM     17  N   UNL     1       7.997   4.296  17.123  0.00  0.00    +0.000 NA
ATOM     18  N   UNL     1       7.097   5.084  16.505  0.00  0.00    +0.000 N 
ATOM     19  C   UNL     1       6.845   4.939  15.096  0.00  0.00    +0.000 C 
ENDBRANCH  13  14
ENDBRANCH  11  13
ENDBRANCH   2  11
TORSDOF 4
ENDMDL
MODEL 6
REMARK VINA RESULT:      -6.8      3.915      6.537
REMARK  Name = 
REMARK  6 active torsions:
REMARK  status: ('A' for Active; 'I' for Inactive)
REMARK    1  A    between atoms: C_1  and  C_2
REMARK    2  A    between atoms: C_2  and  N_3
REMARK    3  A    between atoms: C_2  and  C_11
REMARK    4  A    between atoms: N_3  and  C_4
REMARK    5  A    between atoms: C_4  and  C_5
REMARK    6  A    between atoms: N_9  and  C_10
REMARK                            x       y       z     vdW  Elec       q    Type
REMARK                         _______ _______ _______ _____ _____    ______ ____
ROOT
ATOM      1  C   UNL     1       4.391   2.822  16.940  0.00  0.00    +0.000 C 
ATOM      2  C   UNL     1       4.368   3.855  18.080  0.00  0.00    +0.000 C 
ENDROOT
BRANCH   2   3
ATOM      3  C   UNL     1       3.368   3.480  19.177  0.00  0.00    +0.000 A 
ATOM      4  C   UNL     1       3.816   2.867  20.367  0.00  0.00    +0.000 A 
ATOM      5  C   UNL     1       2.927   2.545  21.395  0.00  0.00    +0.000 A 
ATOM      6  C   UNL     1       1.583   2.850  21.255  0.00  0.00    +0.000 A 
ATOM      7  F   UNL     1       0.732   2.549  22.245  0.00  0.00    +0.000 F 
ATOM      8  C   UNL     1       1.109   3.475  20.111  0.00  0.00    +0.000 A 
ATOM      9  C   UNL     1       1.997   3.794  19.078  0.00  0.00    +0.000 A 
ATOM     10 CL   UNL     1       1.334   4.611  17.705  0.00  0.00    +0.000 Cl
ENDBRANCH   2   3
BRANCH   2  11
ATOM     11  N   UNL     1       5.684   4.043  18.708  0.00  0.00    +0.000 NA
ATOM     12  H   UNL     1       5.615   4.862  19.319  0.00  0.00    +0.000 HD
BRANCH  11  13
ATOM     13  C   UNL     1       6.764   4.314  17.757  0.00  0.00    +0.000 C 
BRANCH  13  14
ATOM     14  C   UNL     1       7.098   5.770  17.739  0.00  0.00    +0.000 A 
ATOM     15  N   UNL     1       7.999   6.389  18.476  0.00  0.00    +0.000 NA
ATOM     16  C   UNL     1       7.874   7.695  18.097  0.00  0.00    +0.000 A 
ATOM     17  N   UNL     1       6.952   7.932  17.162  0.00  0.00    +0.000 NA
ATOM     18  N   UNL     1       6.475   6.693  16.938  0.00  0.00    +0.000 N 
ATOM     19  C   UNL     1       5.443   6.475  15.959  0.00  0.00    +0.000 C 
ENDBRANCH  13  14
ENDBRANCH  11  13
ENDBRANCH   2  11
TORSDOF 4
ENDMDL
MODEL 7
REMARK VINA RESULT:      -6.8      2.905      4.028
REMARK  Name = 
REMARK  6 active torsions:
REMARK  status: ('A' for Active; 'I' for Inactive)
REMARK    1  A    between atoms: C_1  and  C_2
REMARK    2  A    between atoms: C_2  and  N_3
REMARK    3  A    between atoms: C_2  and  C_11
REMARK    4  A    between atoms: N_3  and  C_4
REMARK    5  A    between atoms: C_4  and  C_5
REMARK    6  A    between atoms: N_9  and  C_10
REMARK                            x       y       z     vdW  Elec       q    Type
REMARK                         _______ _______ _______ _____ _____    ______ ____
ROOT
ATOM      1  C   UNL     1       4.803   3.700  17.046  0.00  0.00    +0.000 C 
ATOM      2  C   UNL     1       5.106   4.605  18.252  0.00  0.00    +0.000 C 
ENDROOT
BRANCH   2   3
ATOM      3  C   UNL     1       4.111   5.763  18.368  0.00  0.00    +0.000 A 
ATOM      4  C   UNL     1       3.293   5.886  19.512  0.00  0.00    +0.000 A 
ATOM      5  C   UNL     1       2.401   6.951  19.654  0.00  0.00    +0.000 A 
ATOM      6  C   UNL     1       2.330   7.918  18.664  0.00  0.00    +0.000 A 
ATOM      7  F   UNL     1       1.481   8.944  18.805  0.00  0.00    +0.000 F 
ATOM      8  C   UNL     1       3.136   7.846  17.538  0.00  0.00    +0.000 A 
ATOM      9  C   UNL     1       4.025   6.777  17.391  0.00  0.00    +0.000 A 
ATOM     10 CL   UNL     1       5.025   6.783  15.979  0.00  0.00    +0.000 Cl
ENDBRANCH   2   3
BRANCH   2  11
ATOM     11  N   UNL     1       5.105   3.875  19.529  0.00  0.00    +0.000 NA
ATOM     12  H   UNL     1       6.082   3.679  19.768  0.00  0.00    +0.000 HD
BRANCH  11  13
ATOM     13  C   UNL     1       4.415   2.586  19.476  0.00  0.00    +0.000 C 
BRANCH  13  14
ATOM     14  C   UNL     1       3.146   2.633  20.264  0.00  0.00    +0.000 A 
ATOM     15  N   UNL     1       3.024   2.636  21.577  0.00  0.00    +0.000 NA
ATOM     16  C   UNL     1       1.672   2.649  21.768  0.00  0.00    +0.000 A 
ATOM     17  N   UNL     1       0.938   2.661  20.654  0.00  0.00    +0.000 NA
ATOM     18  N   UNL     1       1.893   2.661  19.705  0.00  0.00    +0.000 N 
ATOM     19  C   UNL     1       1.537   2.689  18.311  0.00  0.00    +0.000 C 
ENDBRANCH  13  14
ENDBRANCH  11  13
ENDBRANCH   2  11
TORSDOF 4
ENDMDL
MODEL 8
REMARK VINA RESULT:      -6.7      2.012      2.631
REMARK  Name = 
REMARK  6 active torsions:
REMARK  status: ('A' for Active; 'I' for Inactive)
REMARK    1  A    between atoms: C_1  and  C_2
REMARK    2  A    between atoms: C_2  and  N_3
REMARK    3  A    between atoms: C_2  and  C_11
REMARK    4  A    between atoms: N_3  and  C_4
REMARK    5  A    between atoms: C_4  and  C_5
REMARK    6  A    between atoms: N_9  and  C_10
REMARK                            x       y       z     vdW  Elec       q    Type
REMARK                         _______ _______ _______ _____ _____    ______ ____
ROOT
ATOM      1  C   UNL     1       2.725   7.411  18.265  0.00  0.00    +0.000 C 
ATOM      2  C   UNL     1       3.198   5.963  18.481  0.00  0.00    +0.000 C 
ENDROOT
BRANCH   2   3
ATOM      3  C   UNL     1       4.364   5.595  17.560  0.00  0.00    +0.000 A 
ATOM      4  C   UNL     1       5.552   6.357  17.578  0.00  0.00    +0.000 A 
ATOM      5  C   UNL     1       6.641   6.021  16.771  0.00  0.00    +0.000 A 
ATOM      6  C   UNL     1       6.563   4.907  15.950  0.00  0.00    +0.000 A 
ATOM      7  F   UNL     1       7.611   4.580  15.183  0.00  0.00    +0.000 F 
ATOM      8  C   UNL     1       5.423   4.119  15.923  0.00  0.00    +0.000 A 
ATOM      9  C   UNL     1       4.329   4.457  16.727  0.00  0.00    +0.000 A 
ATOM     10 CL   UNL     1       2.962   3.399  16.668  0.00  0.00    +0.000 Cl
ENDBRANCH   2   3
BRANCH   2  11
ATOM     11  N   UNL     1       3.611   5.697  19.867  0.00  0.00    +0.000 NA
ATOM     12  H   UNL     1       4.350   4.989  19.833  0.00  0.00    +0.000 HD
BRANCH  11  13
ATOM     13  C   UNL     1       2.545   5.156  20.711  0.00  0.00    +0.000 C 
BRANCH  13  14
ATOM     14  C   UNL     1       1.974   3.913  20.108  0.00  0.00    +0.000 A 
ATOM     15  N   UNL     1       0.744   3.734  19.668  0.00  0.00    +0.000 NA
ATOM     16  C   UNL     1       0.740   2.431  19.261  0.00  0.00    +0.000 A 
ATOM     17  N   UNL     1       1.897   1.782  19.414  0.00  0.00    +0.000 NA
ATOM     18  N   UNL     1       2.674   2.745  19.946  0.00  0.00    +0.000 N 
ATOM     19  C   UNL     1       4.052   2.477  20.264  0.00  0.00    +0.000 C 
ENDBRANCH  13  14
ENDBRANCH  11  13
ENDBRANCH   2  11
TORSDOF 4
ENDMDL
MODEL 9
REMARK VINA RESULT:      -6.7      3.831      6.040
REMARK  Name = 
REMARK  6 active torsions:
REMARK  status: ('A' for Active; 'I' for Inactive)
REMARK    1  A    between atoms: C_1  and  C_2
REMARK    2  A    between atoms: C_2  and  N_3
REMARK    3  A    between atoms: C_2  and  C_11
REMARK    4  A    between atoms: N_3  and  C_4
REMARK    5  A    between atoms: C_4  and  C_5
REMARK    6  A    between atoms: N_9  and  C_10
REMARK                            x       y       z     vdW  Elec       q    Type
REMARK                         _______ _______ _______ _____ _____    ______ ____
ROOT
ATOM      1  C   UNL     1       4.308   3.147  19.276  0.00  0.00    +0.000 C 
ATOM      2  C   UNL     1       3.241   3.808  18.386  0.00  0.00    +0.000 C 
ENDROOT
BRANCH   2   3
ATOM      3  C   UNL     1       2.793   5.165  18.936  0.00  0.00    +0.000 A 
ATOM      4  C   UNL     1       3.012   6.342  18.188  0.00  0.00    +0.000 A 
ATOM      5  C   UNL     1       2.584   7.587  18.654  0.00  0.00    +0.000 A 
ATOM      6  C   UNL     1       1.913   7.668  19.864  0.00  0.00    +0.000 A 
ATOM      7  F   UNL     1       1.494   8.861  20.306  0.00  0.00    +0.000 F 
ATOM      8  C   UNL     1       1.656   6.531  20.614  0.00  0.00    +0.000 A 
ATOM      9  C   UNL     1       2.089   5.285  20.152  0.00  0.00    +0.000 A 
ATOM     10 CL   UNL     1       1.691   3.911  21.126  0.00  0.00    +0.000 Cl
ENDBRANCH   2   3
BRANCH   2  11
ATOM     11  N   UNL     1       3.693   4.005  17.001  0.00  0.00    +0.000 NA
ATOM     12  H   UNL     1       2.924   3.722  16.386  0.00  0.00    +0.000 HD
BRANCH  11  13
ATOM     13  C   UNL     1       4.852   3.189  16.633  0.00  0.00    +0.000 C 
BRANCH  13  14
ATOM     14  C   UNL     1       5.800   3.972  15.784  0.00  0.00    +0.000 A 
ATOM     15  N   UNL     1       5.716   4.186  14.485  0.00  0.00    +0.000 NA
ATOM     16  C   UNL     1       6.837   4.915  14.211  0.00  0.00    +0.000 A 
ATOM     17  N   UNL     1       7.618   5.177  15.261  0.00  0.00    +0.000 NA
ATOM     18  N   UNL     1       6.937   4.578  16.256  0.00  0.00    +0.000 N 
ATOM     19  C   UNL     1       7.427   4.627  17.609  0.00  0.00    +0.000 C 
ENDBRANCH  13  14
ENDBRANCH  11  13
ENDBRANCH   2  11
TORSDOF 4
ENDMDL
