MODEL 1
REMARK VINA RESULT:      -6.9      0.000      0.000
REMARK  Name = 
REMARK  5 active torsions:
REMARK  status: ('A' for Active; 'I' for Inactive)
REMARK    1  A    between atoms: C_2  and  C_25
REMARK    2  A    between atoms: N_3  and  C_4
REMARK    3  A    between atoms: C_6  and  S_7
REMARK    4  A    between atoms: S_7  and  N_10
REMARK    5  A    between atoms: C_18  and  N_19
REMARK                            x       y       z     vdW  Elec       q    Type
REMARK                         _______ _______ _______ _____ _____    ______ ____
ROOT
ATOM      1  C   UNL     1      -3.050  12.346  19.393  0.00  0.00    +0.000 A 
ATOM      2  C   UNL     1      -1.692  12.014  19.584  0.00  0.00    +0.000 A 
ATOM      3  C   UNL     1      -1.130  10.893  18.973  0.00  0.00    +0.000 A 
ATOM      4  C   UNL     1      -1.928  10.084  18.174  0.00  0.00    +0.000 A 
ATOM      5  C   UNL     1      -3.269  10.438  17.961  0.00  0.00    +0.000 A 
ATOM      6  C   UNL     1      -3.860  11.599  18.511  0.00  0.00    +0.000 A 
ENDROOT
BRANCH   6   7
ATOM      7  N   UNL     1      -5.193  11.850  18.222  0.00  0.00    +0.000 N 
ATOM      8  C   UNL     1      -5.701  12.469  16.993  0.00  0.00    +0.000 C 
ATOM      9  C   UNL     1      -6.879  13.408  17.313  0.00  0.00    +0.000 C 
ATOM     10  O   UNL     1      -7.909  12.749  18.067  0.00  0.00    +0.000 OA
ATOM     11  C   UNL     1      -7.372  12.259  19.307  0.00  0.00    +0.000 C 
ATOM     12  C   UNL     1      -6.259  11.232  19.051  0.00  0.00    +0.000 C 
ENDBRANCH   6   7
BRANCH   1  15
ATOM     13  O   UNL     1      -4.314  12.315  21.882  0.00  0.00    +0.000 OA
ATOM     14  C   UNL     1      -4.184  13.380  21.276  0.00  0.00    +0.000 C 
ATOM     15  N   UNL     1      -3.527  13.501  20.054  0.00  0.00    +0.000 N 
ATOM     16  H   UNL     1      -3.781  14.291  19.475  0.00  0.00    +0.000 HD
BRANCH  14  17
ATOM     17  C   UNL     1      -4.693  14.718  21.840  0.00  0.00    +0.000 C 
ATOM     18  C   UNL     1      -4.007  15.909  21.164  0.00  0.00    +0.000 C 
ATOM     19  O   UNL     1      -2.652  16.103  21.582  0.00  0.00    +0.000 OA
ATOM     20  C   UNL     1      -2.445  15.802  22.898  0.00  0.00    +0.000 A 
ATOM     21  C   UNL     1      -1.181  16.097  23.409  0.00  0.00    +0.000 A 
ATOM     22  C   UNL     1      -0.875  15.801  24.737  0.00  0.00    +0.000 A 
ATOM     23  C   UNL     1      -1.847  15.240  25.564  0.00  0.00    +0.000 A 
ATOM     24  C   UNL     1      -3.118  14.961  25.059  0.00  0.00    +0.000 A 
ATOM     25  C   UNL     1      -3.404  15.205  23.715  0.00  0.00    +0.000 A 
ATOM     26  O   UNL     1      -4.633  14.799  23.264  0.00  0.00    +0.000 OA
ENDBRANCH  14  17
ENDBRANCH   1  15
BRANCH   3  27
ATOM     27  S   UNL     1       0.642  10.661  19.019  0.00  0.00    +0.000 S 
ATOM     28  O   UNL     1       0.953   9.624  18.058  0.00  0.00    +0.000 OA
ATOM     29  O   UNL     1       1.226  11.980  18.894  0.00  0.00    +0.000 OA
BRANCH  27  30
ATOM     30  N   UNL     1       1.029  10.076  20.547  0.00  0.00    +0.000 NA
ATOM     31  C   UNL     1       0.884   8.638  20.865  0.00  0.00    +0.000 C 
ATOM     32  C   UNL     1      -0.458   8.376  21.542  0.00  0.00    +0.000 C 
ATOM     33  O   UNL     1      -0.608   9.182  22.721  0.00  0.00    +0.000 OA
ATOM     34  C   UNL     1      -0.492  10.586  22.435  0.00  0.00    +0.000 C 
ATOM     35  C   UNL     1       0.834  10.925  21.744  0.00  0.00    +0.000 C 
ENDBRANCH  27  30
ENDBRANCH   3  27
TORSDOF 5
ENDMDL
MODEL 2
REMARK VINA RESULT:      -6.5      3.041      7.295
REMARK  Name = 
REMARK  5 active torsions:
REMARK  status: ('A' for Active; 'I' for Inactive)
REMARK    1  A    between atoms: C_2  and  C_25
REMARK    2  A    between atoms: N_3  and  C_4
REMARK    3  A    between atoms: C_6  and  S_7
REMARK    4  A    between atoms: S_7  and  N_10
REMARK    5  A    between atoms: C_18  and  N_19
REMARK                            x       y       z     vdW  Elec       q    Type
REMARK                         _______ _______ _______ _____ _____    ______ ____
ROOT
ATOM      1  C   UNL     1      -3.265  13.334  22.734  0.00  0.00    +0.000 A 
ATOM      2  C   UNL     1      -4.494  12.733  23.077  0.00  0.00    +0.000 A 
ATOM      3  C   UNL     1      -5.526  13.475  23.649  0.00  0.00    +0.000 A 
ATOM      4  C   UNL     1      -5.332  14.828  23.898  0.00  0.00    +0.000 A 
ATOM      5  C   UNL     1      -4.120  15.428  23.524  0.00  0.00    +0.000 A 
ATOM      6  C   UNL     1      -3.073  14.724  22.885  0.00  0.00    +0.000 A 
ENDROOT
BRANCH   6   7
ATOM      7  N   UNL     1      -1.924  15.427  22.554  0.00  0.00    +0.000 N 
ATOM      8  C   UNL     1      -0.648  15.372  23.277  0.00  0.00    +0.000 C 
ATOM      9  C   UNL     1       0.003  16.768  23.321  0.00  0.00    +0.000 C 
ATOM     10  O   UNL     1       0.132  17.347  22.012  0.00  0.00    +0.000 OA
ATOM     11  C   UNL     1      -1.162  17.472  21.400  0.00  0.00    +0.000 C 
ATOM     12  C   UNL     1      -1.820  16.093  21.231  0.00  0.00    +0.000 C 
ENDBRANCH   6   7
BRANCH   1  15
ATOM     13  O   UNL     1      -3.008  12.880  19.992  0.00  0.00    +0.000 OA
ATOM     14  C   UNL     1      -2.259  12.300  20.779  0.00  0.00    +0.000 C 
ATOM     15  N   UNL     1      -2.280  12.499  22.158  0.00  0.00    +0.000 N 
ATOM     16  H   UNL     1      -1.918  11.749  22.733  0.00  0.00    +0.000 HD
BRANCH  14  17
ATOM     17  C   UNL     1      -1.167  11.323  20.312  0.00  0.00    +0.000 C 
ATOM     18  C   UNL     1      -0.206  10.969  21.450  0.00  0.00    +0.000 C 
ATOM     19  O   UNL     1       0.703  12.024  21.783  0.00  0.00    +0.000 OA
ATOM     20  C   UNL     1       1.104  12.751  20.699  0.00  0.00    +0.000 A 
ATOM     21  C   UNL     1       2.094  13.707  20.927  0.00  0.00    +0.000 A 
ATOM     22  C   UNL     1       2.546  14.511  19.880  0.00  0.00    +0.000 A 
ATOM     23  C   UNL     1       2.031  14.335  18.597  0.00  0.00    +0.000 A 
ATOM     24  C   UNL     1       1.054  13.365  18.364  0.00  0.00    +0.000 A 
ATOM     25  C   UNL     1       0.562  12.602  19.423  0.00  0.00    +0.000 A 
ATOM     26  O   UNL     1      -0.477  11.753  19.138  0.00  0.00    +0.000 OA
ENDBRANCH  14  17
ENDBRANCH   1  15
BRANCH   3  27
ATOM     27  S   UNL     1      -7.149  12.743  23.817  0.00  0.00    +0.000 S 
ATOM     28  O   UNL     1      -6.946  11.365  24.211  0.00  0.00    +0.000 OA
ATOM     29  O   UNL     1      -7.914  13.644  24.653  0.00  0.00    +0.000 OA
BRANCH  27  30
ATOM     30  N   UNL     1      -7.856  12.741  22.292  0.00  0.00    +0.000 NA
ATOM     31  C   UNL     1      -7.791  11.540  21.430  0.00  0.00    +0.000 C 
ATOM     32  C   UNL     1      -6.625  11.650  20.451  0.00  0.00    +0.000 C 
ATOM     33  O   UNL     1      -6.725  12.845  19.662  0.00  0.00    +0.000 OA
ATOM     34  C   UNL     1      -6.767  14.029  20.476  0.00  0.00    +0.000 C 
ATOM     35  C   UNL     1      -7.915  13.987  21.493  0.00  0.00    +0.000 C 
ENDBRANCH  27  30
ENDBRANCH   3  27
TORSDOF 5
ENDMDL
MODEL 3
REMARK VINA RESULT:      -6.5      5.358     10.920
REMARK  Name = 
REMARK  5 active torsions:
REMARK  status: ('A' for Active; 'I' for Inactive)
REMARK    1  A    between atoms: C_2  and  C_25
REMARK    2  A    between atoms: N_3  and  C_4
REMARK    3  A    between atoms: C_6  and  S_7
REMARK    4  A    between atoms: S_7  and  N_10
REMARK    5  A    between atoms: C_18  and  N_19
REMARK                            x       y       z     vdW  Elec       q    Type
REMARK                         _______ _______ _______ _____ _____    ______ ____
ROOT
ATOM      1  C   UNL     1       2.689   6.230  19.225  0.00  0.00    +0.000 A 
ATOM      2  C   UNL     1       2.264   7.510  19.636  0.00  0.00    +0.000 A 
ATOM      3  C   UNL     1       1.264   7.666  20.596  0.00  0.00    +0.000 A 
ATOM      4  C   UNL     1       0.668   6.537  21.143  0.00  0.00    +0.000 A 
ATOM      5  C   UNL     1       1.118   5.266  20.755  0.00  0.00    +0.000 A 
ATOM      6  C   UNL     1       2.171   5.066  19.833  0.00  0.00    +0.000 A 
ENDROOT
BRANCH   6   7
ATOM      7  N   UNL     1       2.536   3.762  19.534  0.00  0.00    +0.000 N 
ATOM      8  C   UNL     1       3.347   2.883  20.383  0.00  0.00    +0.000 C 
ATOM      9  C   UNL     1       4.298   2.032  19.520  0.00  0.00    +0.000 C 
ATOM     10  O   UNL     1       3.600   1.316  18.489  0.00  0.00    +0.000 OA
ATOM     11  C   UNL     1       2.913   2.239  17.628  0.00  0.00    +0.000 C 
ATOM     12  C   UNL     1       1.870   3.046  18.416  0.00  0.00    +0.000 C 
ENDBRANCH   6   7
BRANCH   1  15
ATOM     13  O   UNL     1       2.818   7.912  17.002  0.00  0.00    +0.000 OA
ATOM     14  C   UNL     1       3.665   7.030  17.149  0.00  0.00    +0.000 C 
ATOM     15  N   UNL     1       3.710   6.175  18.248  0.00  0.00    +0.000 N 
ATOM     16  H   UNL     1       4.175   5.286  18.117  0.00  0.00    +0.000 HD
BRANCH  14  17
ATOM     17  C   UNL     1       4.812   6.811  16.148  0.00  0.00    +0.000 C 
ATOM     18  C   UNL     1       5.089   5.321  15.929  0.00  0.00    +0.000 C 
ATOM     19  O   UNL     1       5.759   4.695  17.027  0.00  0.00    +0.000 OA
ATOM     20  C   UNL     1       6.660   5.513  17.647  0.00  0.00    +0.000 A 
ATOM     21  C   UNL     1       7.448   4.928  18.639  0.00  0.00    +0.000 A 
ATOM     22  C   UNL     1       8.377   5.697  19.340  0.00  0.00    +0.000 A 
ATOM     23  C   UNL     1       8.542   7.045  19.025  0.00  0.00    +0.000 A 
ATOM     24  C   UNL     1       7.767   7.627  18.019  0.00  0.00    +0.000 A 
ATOM     25  C   UNL     1       6.798   6.870  17.359  0.00  0.00    +0.000 A 
ATOM     26  O   UNL     1       5.998   7.539  16.469  0.00  0.00    +0.000 OA
ENDBRANCH  14  17
ENDBRANCH   1  15
BRANCH   3  27
ATOM     27  S   UNL     1       0.947   9.286  21.282  0.00  0.00    +0.000 S 
ATOM     28  O   UNL     1      -0.418   9.275  21.765  0.00  0.00    +0.000 OA
ATOM     29  O   UNL     1       2.045   9.564  22.184  0.00  0.00    +0.000 OA
BRANCH  27  30
ATOM     30  N   UNL     1       1.034  10.390  20.018  0.00  0.00    +0.000 NA
ATOM     31  C   UNL     1       1.166  11.839  20.288  0.00  0.00    +0.000 C 
ATOM     32  C   UNL     1      -0.203  12.513  20.254  0.00  0.00    +0.000 C 
ATOM     33  O   UNL     1      -0.862  12.281  19.000  0.00  0.00    +0.000 OA
ATOM     34  C   UNL     1      -1.022  10.879  18.725  0.00  0.00    +0.000 C 
ATOM     35  C   UNL     1       0.317  10.132  18.749  0.00  0.00    +0.000 C 
ENDBRANCH  27  30
ENDBRANCH   3  27
TORSDOF 5
ENDMDL
MODEL 4
REMARK VINA RESULT:      -6.4      3.698      5.985
REMARK  Name = 
REMARK  5 active torsions:
REMARK  status: ('A' for Active; 'I' for Inactive)
REMARK    1  A    between atoms: C_2  and  C_25
REMARK    2  A    between atoms: N_3  and  C_4
REMARK    3  A    between atoms: C_6  and  S_7
REMARK    4  A    between atoms: S_7  and  N_10
REMARK    5  A    between atoms: C_18  and  N_19
REMARK                            x       y       z     vdW  Elec       q    Type
REMARK                         _______ _______ _______ _____ _____    ______ ____
ROOT
ATOM      1  C   UNL     1       1.276   9.529  20.223  0.00  0.00    +0.000 A 
ATOM      2  C   UNL     1       1.596   8.167  20.400  0.00  0.00    +0.000 A 
ATOM      3  C   UNL     1       1.996   7.373  19.326  0.00  0.00    +0.000 A 
ATOM      4  C   UNL     1       2.064   7.934  18.056  0.00  0.00    +0.000 A 
ATOM      5  C   UNL     1       1.777   9.297  17.892  0.00  0.00    +0.000 A 
ATOM      6  C   UNL     1       1.429  10.150  18.965  0.00  0.00    +0.000 A 
ENDROOT
BRANCH   6   7
ATOM      7  N   UNL     1       1.176  11.484  18.681  0.00  0.00    +0.000 N 
ATOM      8  C   UNL     1       2.148  12.579  18.776  0.00  0.00    +0.000 C 
ATOM      9  C   UNL     1       1.469  13.851  19.319  0.00  0.00    +0.000 C 
ATOM     10  O   UNL     1       0.303  14.210  18.559  0.00  0.00    +0.000 OA
ATOM     11  C   UNL     1      -0.654  13.138  18.593  0.00  0.00    +0.000 C 
ATOM     12  C   UNL     1      -0.068  11.864  17.965  0.00  0.00    +0.000 C 
ENDBRANCH   6   7
BRANCH   1  15
ATOM     13  O   UNL     1      -1.325  10.426  20.693  0.00  0.00    +0.000 OA
ATOM     14  C   UNL     1      -0.433  10.694  21.498  0.00  0.00    +0.000 C 
ATOM     15  N   UNL     1       0.882  10.251  21.373  0.00  0.00    +0.000 N 
ATOM     16  H   UNL     1       1.595  10.796  21.841  0.00  0.00    +0.000 HD
BRANCH  14  17
ATOM     17  C   UNL     1      -0.690  11.512  22.775  0.00  0.00    +0.000 C 
ATOM     18  C   UNL     1      -2.119  11.315  23.289  0.00  0.00    +0.000 C 
ATOM     19  O   UNL     1      -3.109  11.990  22.506  0.00  0.00    +0.000 OA
ATOM     20  C   UNL     1      -2.679  13.187  22.009  0.00  0.00    +0.000 A 
ATOM     21  C   UNL     1      -3.634  13.962  21.350  0.00  0.00    +0.000 A 
ATOM     22  C   UNL     1      -3.275  15.189  20.791  0.00  0.00    +0.000 A 
ATOM     23  C   UNL     1      -1.968  15.655  20.920  0.00  0.00    +0.000 A 
ATOM     24  C   UNL     1      -1.016  14.888  21.595  0.00  0.00    +0.000 A 
ATOM     25  C   UNL     1      -1.363  13.636  22.103  0.00  0.00    +0.000 A 
ATOM     26  O   UNL     1      -0.348  12.893  22.649  0.00  0.00    +0.000 OA
ENDBRANCH  14  17
ENDBRANCH   1  15
BRANCH   3  27
ATOM     27  S   UNL     1       2.649   5.737  19.634  0.00  0.00    +0.000 S 
ATOM     28  O   UNL     1       4.091   5.867  19.686  0.00  0.00    +0.000 OA
ATOM     29  O   UNL     1       1.915   5.216  20.768  0.00  0.00    +0.000 OA
BRANCH  27  30
ATOM     30  N   UNL     1       2.268   4.787  18.301  0.00  0.00    +0.000 NA
ATOM     31  C   UNL     1       1.183   3.784  18.373  0.00  0.00    +0.000 C 
ATOM     32  C   UNL     1       1.753   2.405  18.692  0.00  0.00    +0.000 C 
ATOM     33  O   UNL     1       2.745   2.021  17.728  0.00  0.00    +0.000 OA
ATOM     34  C   UNL     1       3.823   2.970  17.654  0.00  0.00    +0.000 C 
ATOM     35  C   UNL     1       3.322   4.386  17.342  0.00  0.00    +0.000 C 
ENDBRANCH  27  30
ENDBRANCH   3  27
TORSDOF 5
ENDMDL
MODEL 5
REMARK VINA RESULT:      -6.4      3.548      6.510
REMARK  Name = 
REMARK  5 active torsions:
REMARK  status: ('A' for Active; 'I' for Inactive)
REMARK    1  A    between atoms: C_2  and  C_25
REMARK    2  A    between atoms: N_3  and  C_4
REMARK    3  A    between atoms: C_6  and  S_7
REMARK    4  A    between atoms: S_7  and  N_10
REMARK    5  A    between atoms: C_18  and  N_19
REMARK                            x       y       z     vdW  Elec       q    Type
REMARK                         _______ _______ _______ _____ _____    ______ ____
ROOT
ATOM      1  C   UNL     1      -1.046  13.139  19.040  0.00  0.00    +0.000 A 
ATOM      2  C   UNL     1       0.164  13.658  18.533  0.00  0.00    +0.000 A 
ATOM      3  C   UNL     1       0.929  14.559  19.273  0.00  0.00    +0.000 A 
ATOM      4  C   UNL     1       0.481  14.962  20.525  0.00  0.00    +0.000 A 
ATOM      5  C   UNL     1      -0.705  14.416  21.037  0.00  0.00    +0.000 A 
ATOM      6  C   UNL     1      -1.477  13.454  20.346  0.00  0.00    +0.000 A 
ENDROOT
BRANCH   6   7
ATOM      7  N   UNL     1      -2.628  12.980  20.959  0.00  0.00    +0.000 N 
ATOM      8  C   UNL     1      -3.974  12.986  20.375  0.00  0.00    +0.000 C 
ATOM      9  C   UNL     1      -5.024  13.313  21.453  0.00  0.00    +0.000 C 
ATOM     10  O   UNL     1      -4.919  12.446  22.594  0.00  0.00    +0.000 OA
ATOM     11  C   UNL     1      -3.614  12.565  23.183  0.00  0.00    +0.000 C 
ATOM     12  C   UNL     1      -2.524  12.147  22.184  0.00  0.00    +0.000 C 
ENDBRANCH   6   7
BRANCH   1  15
ATOM     13  O   UNL     1      -1.002  10.368  19.372  0.00  0.00    +0.000 OA
ATOM     14  C   UNL     1      -1.631  10.860  18.434  0.00  0.00    +0.000 C 
ATOM     15  N   UNL     1      -1.750  12.231  18.216  0.00  0.00    +0.000 N 
ATOM     16  H   UNL     1      -1.949  12.527  17.269  0.00  0.00    +0.000 HD
BRANCH  14  17
ATOM     17  C   UNL     1      -2.410  10.002  17.422  0.00  0.00    +0.000 C 
ATOM     18  C   UNL     1      -2.616  10.745  16.099  0.00  0.00    +0.000 C 
ATOM     19  O   UNL     1      -3.601  11.781  16.171  0.00  0.00    +0.000 OA
ATOM     20  C   UNL     1      -4.644  11.478  16.999  0.00  0.00    +0.000 A 
ATOM     21  C   UNL     1      -5.706  12.381  17.012  0.00  0.00    +0.000 A 
ATOM     22  C   UNL     1      -6.802  12.162  17.848  0.00  0.00    +0.000 A 
ATOM     23  C   UNL     1      -6.850  11.019  18.644  0.00  0.00    +0.000 A 
ATOM     24  C   UNL     1      -5.795  10.105  18.618  0.00  0.00    +0.000 A 
ATOM     25  C   UNL     1      -4.674  10.356  17.825  0.00  0.00    +0.000 A 
ATOM     26  O   UNL     1      -3.631   9.473  17.940  0.00  0.00    +0.000 OA
ENDBRANCH  14  17
ENDBRANCH   1  15
BRANCH   3  27
ATOM     27  S   UNL     1       2.575  14.980  18.717  0.00  0.00    +0.000 S 
ATOM     28  O   UNL     1       3.215  13.740  18.329  0.00  0.00    +0.000 OA
ATOM     29  O   UNL     1       2.417  16.057  17.762  0.00  0.00    +0.000 OA
BRANCH  27  30
ATOM     30  N   UNL     1       3.409  15.592  20.042  0.00  0.00    +0.000 NA
ATOM     31  C   UNL     1       3.804  17.018  20.093  0.00  0.00    +0.000 C 
ATOM     32  C   UNL     1       5.242  17.189  19.613  0.00  0.00    +0.000 C 
ATOM     33  O   UNL     1       6.143  16.377  20.382  0.00  0.00    +0.000 OA
ATOM     34  C   UNL     1       5.793  14.983  20.330  0.00  0.00    +0.000 C 
ATOM     35  C   UNL     1       4.353  14.735  20.794  0.00  0.00    +0.000 C 
ENDBRANCH  27  30
ENDBRANCH   3  27
TORSDOF 5
ENDMDL
MODEL 6
REMARK VINA RESULT:      -6.4      2.292      6.057
REMARK  Name = 
REMARK  5 active torsions:
REMARK  status: ('A' for Active; 'I' for Inactive)
REMARK    1  A    between atoms: C_2  and  C_25
REMARK    2  A    between atoms: N_3  and  C_4
REMARK    3  A    between atoms: C_6  and  S_7
REMARK    4  A    between atoms: S_7  and  N_10
REMARK    5  A    between atoms: C_18  and  N_19
REMARK                            x       y       z     vdW  Elec       q    Type
REMARK                         _______ _______ _______ _____ _____    ______ ____
ROOT
ATOM      1  C   UNL     1      -3.103  13.834  21.880  0.00  0.00    +0.000 A 
ATOM      2  C   UNL     1      -2.372  12.733  21.388  0.00  0.00    +0.000 A 
ATOM      3  C   UNL     1      -1.019  12.573  21.684  0.00  0.00    +0.000 A 
ATOM      4  C   UNL     1      -0.379  13.526  22.467  0.00  0.00    +0.000 A 
ATOM      5  C   UNL     1      -1.119  14.601  22.982  0.00  0.00    +0.000 A 
ATOM      6  C   UNL     1      -2.506  14.765  22.756  0.00  0.00    +0.000 A 
ENDROOT
BRANCH   6   7
ATOM      7  N   UNL     1      -3.132  15.863  23.326  0.00  0.00    +0.000 N 
ATOM      8  C   UNL     1      -3.660  15.935  24.693  0.00  0.00    +0.000 C 
ATOM      9  C   UNL     1      -4.979  16.730  24.717  0.00  0.00    +0.000 C 
ATOM     10  O   UNL     1      -4.843  18.024  24.107  0.00  0.00    +0.000 OA
ATOM     11  C   UNL     1      -4.426  17.881  22.740  0.00  0.00    +0.000 C 
ATOM     12  C   UNL     1      -3.059  17.186  22.656  0.00  0.00    +0.000 C 
ENDBRANCH   6   7
BRANCH   1  15
ATOM     13  O   UNL     1      -5.166  12.668  23.356  0.00  0.00    +0.000 OA
ATOM     14  C   UNL     1      -5.424  13.255  22.305  0.00  0.00    +0.000 C 
ATOM     15  N   UNL     1      -4.470  13.907  21.526  0.00  0.00    +0.000 N 
ATOM     16  H   UNL     1      -4.686  14.028  20.545  0.00  0.00    +0.000 HD
BRANCH  14  17
ATOM     17  C   UNL     1      -6.858  13.380  21.759  0.00  0.00    +0.000 C 
ATOM     18  C   UNL     1      -7.867  12.670  22.666  0.00  0.00    +0.000 C 
ATOM     19  O   UNL     1      -7.820  11.243  22.571  0.00  0.00    +0.000 OA
ATOM     20  C   UNL     1      -7.543  10.796  21.311  0.00  0.00    +0.000 A 
ATOM     21  C   UNL     1      -7.615   9.417  21.114  0.00  0.00    +0.000 A 
ATOM     22  C   UNL     1      -7.324   8.871  19.863  0.00  0.00    +0.000 A 
ATOM     23  C   UNL     1      -6.993   9.710  18.800  0.00  0.00    +0.000 A 
ATOM     24  C   UNL     1      -6.938  11.092  18.992  0.00  0.00    +0.000 A 
ATOM     25  C   UNL     1      -7.173  11.631  20.258  0.00  0.00    +0.000 A 
ATOM     26  O   UNL     1      -6.987  12.982  20.394  0.00  0.00    +0.000 OA
ENDBRANCH  14  17
ENDBRANCH   1  15
BRANCH   3  27
ATOM     27  S   UNL     1      -0.202  11.037  21.271  0.00  0.00    +0.000 S 
ATOM     28  O   UNL     1       1.150  11.134  21.781  0.00  0.00    +0.000 OA
ATOM     29  O   UNL     1      -1.083   9.979  21.716  0.00  0.00    +0.000 OA
BRANCH  27  30
ATOM     30  N   UNL     1      -0.112  10.954  19.594  0.00  0.00    +0.000 NA
ATOM     31  C   UNL     1       0.476  12.064  18.812  0.00  0.00    +0.000 C 
ATOM     32  C   UNL     1      -0.619  13.000  18.310  0.00  0.00    +0.000 C 
ATOM     33  O   UNL     1      -1.593  12.285  17.535  0.00  0.00    +0.000 OA
ATOM     34  C   UNL     1      -2.197  11.214  18.280  0.00  0.00    +0.000 C 
ATOM     35  C   UNL     1      -1.151  10.233  18.825  0.00  0.00    +0.000 C 
ENDBRANCH  27  30
ENDBRANCH   3  27
TORSDOF 5
ENDMDL
MODEL 7
REMARK VINA RESULT:      -6.4      1.927      2.652
REMARK  Name = 
REMARK  5 active torsions:
REMARK  status: ('A' for Active; 'I' for Inactive)
REMARK    1  A    between atoms: C_2  and  C_25
REMARK    2  A    between atoms: N_3  and  C_4
REMARK    3  A    between atoms: C_6  and  S_7
REMARK    4  A    between atoms: S_7  and  N_10
REMARK    5  A    between atoms: C_18  and  N_19
REMARK                            x       y       z     vdW  Elec       q    Type
REMARK                         _______ _______ _______ _____ _____    ______ ____
ROOT
ATOM      1  C   UNL     1      -2.999  12.677  19.882  0.00  0.00    +0.000 A 
ATOM      2  C   UNL     1      -1.633  12.597  20.223  0.00  0.00    +0.000 A 
ATOM      3  C   UNL     1      -0.796  11.648  19.637  0.00  0.00    +0.000 A 
ATOM      4  C   UNL     1      -1.325  10.758  18.710  0.00  0.00    +0.000 A 
ATOM      5  C   UNL     1      -2.676  10.864  18.350  0.00  0.00    +0.000 A 
ATOM      6  C   UNL     1      -3.542  11.852  18.874  0.00  0.00    +0.000 A 
ENDROOT
BRANCH   6   7
ATOM      7  N   UNL     1      -4.858  11.864  18.435  0.00  0.00    +0.000 N 
ATOM      8  C   UNL     1      -5.302  12.164  17.069  0.00  0.00    +0.000 C 
ATOM      9  C   UNL     1      -6.606  12.982  17.097  0.00  0.00    +0.000 C 
ATOM     10  O   UNL     1      -7.627  12.348  17.884  0.00  0.00    +0.000 OA
ATOM     11  C   UNL     1      -7.171  12.179  19.236  0.00  0.00    +0.000 C 
ATOM     12  C   UNL     1      -5.926  11.279  19.283  0.00  0.00    +0.000 C 
ENDBRANCH   6   7
BRANCH   1  15
ATOM     13  O   UNL     1      -4.240  12.334  22.358  0.00  0.00    +0.000 OA
ATOM     14  C   UNL     1      -4.383  13.393  21.747  0.00  0.00    +0.000 C 
ATOM     15  N   UNL     1      -3.765  13.674  20.529  0.00  0.00    +0.000 N 
ATOM     16  H   UNL     1      -4.208  14.369  19.942  0.00  0.00    +0.000 HD
BRANCH  14  17
ATOM     17  C   UNL     1      -5.225  14.557  22.296  0.00  0.00    +0.000 C 
ATOM     18  C   UNL     1      -5.089  15.808  21.423  0.00  0.00    +0.000 C 
ATOM     19  O   UNL     1      -3.834  16.479  21.574  0.00  0.00    +0.000 OA
ATOM     20  C   UNL     1      -3.347  16.432  22.849  0.00  0.00    +0.000 A 
ATOM     21  C   UNL     1      -2.197  17.179  23.101  0.00  0.00    +0.000 A 
ATOM     22  C   UNL     1      -1.618  17.169  24.370  0.00  0.00    +0.000 A 
ATOM     23  C   UNL     1      -2.210  16.436  25.397  0.00  0.00    +0.000 A 
ATOM     24  C   UNL     1      -3.372  15.702  25.151  0.00  0.00    +0.000 A 
ATOM     25  C   UNL     1      -3.917  15.667  23.867  0.00  0.00    +0.000 A 
ATOM     26  O   UNL     1      -4.988  14.834  23.676  0.00  0.00    +0.000 OA
ENDBRANCH  14  17
ENDBRANCH   1  15
BRANCH   3  27
ATOM     27  S   UNL     1       0.970  11.754  19.891  0.00  0.00    +0.000 S 
ATOM     28  O   UNL     1       1.228  11.282  21.236  0.00  0.00    +0.000 OA
ATOM     29  O   UNL     1       1.582  11.103  18.752  0.00  0.00    +0.000 OA
BRANCH  27  30
ATOM     30  N   UNL     1       1.387  13.382  19.832  0.00  0.00    +0.000 NA
ATOM     31  C   UNL     1       1.866  13.994  18.573  0.00  0.00    +0.000 C 
ATOM     32  C   UNL     1       3.391  14.013  18.537  0.00  0.00    +0.000 C 
ATOM     33  O   UNL     1       3.926  14.699  19.679  0.00  0.00    +0.000 OA
ATOM     34  C   UNL     1       3.492  14.109  20.917  0.00  0.00    +0.000 C 
ATOM     35  C   UNL     1       1.963  14.050  21.021  0.00  0.00    +0.000 C 
ENDBRANCH  27  30
ENDBRANCH   3  27
TORSDOF 5
ENDMDL
MODEL 8
REMARK VINA RESULT:      -6.3      2.352      7.013
REMARK  Name = 
REMARK  5 active torsions:
REMARK  status: ('A' for Active; 'I' for Inactive)
REMARK    1  A    between atoms: C_2  and  C_25
REMARK    2  A    between atoms: N_3  and  C_4
REMARK    3  A    between atoms: C_6  and  S_7
REMARK    4  A    between atoms: S_7  and  N_10
REMARK    5  A    between atoms: C_18  and  N_19
REMARK                            x       y       z     vdW  Elec       q    Type
REMARK                         _______ _______ _______ _____ _____    ______ ____
ROOT
ATOM      1  C   UNL     1      -1.357  11.978  20.344  0.00  0.00    +0.000 A 
ATOM      2  C   UNL     1      -2.069  13.054  20.912  0.00  0.00    +0.000 A 
ATOM      3  C   UNL     1      -1.446  13.960  21.770  0.00  0.00    +0.000 A 
ATOM      4  C   UNL     1      -0.102  13.787  22.079  0.00  0.00    +0.000 A 
ATOM      5  C   UNL     1       0.609  12.735  21.485  0.00  0.00    +0.000 A 
ATOM      6  C   UNL     1       0.030  11.833  20.562  0.00  0.00    +0.000 A 
ENDROOT
BRANCH   6   7
ATOM      7  N   UNL     1       0.837  10.837  20.032  0.00  0.00    +0.000 N 
ATOM      8  C   UNL     1       1.508  10.882  18.728  0.00  0.00    +0.000 C 
ATOM      9  C   UNL     1       1.481   9.492  18.063  0.00  0.00    +0.000 C 
ATOM     10  O   UNL     1       2.008   8.469  18.923  0.00  0.00    +0.000 OA
ATOM     11  C   UNL     1       1.242   8.404  20.137  0.00  0.00    +0.000 C 
ATOM     12  C   UNL     1       1.319   9.735  20.902  0.00  0.00    +0.000 C 
ENDBRANCH   6   7
BRANCH   1  15
ATOM     13  O   UNL     1      -1.472  12.270  17.570  0.00  0.00    +0.000 OA
ATOM     14  C   UNL     1      -2.109  11.368  18.115  0.00  0.00    +0.000 C 
ATOM     15  N   UNL     1      -2.075  11.114  19.485  0.00  0.00    +0.000 N 
ATOM     16  H   UNL     1      -2.871  10.630  19.880  0.00  0.00    +0.000 HD
BRANCH  14  17
ATOM     17  C   UNL     1      -2.977  10.374  17.324  0.00  0.00    +0.000 C 
ATOM     18  C   UNL     1      -3.368  10.938  15.955  0.00  0.00    +0.000 C 
ATOM     19  O   UNL     1      -4.370  11.958  16.020  0.00  0.00    +0.000 OA
ATOM     20  C   UNL     1      -5.293  11.745  17.003  0.00  0.00    +0.000 A 
ATOM     21  C   UNL     1      -6.375  12.625  17.037  0.00  0.00    +0.000 A 
ATOM     22  C   UNL     1      -7.353  12.495  18.024  0.00  0.00    +0.000 A 
ATOM     23  C   UNL     1      -7.265  11.464  18.957  0.00  0.00    +0.000 A 
ATOM     24  C   UNL     1      -6.192  10.571  18.913  0.00  0.00    +0.000 A 
ATOM     25  C   UNL     1      -5.185  10.738  17.961  0.00  0.00    +0.000 A 
ATOM     26  O   UNL     1      -4.107   9.895  18.053  0.00  0.00    +0.000 OA
ENDBRANCH  14  17
ENDBRANCH   1  15
BRANCH   3  27
ATOM     27  S   UNL     1      -2.305  15.453  22.249  0.00  0.00    +0.000 S 
ATOM     28  O   UNL     1      -1.361  16.255  22.999  0.00  0.00    +0.000 OA
ATOM     29  O   UNL     1      -2.919  15.971  21.044  0.00  0.00    +0.000 OA
BRANCH  27  30
ATOM     30  N   UNL     1      -3.541  15.004  23.297  0.00  0.00    +0.000 NA
ATOM     31  C   UNL     1      -3.276  14.093  24.432  0.00  0.00    +0.000 C 
ATOM     32  C   UNL     1      -3.615  12.655  24.052  0.00  0.00    +0.000 C 
ATOM     33  O   UNL     1      -4.977  12.545  23.613  0.00  0.00    +0.000 OA
ATOM     34  C   UNL     1      -5.256  13.405  22.494  0.00  0.00    +0.000 C 
ATOM     35  C   UNL     1      -4.930  14.872  22.802  0.00  0.00    +0.000 C 
ENDBRANCH  27  30
ENDBRANCH   3  27
TORSDOF 5
ENDMDL
MODEL 9
REMARK VINA RESULT:      -6.3      7.945     10.263
REMARK  Name = 
REMARK  5 active torsions:
REMARK  status: ('A' for Active; 'I' for Inactive)
REMARK    1  A    between atoms: C_2  and  C_25
REMARK    2  A    between atoms: N_3  and  C_4
REMARK    3  A    between atoms: C_6  and  S_7
REMARK    4  A    between atoms: S_7  and  N_10
REMARK    5  A    between atoms: C_18  and  N_19
REMARK                            x       y       z     vdW  Elec       q    Type
REMARK                         _______ _______ _______ _____ _____    ______ ____
ROOT
ATOM      1  C   UNL     1       6.551  14.688  20.181  0.00  0.00    +0.000 A 
ATOM      2  C   UNL     1       7.932  14.405  20.222  0.00  0.00    +0.000 A 
ATOM      3  C   UNL     1       8.710  14.430  19.064  0.00  0.00    +0.000 A 
ATOM      4  C   UNL     1       8.107  14.725  17.848  0.00  0.00    +0.000 A 
ATOM      5  C   UNL     1       6.740  15.040  17.819  0.00  0.00    +0.000 A 
ATOM      6  C   UNL     1       5.931  15.086  18.978  0.00  0.00    +0.000 A 
ENDROOT
BRANCH   6   7
ATOM      7  N   UNL     1       4.593  15.419  18.824  0.00  0.00    +0.000 N 
ATOM      8  C   UNL     1       4.020  16.761  18.980  0.00  0.00    +0.000 C 
ATOM      9  C   UNL     1       2.641  16.679  19.661  0.00  0.00    +0.000 C 
ATOM     10  O   UNL     1       1.754  15.774  18.983  0.00  0.00    +0.000 OA
ATOM     11  C   UNL     1       2.324  14.455  18.957  0.00  0.00    +0.000 C 
ATOM     12  C   UNL     1       3.658  14.452  18.194  0.00  0.00    +0.000 C 
ENDBRANCH   6   7
BRANCH   1  15
ATOM     13  O   UNL     1       6.185  16.885  21.863  0.00  0.00    +0.000 OA
ATOM     14  C   UNL     1       5.756  15.781  22.200  0.00  0.00    +0.000 C 
ATOM     15  N   UNL     1       5.849  14.639  21.407  0.00  0.00    +0.000 N 
ATOM     16  H   UNL     1       5.818  13.747  21.884  0.00  0.00    +0.000 HD
BRANCH  14  17
ATOM     17  C   UNL     1       5.012  15.553  23.527  0.00  0.00    +0.000 C 
ATOM     18  C   UNL     1       5.663  16.328  24.675  0.00  0.00    +0.000 C 
ATOM     19  O   UNL     1       6.897  15.760  25.124  0.00  0.00    +0.000 OA
ATOM     20  C   UNL     1       6.912  14.395  25.075  0.00  0.00    +0.000 A 
ATOM     21  C   UNL     1       8.029  13.767  25.624  0.00  0.00    +0.000 A 
ATOM     22  C   UNL     1       8.137  12.376  25.594  0.00  0.00    +0.000 A 
ATOM     23  C   UNL     1       7.110  11.612  25.045  0.00  0.00    +0.000 A 
ATOM     24  C   UNL     1       5.982  12.239  24.511  0.00  0.00    +0.000 A 
ATOM     25  C   UNL     1       5.902  13.632  24.490  0.00  0.00    +0.000 A 
ATOM     26  O   UNL     1       4.820  14.175  23.846  0.00  0.00    +0.000 OA
ENDBRANCH  14  17
ENDBRANCH   1  15
BRANCH   3  27
ATOM     27  S   UNL     1      10.490  14.333  19.197  0.00  0.00    +0.000 S 
ATOM     28  O   UNL     1      11.032  14.930  17.994  0.00  0.00    +0.000 OA
ATOM     29  O   UNL     1      10.828  14.867  20.500  0.00  0.00    +0.000 OA
BRANCH  27  30
ATOM     30  N   UNL     1      10.904  12.704  19.191  0.00  0.00    +0.000 NA
ATOM     31  C   UNL     1      10.611  11.854  18.016  0.00  0.00    +0.000 C 
ATOM     32  C   UNL     1       9.294  11.109  18.213  0.00  0.00    +0.000 C 
ATOM     33  O   UNL     1       9.317  10.330  19.419  0.00  0.00    +0.000 OA
ATOM     34  C   UNL     1       9.579  11.137  20.579  0.00  0.00    +0.000 C 
ATOM     35  C   UNL     1      10.889  11.924  20.449  0.00  0.00    +0.000 C 
ENDBRANCH  27  30
ENDBRANCH   3  27
TORSDOF 5
ENDMDL
