MODEL 1
REMARK VINA RESULT:      -6.2      0.000      0.000
REMARK  Name = 
REMARK  7 active torsions:
REMARK  status: ('A' for Active; 'I' for Inactive)
REMARK    1  A    between atoms: N_1  and  C_2
REMARK    2  A    between atoms: C_2  and  C_3
REMARK    3  A    between atoms: C_3  and  N_4
REMARK    4  A    between atoms: N_4  and  C_5
REMARK    5  A    between atoms: C_5  and  C_6
REMARK    6  A    between atoms: C_6  and  N_7
REMARK    7  A    between atoms: N_7  and  C_8
REMARK                            x       y       z     vdW  Elec       q    Type
REMARK                         _______ _______ _______ _____ _____    ______ ____
ROOT
ATOM      1  N   UNL     1       4.273   4.101  16.208  0.00  0.00    +0.000 N 
ATOM      2  H   UNL     1       3.848   3.500  15.508  0.00  0.00    +0.000 HD
ENDROOT
BRANCH   1   3
ATOM      3  C   UNL     1       3.730   3.842  17.493  0.00  0.00    +0.000 A 
ATOM      4  C   UNL     1       3.832   2.574  18.073  0.00  0.00    +0.000 A 
ATOM      5  C   UNL     1       3.343   2.366  19.348  0.00  0.00    +0.000 A 
ATOM      6  N   UNL     1       2.788   3.328  20.102  0.00  0.00    +0.000 NA
ATOM      7  C   UNL     1       2.729   4.564  19.594  0.00  0.00    +0.000 A 
ATOM      8  C   UNL     1       2.189   5.548  20.405  0.00  0.00    +0.000 A 
ATOM      9  C   UNL     1       2.090   6.866  19.976  0.00  0.00    +0.000 A 
ATOM     10 CL   UNL     1       1.415   8.058  21.018  0.00  0.00    +0.000 Cl
ATOM     11  C   UNL     1       2.540   7.226  18.715  0.00  0.00    +0.000 A 
ATOM     12  C   UNL     1       3.094   6.251  17.883  0.00  0.00    +0.000 A 
ATOM     13  C   UNL     1       3.197   4.898  18.295  0.00  0.00    +0.000 A 
ENDBRANCH   1   3
BRANCH   1  14
ATOM     14  C   UNL     1       5.736   4.089  16.078  0.00  0.00    +0.000 C 
BRANCH  14  15
ATOM     15  C   UNL     1       6.303   5.522  16.066  0.00  0.00    +0.000 C 
BRANCH  15  16
ATOM     16  N   UNL     1       7.589   5.566  16.778  0.00  0.00    +0.000 NA
ATOM     17  H   UNL     1       8.313   5.180  16.170  0.00  0.00    +0.000 HD
BRANCH  16  18
ATOM     18  C   UNL     1       7.552   4.732  17.988  0.00  0.00    +0.000 C 
BRANCH  18  19
ATOM     19  C   UNL     1       7.054   5.543  19.201  0.00  0.00    +0.000 C 
BRANCH  19  20
ATOM     20  N   UNL     1       7.990   5.493  20.330  0.00  0.00    +0.000 NA
ATOM     21  H   UNL     1       8.544   6.350  20.331  0.00  0.00    +0.000 HD
ATOM     22  H   UNL     1       8.657   4.742  20.155  0.00  0.00    +0.000 HD
ENDBRANCH  19  20
ENDBRANCH  18  19
ENDBRANCH  16  18
ENDBRANCH  15  16
ENDBRANCH  14  15
ENDBRANCH   1  14
TORSDOF 7
ENDMDL
MODEL 2
REMARK VINA RESULT:      -6.2      1.783      2.831
REMARK  Name = 
REMARK  7 active torsions:
REMARK  status: ('A' for Active; 'I' for Inactive)
REMARK    1  A    between atoms: N_1  and  C_2
REMARK    2  A    between atoms: C_2  and  C_3
REMARK    3  A    between atoms: C_3  and  N_4
REMARK    4  A    between atoms: N_4  and  C_5
REMARK    5  A    between atoms: C_5  and  C_6
REMARK    6  A    between atoms: C_6  and  N_7
REMARK    7  A    between atoms: N_7  and  C_8
REMARK                            x       y       z     vdW  Elec       q    Type
REMARK                         _______ _______ _______ _____ _____    ______ ____
ROOT
ATOM      1  N   UNL     1       4.895   4.230  15.924  0.00  0.00    +0.000 N 
ATOM      2  H   UNL     1       4.579   3.265  15.952  0.00  0.00    +0.000 HD
ENDROOT
BRANCH   1   3
ATOM      3  C   UNL     1       4.331   4.979  16.989  0.00  0.00    +0.000 A 
ATOM      4  C   UNL     1       4.235   6.371  16.915  0.00  0.00    +0.000 A 
ATOM      5  C   UNL     1       3.630   7.068  17.943  0.00  0.00    +0.000 A 
ATOM      6  N   UNL     1       3.088   6.486  19.024  0.00  0.00    +0.000 NA
ATOM      7  C   UNL     1       3.116   5.150  19.094  0.00  0.00    +0.000 A 
ATOM      8  C   UNL     1       2.516   4.570  20.198  0.00  0.00    +0.000 A 
ATOM      9  C   UNL     1       2.481   3.190  20.363  0.00  0.00    +0.000 A 
ATOM     10 CL   UNL     1       1.722   2.511  21.749  0.00  0.00    +0.000 Cl
ATOM     11  C   UNL     1       3.050   2.359  19.410  0.00  0.00    +0.000 A 
ATOM     12  C   UNL     1       3.656   2.923  18.286  0.00  0.00    +0.000 A 
ATOM     13  C   UNL     1       3.711   4.328  18.100  0.00  0.00    +0.000 A 
ENDBRANCH   1   3
BRANCH   1  14
ATOM     14  C   UNL     1       6.353   4.289  15.754  0.00  0.00    +0.000 C 
BRANCH  14  15
ATOM     15  C   UNL     1       7.057   4.584  17.092  0.00  0.00    +0.000 C 
BRANCH  15  16
ATOM     16  N   UNL     1       7.714   5.898  17.043  0.00  0.00    +0.000 NA
ATOM     17  H   UNL     1       8.699   5.764  16.806  0.00  0.00    +0.000 HD
BRANCH  16  18
ATOM     18  C   UNL     1       7.673   6.559  18.356  0.00  0.00    +0.000 C 
BRANCH  18  19
ATOM     19  C   UNL     1       7.170   5.591  19.445  0.00  0.00    +0.000 C 
BRANCH  19  20
ATOM     20  N   UNL     1       8.147   5.408  20.525  0.00  0.00    +0.000 NA
ATOM     21  H   UNL     1       8.869   4.762  20.205  0.00  0.00    +0.000 HD
ATOM     22  H   UNL     1       7.681   4.929  21.295  0.00  0.00    +0.000 HD
ENDBRANCH  19  20
ENDBRANCH  18  19
ENDBRANCH  16  18
ENDBRANCH  15  16
ENDBRANCH  14  15
ENDBRANCH   1  14
TORSDOF 7
ENDMDL
MODEL 3
REMARK VINA RESULT:      -6.2      1.819      2.850
REMARK  Name = 
REMARK  7 active torsions:
REMARK  status: ('A' for Active; 'I' for Inactive)
REMARK    1  A    between atoms: N_1  and  C_2
REMARK    2  A    between atoms: C_2  and  C_3
REMARK    3  A    between atoms: C_3  and  N_4
REMARK    4  A    between atoms: N_4  and  C_5
REMARK    5  A    between atoms: C_5  and  C_6
REMARK    6  A    between atoms: C_6  and  N_7
REMARK    7  A    between atoms: N_7  and  C_8
REMARK                            x       y       z     vdW  Elec       q    Type
REMARK                         _______ _______ _______ _____ _____    ______ ____
ROOT
ATOM      1  N   UNL     1       4.511   4.957  16.529  0.00  0.00    +0.000 N 
ATOM      2  H   UNL     1       5.006   4.132  16.854  0.00  0.00    +0.000 HD
ENDROOT
BRANCH   1   3
ATOM      3  C   UNL     1       3.789   5.564  17.589  0.00  0.00    +0.000 A 
ATOM      4  C   UNL     1       3.516   6.934  17.578  0.00  0.00    +0.000 A 
ATOM      5  C   UNL     1       2.762   7.487  18.596  0.00  0.00    +0.000 A 
ATOM      6  N   UNL     1       2.236   6.778  19.606  0.00  0.00    +0.000 NA
ATOM      7  C   UNL     1       2.435   5.455  19.611  0.00  0.00    +0.000 A 
ATOM      8  C   UNL     1       1.848   4.739  20.641  0.00  0.00    +0.000 A 
ATOM      9  C   UNL     1       1.985   3.359  20.733  0.00  0.00    +0.000 A 
ATOM     10 CL   UNL     1       1.237   2.508  22.028  0.00  0.00    +0.000 Cl
ATOM     11  C   UNL     1       2.715   2.665  19.781  0.00  0.00    +0.000 A 
ATOM     12  C   UNL     1       3.310   3.366  18.731  0.00  0.00    +0.000 A 
ATOM     13  C   UNL     1       3.192   4.775  18.620  0.00  0.00    +0.000 A 
ENDBRANCH   1   3
BRANCH   1  14
ATOM     14  C   UNL     1       5.403   5.816  15.740  0.00  0.00    +0.000 C 
BRANCH  14  15
ATOM     15  C   UNL     1       6.877   5.407  15.928  0.00  0.00    +0.000 C 
BRANCH  15  16
ATOM     16  N   UNL     1       6.979   4.298  16.887  0.00  0.00    +0.000 NA
ATOM     17  H   UNL     1       6.062   4.146  17.311  0.00  0.00    +0.000 HD
BRANCH  16  18
ATOM     18  C   UNL     1       7.908   4.627  17.978  0.00  0.00    +0.000 C 
BRANCH  18  19
ATOM     19  C   UNL     1       7.221   5.508  19.040  0.00  0.00    +0.000 C 
BRANCH  19  20
ATOM     20  N   UNL     1       7.929   5.490  20.326  0.00  0.00    +0.000 NA
ATOM     21  H   UNL     1       8.225   6.441  20.547  0.00  0.00    +0.000 HD
ATOM     22  H   UNL     1       8.792   4.961  20.204  0.00  0.00    +0.000 HD
ENDBRANCH  19  20
ENDBRANCH  18  19
ENDBRANCH  16  18
ENDBRANCH  15  16
ENDBRANCH  14  15
ENDBRANCH   1  14
TORSDOF 7
ENDMDL
MODEL 4
REMARK VINA RESULT:      -6.2      3.197      4.945
REMARK  Name = 
REMARK  7 active torsions:
REMARK  status: ('A' for Active; 'I' for Inactive)
REMARK    1  A    between atoms: N_1  and  C_2
REMARK    2  A    between atoms: C_2  and  C_3
REMARK    3  A    between atoms: C_3  and  N_4
REMARK    4  A    between atoms: N_4  and  C_5
REMARK    5  A    between atoms: C_5  and  C_6
REMARK    6  A    between atoms: C_6  and  N_7
REMARK    7  A    between atoms: N_7  and  C_8
REMARK                            x       y       z     vdW  Elec       q    Type
REMARK                         _______ _______ _______ _____ _____    ______ ____
ROOT
ATOM      1  N   UNL     1       5.756   3.562  15.792  0.00  0.00    +0.000 N 
ATOM      2  H   UNL     1       6.359   2.977  16.363  0.00  0.00    +0.000 HD
ENDROOT
BRANCH   1   3
ATOM      3  C   UNL     1       5.064   4.509  16.591  0.00  0.00    +0.000 A 
ATOM      4  C   UNL     1       5.220   5.880  16.374  0.00  0.00    +0.000 A 
ATOM      5  C   UNL     1       4.491   6.778  17.131  0.00  0.00    +0.000 A 
ATOM      6  N   UNL     1       3.599   6.416  18.066  0.00  0.00    +0.000 NA
ATOM      7  C   UNL     1       3.389   5.108  18.256  0.00  0.00    +0.000 A 
ATOM      8  C   UNL     1       2.436   4.758  19.197  0.00  0.00    +0.000 A 
ATOM      9  C   UNL     1       2.134   3.428  19.463  0.00  0.00    +0.000 A 
ATOM     10 CL   UNL     1       0.940   3.038  20.639  0.00  0.00    +0.000 Cl
ATOM     11  C   UNL     1       2.787   2.414  18.780  0.00  0.00    +0.000 A 
ATOM     12  C   UNL     1       3.749   2.744  17.822  0.00  0.00    +0.000 A 
ATOM     13  C   UNL     1       4.079   4.094  17.539  0.00  0.00    +0.000 A 
ENDBRANCH   1   3
BRANCH   1  14
ATOM     14  C   UNL     1       6.486   4.069  14.623  0.00  0.00    +0.000 C 
BRANCH  14  15
ATOM     15  C   UNL     1       5.715   3.784  13.320  0.00  0.00    +0.000 C 
BRANCH  15  16
ATOM     16  N   UNL     1       6.534   2.969  12.411  0.00  0.00    +0.000 NA
ATOM     17  H   UNL     1       7.051   3.593  11.788  0.00  0.00    +0.000 HD
BRANCH  16  18
ATOM     18  C   UNL     1       5.691   2.115  11.563  0.00  0.00    +0.000 C 
BRANCH  18  19
ATOM     19  C   UNL     1       6.520   0.984  10.922  0.00  0.00    +0.000 C 
BRANCH  19  20
ATOM     20  N   UNL     1       6.144  -0.341  11.426  0.00  0.00    +0.000 NA
ATOM     21  H   UNL     1       6.147  -0.314  12.446  0.00  0.00    +0.000 HD
ATOM     22  H   UNL     1       6.882  -0.998  11.173  0.00  0.00    +0.000 HD
ENDBRANCH  19  20
ENDBRANCH  18  19
ENDBRANCH  16  18
ENDBRANCH  15  16
ENDBRANCH  14  15
ENDBRANCH   1  14
TORSDOF 7
ENDMDL
MODEL 5
REMARK VINA RESULT:      -6.1      3.024      4.791
REMARK  Name = 
REMARK  7 active torsions:
REMARK  status: ('A' for Active; 'I' for Inactive)
REMARK    1  A    between atoms: N_1  and  C_2
REMARK    2  A    between atoms: C_2  and  C_3
REMARK    3  A    between atoms: C_3  and  N_4
REMARK    4  A    between atoms: N_4  and  C_5
REMARK    5  A    between atoms: C_5  and  C_6
REMARK    6  A    between atoms: C_6  and  N_7
REMARK    7  A    between atoms: N_7  and  C_8
REMARK                            x       y       z     vdW  Elec       q    Type
REMARK                         _______ _______ _______ _____ _____    ______ ____
ROOT
ATOM      1  N   UNL     1       6.547   4.338  16.721  0.00  0.00    +0.000 N 
ATOM      2  H   UNL     1       7.299   4.411  17.399  0.00  0.00    +0.000 HD
ENDROOT
BRANCH   1   3
ATOM      3  C   UNL     1       5.390   5.025  17.173  0.00  0.00    +0.000 A 
ATOM      4  C   UNL     1       5.321   6.420  17.127  0.00  0.00    +0.000 A 
ATOM      5  C   UNL     1       4.160   7.058  17.521  0.00  0.00    +0.000 A 
ATOM      6  N   UNL     1       3.055   6.416  17.928  0.00  0.00    +0.000 NA
ATOM      7  C   UNL     1       3.074   5.078  17.928  0.00  0.00    +0.000 A 
ATOM      8  C   UNL     1       1.910   4.436  18.313  0.00  0.00    +0.000 A 
ATOM      9  C   UNL     1       1.821   3.049  18.339  0.00  0.00    +0.000 A 
ATOM     10 CL   UNL     1       0.353   2.293  18.822  0.00  0.00    +0.000 Cl
ATOM     11  C   UNL     1       2.909   2.273  17.969  0.00  0.00    +0.000 A 
ATOM     12  C   UNL     1       4.091   2.900  17.572  0.00  0.00    +0.000 A 
ATOM     13  C   UNL     1       4.208   4.313  17.546  0.00  0.00    +0.000 A 
ENDBRANCH   1   3
BRANCH   1  14
ATOM     14  C   UNL     1       7.036   4.652  15.372  0.00  0.00    +0.000 C 
BRANCH  14  15
ATOM     15  C   UNL     1       5.960   4.359  14.309  0.00  0.00    +0.000 C 
BRANCH  15  16
ATOM     16  N   UNL     1       6.306   3.144  13.557  0.00  0.00    +0.000 NA
ATOM     17  H   UNL     1       7.276   2.897  13.761  0.00  0.00    +0.000 HD
BRANCH  16  18
ATOM     18  C   UNL     1       6.216   3.375  12.108  0.00  0.00    +0.000 C 
BRANCH  18  19
ATOM     19  C   UNL     1       6.960   2.274  11.327  0.00  0.00    +0.000 C 
BRANCH  19  20
ATOM     20  N   UNL     1       6.226   1.004  11.314  0.00  0.00    +0.000 NA
ATOM     21  H   UNL     1       6.032   0.750  10.345  0.00  0.00    +0.000 HD
ATOM     22  H   UNL     1       5.313   1.161  11.738  0.00  0.00    +0.000 HD
ENDBRANCH  19  20
ENDBRANCH  18  19
ENDBRANCH  16  18
ENDBRANCH  15  16
ENDBRANCH  14  15
ENDBRANCH   1  14
TORSDOF 7
ENDMDL
MODEL 6
REMARK VINA RESULT:      -6.0      1.098      1.174
REMARK  Name = 
REMARK  7 active torsions:
REMARK  status: ('A' for Active; 'I' for Inactive)
REMARK    1  A    between atoms: N_1  and  C_2
REMARK    2  A    between atoms: C_2  and  C_3
REMARK    3  A    between atoms: C_3  and  N_4
REMARK    4  A    between atoms: N_4  and  C_5
REMARK    5  A    between atoms: C_5  and  C_6
REMARK    6  A    between atoms: C_6  and  N_7
REMARK    7  A    between atoms: N_7  and  C_8
REMARK                            x       y       z     vdW  Elec       q    Type
REMARK                         _______ _______ _______ _____ _____    ______ ____
ROOT
ATOM      1  N   UNL     1       5.296   3.661  17.118  0.00  0.00    +0.000 N 
ATOM      2  H   UNL     1       5.924   4.225  17.683  0.00  0.00    +0.000 HD
ENDROOT
BRANCH   1   3
ATOM      3  C   UNL     1       4.092   3.390  17.817  0.00  0.00    +0.000 A 
ATOM      4  C   UNL     1       3.584   2.090  17.894  0.00  0.00    +0.000 A 
ATOM      5  C   UNL     1       2.440   1.847  18.629  0.00  0.00    +0.000 A 
ATOM      6  N   UNL     1       1.778   2.791  19.316  0.00  0.00    +0.000 NA
ATOM      7  C   UNL     1       2.274   4.034  19.305  0.00  0.00    +0.000 A 
ATOM      8  C   UNL     1       1.597   4.983  20.053  0.00  0.00    +0.000 A 
ATOM      9  C   UNL     1       2.034   6.301  20.118  0.00  0.00    +0.000 A 
ATOM     10 CL   UNL     1       1.165   7.446  21.062  0.00  0.00    +0.000 Cl
ATOM     11  C   UNL     1       3.171   6.694  19.430  0.00  0.00    +0.000 A 
ATOM     12  C   UNL     1       3.872   5.752  18.674  0.00  0.00    +0.000 A 
ATOM     13  C   UNL     1       3.441   4.403  18.586  0.00  0.00    +0.000 A 
ENDBRANCH   1   3
BRANCH   1  14
ATOM     14  C   UNL     1       5.182   4.217  15.763  0.00  0.00    +0.000 C 
BRANCH  14  15
ATOM     15  C   UNL     1       5.648   5.685  15.725  0.00  0.00    +0.000 C 
BRANCH  15  16
ATOM     16  N   UNL     1       7.091   5.767  15.991  0.00  0.00    +0.000 NA
ATOM     17  H   UNL     1       7.438   4.832  16.212  0.00  0.00    +0.000 HD
BRANCH  16  18
ATOM     18  C   UNL     1       7.365   6.615  17.160  0.00  0.00    +0.000 C 
BRANCH  18  19
ATOM     19  C   UNL     1       7.569   5.759  18.426  0.00  0.00    +0.000 C 
BRANCH  19  20
ATOM     20  N   UNL     1       7.931   4.372  18.112  0.00  0.00    +0.000 NA
ATOM     21  H   UNL     1       8.337   4.347  17.176  0.00  0.00    +0.000 HD
ATOM     22  H   UNL     1       7.072   3.827  18.047  0.00  0.00    +0.000 HD
ENDBRANCH  19  20
ENDBRANCH  18  19
ENDBRANCH  16  18
ENDBRANCH  15  16
ENDBRANCH  14  15
ENDBRANCH   1  14
TORSDOF 7
ENDMDL
MODEL 7
REMARK VINA RESULT:      -6.0      2.803      4.443
REMARK  Name = 
REMARK  7 active torsions:
REMARK  status: ('A' for Active; 'I' for Inactive)
REMARK    1  A    between atoms: N_1  and  C_2
REMARK    2  A    between atoms: C_2  and  C_3
REMARK    3  A    between atoms: C_3  and  N_4
REMARK    4  A    between atoms: N_4  and  C_5
REMARK    5  A    between atoms: C_5  and  C_6
REMARK    6  A    between atoms: C_6  and  N_7
REMARK    7  A    between atoms: N_7  and  C_8
REMARK                            x       y       z     vdW  Elec       q    Type
REMARK                         _______ _______ _______ _____ _____    ______ ____
ROOT
ATOM      1  N   UNL     1       5.912   3.494  15.771  0.00  0.00    +0.000 N 
ATOM      2  H   UNL     1       6.782   2.987  15.639  0.00  0.00    +0.000 HD
ENDROOT
BRANCH   1   3
ATOM      3  C   UNL     1       5.878   4.120  17.044  0.00  0.00    +0.000 A 
ATOM      4  C   UNL     1       6.985   4.825  17.525  0.00  0.00    +0.000 A 
ATOM      5  C   UNL     1       6.904   5.473  18.743  0.00  0.00    +0.000 A 
ATOM      6  N   UNL     1       5.800   5.496  19.505  0.00  0.00    +0.000 NA
ATOM      7  C   UNL     1       4.708   4.877  19.042  0.00  0.00    +0.000 A 
ATOM      8  C   UNL     1       3.569   4.949  19.826  0.00  0.00    +0.000 A 
ATOM      9  C   UNL     1       2.379   4.347  19.432  0.00  0.00    +0.000 A 
ATOM     10 CL   UNL     1       0.987   4.464  20.435  0.00  0.00    +0.000 Cl
ATOM     11  C   UNL     1       2.309   3.660  18.230  0.00  0.00    +0.000 A 
ATOM     12  C   UNL     1       3.444   3.580  17.421  0.00  0.00    +0.000 A 
ATOM     13  C   UNL     1       4.671   4.178  17.806  0.00  0.00    +0.000 A 
ENDBRANCH   1   3
BRANCH   1  14
ATOM     14  C   UNL     1       5.619   4.329  14.598  0.00  0.00    +0.000 C 
BRANCH  14  15
ATOM     15  C   UNL     1       6.894   4.594  13.774  0.00  0.00    +0.000 C 
BRANCH  15  16
ATOM     16  N   UNL     1       6.969   3.662  12.640  0.00  0.00    +0.000 NA
ATOM     17  H   UNL     1       7.451   4.125  11.867  0.00  0.00    +0.000 HD
BRANCH  16  18
ATOM     18  C   UNL     1       5.627   3.305  12.159  0.00  0.00    +0.000 C 
BRANCH  18  19
ATOM     19  C   UNL     1       5.632   1.916  11.491  0.00  0.00    +0.000 C 
BRANCH  19  20
ATOM     20  N   UNL     1       6.990   1.425  11.230  0.00  0.00    +0.000 NA
ATOM     21  H   UNL     1       6.989   0.923  10.342  0.00  0.00    +0.000 HD
ATOM     22  H   UNL     1       7.214   0.724  11.935  0.00  0.00    +0.000 HD
ENDBRANCH  19  20
ENDBRANCH  18  19
ENDBRANCH  16  18
ENDBRANCH  15  16
ENDBRANCH  14  15
ENDBRANCH   1  14
TORSDOF 7
ENDMDL
MODEL 8
REMARK VINA RESULT:      -6.0      3.196      5.817
REMARK  Name = 
REMARK  7 active torsions:
REMARK  status: ('A' for Active; 'I' for Inactive)
REMARK    1  A    between atoms: N_1  and  C_2
REMARK    2  A    between atoms: C_2  and  C_3
REMARK    3  A    between atoms: C_3  and  N_4
REMARK    4  A    between atoms: N_4  and  C_5
REMARK    5  A    between atoms: C_5  and  C_6
REMARK    6  A    between atoms: C_6  and  N_7
REMARK    7  A    between atoms: N_7  and  C_8
REMARK                            x       y       z     vdW  Elec       q    Type
REMARK                         _______ _______ _______ _____ _____    ______ ____
ROOT
ATOM      1  N   UNL     1       2.870   3.329  17.146  0.00  0.00    +0.000 N 
ATOM      2  H   UNL     1       2.668   3.317  16.150  0.00  0.00    +0.000 HD
ENDROOT
BRANCH   1   3
ATOM      3  C   UNL     1       4.106   3.975  17.403  0.00  0.00    +0.000 A 
ATOM      4  C   UNL     1       4.526   4.224  18.713  0.00  0.00    +0.000 A 
ATOM      5  C   UNL     1       5.760   4.803  18.935  0.00  0.00    +0.000 A 
ATOM      6  N   UNL     1       6.621   5.127  17.958  0.00  0.00    +0.000 NA
ATOM      7  C   UNL     1       6.269   4.847  16.698  0.00  0.00    +0.000 A 
ATOM      8  C   UNL     1       7.189   5.152  15.709  0.00  0.00    +0.000 A 
ATOM      9  C   UNL     1       6.926   4.894  14.369  0.00  0.00    +0.000 A 
ATOM     10 CL   UNL     1       8.099   5.287  13.174  0.00  0.00    +0.000 Cl
ATOM     11  C   UNL     1       5.724   4.313  13.993  0.00  0.00    +0.000 A 
ATOM     12  C   UNL     1       4.784   3.992  14.974  0.00  0.00    +0.000 A 
ATOM     13  C   UNL     1       5.027   4.254  16.347  0.00  0.00    +0.000 A 
ENDBRANCH   1   3
BRANCH   1  14
ATOM     14  C   UNL     1       1.697   3.786  17.903  0.00  0.00    +0.000 C 
BRANCH  14  15
ATOM     15  C   UNL     1       1.047   2.621  18.675  0.00  0.00    +0.000 C 
BRANCH  15  16
ATOM     16  N   UNL     1       0.436   3.113  19.918  0.00  0.00    +0.000 NA
ATOM     17  H   UNL     1      -0.488   3.493  19.702  0.00  0.00    +0.000 HD
BRANCH  16  18
ATOM     18  C   UNL     1       1.226   4.207  20.499  0.00  0.00    +0.000 C 
BRANCH  18  19
ATOM     19  C   UNL     1       2.181   3.680  21.589  0.00  0.00    +0.000 C 
BRANCH  19  20
ATOM     20  N   UNL     1       1.690   2.446  22.213  0.00  0.00    +0.000 NA
ATOM     21  H   UNL     1       1.733   2.556  23.227  0.00  0.00    +0.000 HD
ATOM     22  H   UNL     1       2.348   1.698  21.996  0.00  0.00    +0.000 HD
ENDBRANCH  19  20
ENDBRANCH  18  19
ENDBRANCH  16  18
ENDBRANCH  15  16
ENDBRANCH  14  15
ENDBRANCH   1  14
TORSDOF 7
ENDMDL
MODEL 9
REMARK VINA RESULT:      -6.0      2.869      4.755
REMARK  Name = 
REMARK  7 active torsions:
REMARK  status: ('A' for Active; 'I' for Inactive)
REMARK    1  A    between atoms: N_1  and  C_2
REMARK    2  A    between atoms: C_2  and  C_3
REMARK    3  A    between atoms: C_3  and  N_4
REMARK    4  A    between atoms: N_4  and  C_5
REMARK    5  A    between atoms: C_5  and  C_6
REMARK    6  A    between atoms: C_6  and  N_7
REMARK    7  A    between atoms: N_7  and  C_8
REMARK                            x       y       z     vdW  Elec       q    Type
REMARK                         _______ _______ _______ _____ _____    ______ ____
ROOT
ATOM      1  N   UNL     1       6.231   5.903  15.545  0.00  0.00    +0.000 N 
ATOM      2  H   UNL     1       5.274   5.991  15.217  0.00  0.00    +0.000 HD
ENDROOT
BRANCH   1   3
ATOM      3  C   UNL     1       6.266   5.608  16.932  0.00  0.00    +0.000 A 
ATOM      4  C   UNL     1       7.356   5.991  17.719  0.00  0.00    +0.000 A 
ATOM      5  C   UNL     1       7.337   5.740  19.078  0.00  0.00    +0.000 A 
ATOM      6  N   UNL     1       6.307   5.165  19.717  0.00  0.00    +0.000 NA
ATOM      7  C   UNL     1       5.228   4.839  18.997  0.00  0.00    +0.000 A 
ATOM      8  C   UNL     1       4.162   4.284  19.685  0.00  0.00    +0.000 A 
ATOM      9  C   UNL     1       2.990   3.919  19.033  0.00  0.00    +0.000 A 
ATOM     10 CL   UNL     1       1.689   3.235  19.927  0.00  0.00    +0.000 Cl
ATOM     11  C   UNL     1       2.863   4.111  17.666  0.00  0.00    +0.000 A 
ATOM     12  C   UNL     1       3.923   4.675  16.954  0.00  0.00    +0.000 A 
ATOM     13  C   UNL     1       5.132   5.047  17.595  0.00  0.00    +0.000 A 
ENDBRANCH   1   3
BRANCH   1  14
ATOM     14  C   UNL     1       7.006   5.035  14.648  0.00  0.00    +0.000 C 
BRANCH  14  15
ATOM     15  C   UNL     1       6.206   3.772  14.272  0.00  0.00    +0.000 C 
BRANCH  15  16
ATOM     16  N   UNL     1       6.407   3.447  12.853  0.00  0.00    +0.000 NA
ATOM     17  H   UNL     1       6.876   4.233  12.399  0.00  0.00    +0.000 HD
BRANCH  16  18
ATOM     18  C   UNL     1       5.121   3.259  12.166  0.00  0.00    +0.000 C 
BRANCH  18  19
ATOM     19  C   UNL     1       5.217   2.140  11.111  0.00  0.00    +0.000 C 
BRANCH  19  20
ATOM     20  N   UNL     1       6.091   1.041  11.538  0.00  0.00    +0.000 NA
ATOM     21  H   UNL     1       6.886   0.992  10.902  0.00  0.00    +0.000 HD
ATOM     22  H   UNL     1       5.586   0.166  11.406  0.00  0.00    +0.000 HD
ENDBRANCH  19  20
ENDBRANCH  18  19
ENDBRANCH  16  18
ENDBRANCH  15  16
ENDBRANCH  14  15
ENDBRANCH   1  14
TORSDOF 7
ENDMDL
