MODEL 1
REMARK VINA RESULT:      -8.8      0.000      0.000
REMARK  Name = 
REMARK  4 active torsions:
REMARK  status: ('A' for Active; 'I' for Inactive)
REMARK    1  A    between atoms: C_1  and  N_2
REMARK    2  A    between atoms: C_3  and  C_4
REMARK    3  A    between atoms: C_5  and  C_6
REMARK    4  A    between atoms: C_16  and  N_17
REMARK                            x       y       z     vdW  Elec       q    Type
REMARK                         _______ _______ _______ _____ _____    ______ ____
ROOT
ATOM      1  C   UNL     1       8.931  11.531  21.266  0.00  0.00    +0.000 C 
ATOM      2  N   UNL     1       9.675  11.805  20.005  0.00  0.00    +0.000 N 
ATOM      3  C   UNL     1       9.709  10.909  18.911  0.00  0.00    +0.000 A 
ATOM      4  C   UNL     1      10.542  11.247  17.853  0.00  0.00    +0.000 A 
ATOM      5  C   UNL     1      11.281  12.415  17.815  0.00  0.00    +0.000 A 
ATOM      6  C   UNL     1      11.199  13.341  18.866  0.00  0.00    +0.000 A 
ATOM      7  C   UNL     1      11.922  14.559  18.822  0.00  0.00    +0.000 A 
ATOM      8  C   UNL     1      11.835  15.475  19.853  0.00  0.00    +0.000 A 
ATOM      9  C   UNL     1      11.036  15.202  20.950  0.00  0.00    +0.000 A 
ATOM     10 CL   UNL     1      10.940  16.404  22.220  0.00  0.00    +0.000 Cl
ATOM     11  C   UNL     1      10.325  13.994  21.037  0.00  0.00    +0.000 A 
ATOM     12  C   UNL     1      10.359  13.046  20.004  0.00  0.00    +0.000 A 
ENDROOT
BRANCH   5  13
ATOM     13  N   UNL     1      12.125  12.604  16.692  0.00  0.00    +0.000 N 
ATOM     14  H   UNL     1      12.955  13.197  16.778  0.00  0.00    +0.000 HD
ATOM     15  H   UNL     1      11.865  12.352  15.738  0.00  0.00    +0.000 HD
ENDBRANCH   5  13
BRANCH   3  16
ATOM     16  C   UNL     1       8.988   9.550  18.794  0.00  0.00    +0.000 C 
ATOM     17  C   UNL     1       7.931   9.107  17.932  0.00  0.00    +0.000 C 
BRANCH  17  18
ATOM     18  C   UNL     1       7.552   7.587  17.810  0.00  0.00    +0.000 A 
ATOM     19  C   UNL     1       8.138   6.776  18.727  0.00  0.00    +0.000 A 
ATOM     20  N   UNL     1       7.816   5.509  18.512  0.00  0.00    +0.000 N 
ATOM     21  C   UNL     1       7.164   5.455  17.370  0.00  0.00    +0.000 A 
ATOM     22  C   UNL     1       6.995   4.281  16.627  0.00  0.00    +0.000 A 
ATOM     23  C   UNL     1       6.192   4.303  15.498  0.00  0.00    +0.000 A 
ATOM     24  C   UNL     1       5.468   5.470  15.219  0.00  0.00    +0.000 A 
ATOM     25  C   UNL     1       5.729   6.691  15.931  0.00  0.00    +0.000 A 
ATOM     26  C   UNL     1       6.732   6.701  16.968  0.00  0.00    +0.000 A 
ATOM     27  H   UNL     1       8.048   4.706  19.105  0.00  0.00    +0.000 HD
ENDBRANCH  17  18
ENDBRANCH   3  16
TORSDOF 3
ENDMDL
MODEL 2
REMARK VINA RESULT:      -8.1      7.473      8.376
REMARK  Name = 
REMARK  4 active torsions:
REMARK  status: ('A' for Active; 'I' for Inactive)
REMARK    1  A    between atoms: C_1  and  N_2
REMARK    2  A    between atoms: C_3  and  C_4
REMARK    3  A    between atoms: C_5  and  C_6
REMARK    4  A    between atoms: C_16  and  N_17
REMARK                            x       y       z     vdW  Elec       q    Type
REMARK                         _______ _______ _______ _____ _____    ______ ____
ROOT
ATOM      1  C   UNL     1       0.359   9.189  21.350  0.00  0.00    +0.000 C 
ATOM      2  N   UNL     1       0.841  10.077  20.256  0.00  0.00    +0.000 N 
ATOM      3  C   UNL     1       1.464   9.597  19.081  0.00  0.00    +0.000 A 
ATOM      4  C   UNL     1       1.969  10.552  18.207  0.00  0.00    +0.000 A 
ATOM      5  C   UNL     1       1.847  11.912  18.421  0.00  0.00    +0.000 A 
ATOM      6  C   UNL     1       1.170  12.395  19.551  0.00  0.00    +0.000 A 
ATOM      7  C   UNL     1       1.005  13.787  19.761  0.00  0.00    +0.000 A 
ATOM      8  C   UNL     1       0.332  14.263  20.870  0.00  0.00    +0.000 A 
ATOM      9  C   UNL     1      -0.188  13.374  21.794  0.00  0.00    +0.000 A 
ATOM     10 CL   UNL     1      -1.053  14.024  23.170  0.00  0.00    +0.000 Cl
ATOM     11  C   UNL     1      -0.021  11.989  21.629  0.00  0.00    +0.000 A 
ATOM     12  C   UNL     1       0.630  11.456  20.507  0.00  0.00    +0.000 A 
ENDROOT
BRANCH   5  13
ATOM     13  N   UNL     1       2.454  12.768  17.468  0.00  0.00    +0.000 N 
ATOM     14  H   UNL     1       3.037  13.547  17.787  0.00  0.00    +0.000 HD
ATOM     15  H   UNL     1       2.196  12.791  16.480  0.00  0.00    +0.000 HD
ENDBRANCH   5  13
BRANCH   3  16
ATOM     16  C   UNL     1       1.724   8.126  18.695  0.00  0.00    +0.000 C 
ATOM     17  C   UNL     1       2.905   7.462  18.226  0.00  0.00    +0.000 C 
BRANCH  17  18
ATOM     18  C   UNL     1       2.997   5.894  18.165  0.00  0.00    +0.000 A 
ATOM     19  C   UNL     1       3.927   5.409  17.304  0.00  0.00    +0.000 A 
ATOM     20  N   UNL     1       3.892   4.085  17.267  0.00  0.00    +0.000 N 
ATOM     21  C   UNL     1       2.844   3.698  17.963  0.00  0.00    +0.000 A 
ATOM     22  C   UNL     1       2.260   2.431  17.848  0.00  0.00    +0.000 A 
ATOM     23  C   UNL     1       1.233   2.077  18.708  0.00  0.00    +0.000 A 
ATOM     24  C   UNL     1       0.909   2.953  19.753  0.00  0.00    +0.000 A 
ATOM     25  C   UNL     1       1.447   4.284  19.796  0.00  0.00    +0.000 A 
ATOM     26  C   UNL     1       2.357   4.711  18.761  0.00  0.00    +0.000 A 
ATOM     27  H   UNL     1       4.541   3.466  16.772  0.00  0.00    +0.000 HD
ENDBRANCH  17  18
ENDBRANCH   3  16
TORSDOF 3
ENDMDL
MODEL 3
REMARK VINA RESULT:      -7.8      7.786      9.576
REMARK  Name = 
REMARK  4 active torsions:
REMARK  status: ('A' for Active; 'I' for Inactive)
REMARK    1  A    between atoms: C_1  and  N_2
REMARK    2  A    between atoms: C_3  and  C_4
REMARK    3  A    between atoms: C_5  and  C_6
REMARK    4  A    between atoms: C_16  and  N_17
REMARK                            x       y       z     vdW  Elec       q    Type
REMARK                         _______ _______ _______ _____ _____    ______ ____
ROOT
ATOM      1  C   UNL     1      -0.220  10.625  18.419  0.00  0.00    +0.000 C 
ATOM      2  N   UNL     1      -0.040  10.288  19.859  0.00  0.00    +0.000 N 
ATOM      3  C   UNL     1       0.734   9.194  20.311  0.00  0.00    +0.000 A 
ATOM      4  C   UNL     1       0.710   8.935  21.676  0.00  0.00    +0.000 A 
ATOM      5  C   UNL     1       0.012   9.713  22.581  0.00  0.00    +0.000 A 
ATOM      6  C   UNL     1      -0.702  10.839  22.147  0.00  0.00    +0.000 A 
ATOM      7  C   UNL     1      -1.390  11.666  23.070  0.00  0.00    +0.000 A 
ATOM      8  C   UNL     1      -2.086  12.780  22.644  0.00  0.00    +0.000 A 
ATOM      9  C   UNL     1      -2.122  13.097  21.297  0.00  0.00    +0.000 A 
ATOM     10 CL   UNL     1      -2.998  14.532  20.809  0.00  0.00    +0.000 Cl
ATOM     11  C   UNL     1      -1.472  12.286  20.353  0.00  0.00    +0.000 A 
ATOM     12  C   UNL     1      -0.729  11.160  20.738  0.00  0.00    +0.000 A 
ENDROOT
BRANCH   5  13
ATOM     13  N   UNL     1       0.039   9.299  23.936  0.00  0.00    +0.000 N 
ATOM     14  H   UNL     1      -0.294   9.935  24.666  0.00  0.00    +0.000 HD
ATOM     15  H   UNL     1       0.553   8.482  24.270  0.00  0.00    +0.000 HD
ENDBRANCH   5  13
BRANCH   3  16
ATOM     16  C   UNL     1       1.539   8.199  19.450  0.00  0.00    +0.000 C 
ATOM     17  C   UNL     1       2.248   7.002  19.796  0.00  0.00    +0.000 C 
BRANCH  17  18
ATOM     18  C   UNL     1       2.760   6.004  18.695  0.00  0.00    +0.000 A 
ATOM     19  C   UNL     1       2.123   4.805  18.668  0.00  0.00    +0.000 A 
ATOM     20  N   UNL     1       2.659   4.005  17.758  0.00  0.00    +0.000 N 
ATOM     21  C   UNL     1       3.744   4.596  17.304  0.00  0.00    +0.000 A 
ATOM     22  C   UNL     1       4.769   3.922  16.628  0.00  0.00    +0.000 A 
ATOM     23  C   UNL     1       5.815   4.651  16.084  0.00  0.00    +0.000 A 
ATOM     24  C   UNL     1       5.736   6.049  16.112  0.00  0.00    +0.000 A 
ATOM     25  C   UNL     1       4.732   6.719  16.891  0.00  0.00    +0.000 A 
ATOM     26  C   UNL     1       3.775   5.934  17.632  0.00  0.00    +0.000 A 
ATOM     27  H   UNL     1       2.317   3.084  17.471  0.00  0.00    +0.000 HD
ENDBRANCH  17  18
ENDBRANCH   3  16
TORSDOF 3
ENDMDL
MODEL 4
REMARK VINA RESULT:      -7.8      3.824      9.266
REMARK  Name = 
REMARK  4 active torsions:
REMARK  status: ('A' for Active; 'I' for Inactive)
REMARK    1  A    between atoms: C_1  and  N_2
REMARK    2  A    between atoms: C_3  and  C_4
REMARK    3  A    between atoms: C_5  and  C_6
REMARK    4  A    between atoms: C_16  and  N_17
REMARK                            x       y       z     vdW  Elec       q    Type
REMARK                         _______ _______ _______ _____ _____    ______ ____
ROOT
ATOM      1  C   UNL     1       7.428   5.661  20.067  0.00  0.00    +0.000 C 
ATOM      2  N   UNL     1       6.885   5.996  18.722  0.00  0.00    +0.000 N 
ATOM      3  C   UNL     1       7.288   7.131  17.980  0.00  0.00    +0.000 A 
ATOM      4  C   UNL     1       6.605   7.378  16.796  0.00  0.00    +0.000 A 
ATOM      5  C   UNL     1       5.608   6.552  16.312  0.00  0.00    +0.000 A 
ATOM      6  C   UNL     1       5.250   5.388  17.009  0.00  0.00    +0.000 A 
ATOM      7  C   UNL     1       4.256   4.514  16.504  0.00  0.00    +0.000 A 
ATOM      8  C   UNL     1       3.909   3.363  17.185  0.00  0.00    +0.000 A 
ATOM      9  C   UNL     1       4.534   3.056  18.381  0.00  0.00    +0.000 A 
ATOM     10 CL   UNL     1       4.077   1.574  19.195  0.00  0.00    +0.000 Cl
ATOM     11  C   UNL     1       5.507   3.912  18.922  0.00  0.00    +0.000 A 
ATOM     12  C   UNL     1       5.913   5.077  18.255  0.00  0.00    +0.000 A 
ENDROOT
BRANCH   5  13
ATOM     13  N   UNL     1       4.965   6.956  15.115  0.00  0.00    +0.000 N 
ATOM     14  H   UNL     1       5.097   6.407  14.261  0.00  0.00    +0.000 HD
ATOM     15  H   UNL     1       4.534   7.872  14.984  0.00  0.00    +0.000 HD
ENDBRANCH   5  13
BRANCH   3  16
ATOM     16  C   UNL     1       8.348   8.180  18.378  0.00  0.00    +0.000 C 
ATOM     17  C   UNL     1       8.422   9.592  18.139  0.00  0.00    +0.000 C 
BRANCH  17  18
ATOM     18  C   UNL     1       9.466  10.498  18.887  0.00  0.00    +0.000 A 
ATOM     19  C   UNL     1       9.354  10.503  20.240  0.00  0.00    +0.000 A 
ATOM     20  N   UNL     1      10.226  11.339  20.784  0.00  0.00    +0.000 N 
ATOM     21  C   UNL     1      10.796  12.008  19.803  0.00  0.00    +0.000 A 
ATOM     22  C   UNL     1      11.476  13.218  19.982  0.00  0.00    +0.000 A 
ATOM     23  C   UNL     1      12.143  13.785  18.909  0.00  0.00    +0.000 A 
ATOM     24  C   UNL     1      12.228  13.054  17.716  0.00  0.00    +0.000 A 
ATOM     25  C   UNL     1      11.445  11.865  17.520  0.00  0.00    +0.000 A 
ATOM     26  C   UNL     1      10.582  11.407  18.581  0.00  0.00    +0.000 A 
ATOM     27  H   UNL     1      10.414  11.469  21.782  0.00  0.00    +0.000 HD
ENDBRANCH  17  18
ENDBRANCH   3  16
TORSDOF 3
ENDMDL
MODEL 5
REMARK VINA RESULT:      -7.8      7.680      9.181
REMARK  Name = 
REMARK  4 active torsions:
REMARK  status: ('A' for Active; 'I' for Inactive)
REMARK    1  A    between atoms: C_1  and  N_2
REMARK    2  A    between atoms: C_3  and  C_4
REMARK    3  A    between atoms: C_5  and  C_6
REMARK    4  A    between atoms: C_16  and  N_17
REMARK                            x       y       z     vdW  Elec       q    Type
REMARK                         _______ _______ _______ _____ _____    ______ ____
ROOT
ATOM      1  C   UNL     1       0.911   9.716  21.845  0.00  0.00    +0.000 C 
ATOM      2  N   UNL     1       0.319  10.395  20.660  0.00  0.00    +0.000 N 
ATOM      3  C   UNL     1       0.441   9.904  19.339  0.00  0.00    +0.000 A 
ATOM      4  C   UNL     1      -0.060  10.710  18.325  0.00  0.00    +0.000 A 
ATOM      5  C   UNL     1      -0.695  11.915  18.560  0.00  0.00    +0.000 A 
ATOM      6  C   UNL     1      -0.880  12.376  19.873  0.00  0.00    +0.000 A 
ATOM      7  C   UNL     1      -1.562  13.591  20.129  0.00  0.00    +0.000 A 
ATOM      8  C   UNL     1      -1.752  14.041  21.421  0.00  0.00    +0.000 A 
ATOM      9  C   UNL     1      -1.267  13.300  22.486  0.00  0.00    +0.000 A 
ATOM     10 CL   UNL     1      -1.553  13.899  24.106  0.00  0.00    +0.000 Cl
ATOM     11  C   UNL     1      -0.566  12.104  22.266  0.00  0.00    +0.000 A 
ATOM     12  C   UNL     1      -0.372  11.592  20.975  0.00  0.00    +0.000 A 
ENDROOT
BRANCH   5  13
ATOM     13  N   UNL     1      -1.112  12.653  17.424  0.00  0.00    +0.000 N 
ATOM     14  H   UNL     1      -2.109  12.837  17.279  0.00  0.00    +0.000 HD
ATOM     15  H   UNL     1      -0.510  12.851  16.624  0.00  0.00    +0.000 HD
ENDBRANCH   5  13
BRANCH   3  16
ATOM     16  C   UNL     1       1.147   8.610  18.885  0.00  0.00    +0.000 C 
ATOM     17  C   UNL     1       2.232   8.389  17.974  0.00  0.00    +0.000 C 
BRANCH  17  18
ATOM     18  C   UNL     1       2.961   7.000  17.885  0.00  0.00    +0.000 A 
ATOM     19  C   UNL     1       4.251   7.056  17.468  0.00  0.00    +0.000 A 
ATOM     20  N   UNL     1       4.767   5.840  17.360  0.00  0.00    +0.000 N 
ATOM     21  C   UNL     1       3.788   4.979  17.537  0.00  0.00    +0.000 A 
ATOM     22  C   UNL     1       3.849   3.640  17.132  0.00  0.00    +0.000 A 
ATOM     23  C   UNL     1       2.814   2.783  17.469  0.00  0.00    +0.000 A 
ATOM     24  C   UNL     1       1.809   3.256  18.323  0.00  0.00    +0.000 A 
ATOM     25  C   UNL     1       1.710   4.653  18.647  0.00  0.00    +0.000 A 
ATOM     26  C   UNL     1       2.681   5.572  18.105  0.00  0.00    +0.000 A 
ATOM     27  H   UNL     1       5.741   5.601  17.152  0.00  0.00    +0.000 HD
ENDBRANCH  17  18
ENDBRANCH   3  16
TORSDOF 3
ENDMDL
MODEL 6
REMARK VINA RESULT:      -7.7      8.412      9.304
REMARK  Name = 
REMARK  4 active torsions:
REMARK  status: ('A' for Active; 'I' for Inactive)
REMARK    1  A    between atoms: C_1  and  N_2
REMARK    2  A    between atoms: C_3  and  C_4
REMARK    3  A    between atoms: C_5  and  C_6
REMARK    4  A    between atoms: C_16  and  N_17
REMARK                            x       y       z     vdW  Elec       q    Type
REMARK                         _______ _______ _______ _____ _____    ______ ____
ROOT
ATOM      1  C   UNL     1       1.573   9.708  18.302  0.00  0.00    +0.000 C 
ATOM      2  N   UNL     1       1.012   9.804  19.678  0.00  0.00    +0.000 N 
ATOM      3  C   UNL     1       1.012   8.727  20.595  0.00  0.00    +0.000 A 
ATOM      4  C   UNL     1       0.345   8.930  21.796  0.00  0.00    +0.000 A 
ATOM      5  C   UNL     1      -0.260  10.127  22.132  0.00  0.00    +0.000 A 
ATOM      6  C   UNL     1      -0.205  11.221  21.256  0.00  0.00    +0.000 A 
ATOM      7  C   UNL     1      -0.788  12.464  21.605  0.00  0.00    +0.000 A 
ATOM      8  C   UNL     1      -0.727  13.544  20.745  0.00  0.00    +0.000 A 
ATOM      9  C   UNL     1      -0.092  13.416  19.522  0.00  0.00    +0.000 A 
ATOM     10 CL   UNL     1      -0.020  14.819  18.478  0.00  0.00    +0.000 Cl
ATOM     11  C   UNL     1       0.476  12.191  19.135  0.00  0.00    +0.000 A 
ATOM     12  C   UNL     1       0.464  11.074  19.983  0.00  0.00    +0.000 A 
ENDROOT
BRANCH   5  13
ATOM     13  N   UNL     1      -0.945  10.173  23.372  0.00  0.00    +0.000 N 
ATOM     14  H   UNL     1      -1.928  10.460  23.396  0.00  0.00    +0.000 HD
ATOM     15  H   UNL     1      -0.480  10.131  24.280  0.00  0.00    +0.000 HD
ENDBRANCH   5  13
BRANCH   3  16
ATOM     16  C   UNL     1       1.598   7.316  20.379  0.00  0.00    +0.000 C 
ATOM     17  C   UNL     1       1.461   6.106  21.136  0.00  0.00    +0.000 C 
BRANCH  17  18
ATOM     18  C   UNL     1       1.930   4.720  20.562  0.00  0.00    +0.000 A 
ATOM     19  C   UNL     1       2.189   3.771  21.497  0.00  0.00    +0.000 A 
ATOM     20  N   UNL     1       2.640   2.660  20.932  0.00  0.00    +0.000 N 
ATOM     21  C   UNL     1       2.840   2.919  19.657  0.00  0.00    +0.000 A 
ATOM     22  C   UNL     1       3.650   2.139  18.824  0.00  0.00    +0.000 A 
ATOM     23  C   UNL     1       3.703   2.424  17.470  0.00  0.00    +0.000 A 
ATOM     24  C   UNL     1       2.835   3.399  16.961  0.00  0.00    +0.000 A 
ATOM     25  C   UNL     1       2.086   4.254  17.839  0.00  0.00    +0.000 A 
ATOM     26  C   UNL     1       2.211   4.082  19.266  0.00  0.00    +0.000 A 
ATOM     27  H   UNL     1       2.826   1.766  21.395  0.00  0.00    +0.000 HD
ENDBRANCH  17  18
ENDBRANCH   3  16
TORSDOF 3
ENDMDL
MODEL 7
REMARK VINA RESULT:      -7.7      7.294      8.581
REMARK  Name = 
REMARK  4 active torsions:
REMARK  status: ('A' for Active; 'I' for Inactive)
REMARK    1  A    between atoms: C_1  and  N_2
REMARK    2  A    between atoms: C_3  and  C_4
REMARK    3  A    between atoms: C_5  and  C_6
REMARK    4  A    between atoms: C_16  and  N_17
REMARK                            x       y       z     vdW  Elec       q    Type
REMARK                         _______ _______ _______ _____ _____    ______ ____
ROOT
ATOM      1  C   UNL     1      -0.746   9.814  19.901  0.00  0.00    +0.000 C 
ATOM      2  N   UNL     1       0.280  10.655  19.226  0.00  0.00    +0.000 N 
ATOM      3  C   UNL     1       1.377  10.121  18.509  0.00  0.00    +0.000 A 
ATOM      4  C   UNL     1       2.316  11.029  18.038  0.00  0.00    +0.000 A 
ATOM      5  C   UNL     1       2.195  12.397  18.203  0.00  0.00    +0.000 A 
ATOM      6  C   UNL     1       1.076  12.937  18.853  0.00  0.00    +0.000 A 
ATOM      7  C   UNL     1       0.922  14.338  18.995  0.00  0.00    +0.000 A 
ATOM      8  C   UNL     1      -0.184  14.872  19.628  0.00  0.00    +0.000 A 
ATOM      9  C   UNL     1      -1.157  14.030  20.138  0.00  0.00    +0.000 A 
ATOM     10 CL   UNL     1      -2.552  14.754  20.911  0.00  0.00    +0.000 Cl
ATOM     11  C   UNL     1      -1.025  12.636  20.036  0.00  0.00    +0.000 A 
ATOM     12  C   UNL     1       0.065  12.048  19.379  0.00  0.00    +0.000 A 
ENDROOT
BRANCH   5  13
ATOM     13  N   UNL     1       3.256  13.198  17.712  0.00  0.00    +0.000 N 
ATOM     14  H   UNL     1       3.067  13.902  16.992  0.00  0.00    +0.000 HD
ATOM     15  H   UNL     1       4.243  12.995  17.876  0.00  0.00    +0.000 HD
ENDBRANCH   5  13
BRANCH   3  16
ATOM     16  C   UNL     1       1.695   8.632  18.262  0.00  0.00    +0.000 C 
ATOM     17  C   UNL     1       2.939   7.948  18.065  0.00  0.00    +0.000 C 
BRANCH  17  18
ATOM     18  C   UNL     1       3.030   6.379  18.109  0.00  0.00    +0.000 A 
ATOM     19  C   UNL     1       3.953   5.836  17.274  0.00  0.00    +0.000 A 
ATOM     20  N   UNL     1       3.917   4.512  17.327  0.00  0.00    +0.000 N 
ATOM     21  C   UNL     1       2.874   4.175  18.055  0.00  0.00    +0.000 A 
ATOM     22  C   UNL     1       2.290   2.903  18.031  0.00  0.00    +0.000 A 
ATOM     23  C   UNL     1       1.269   2.609  18.921  0.00  0.00    +0.000 A 
ATOM     24  C   UNL     1       0.954   3.553  19.907  0.00  0.00    +0.000 A 
ATOM     25  C   UNL     1       1.493   4.884  19.857  0.00  0.00    +0.000 A 
ATOM     26  C   UNL     1       2.394   5.239  18.788  0.00  0.00    +0.000 A 
ATOM     27  H   UNL     1       4.561   3.861  16.869  0.00  0.00    +0.000 HD
ENDBRANCH  17  18
ENDBRANCH   3  16
TORSDOF 3
ENDMDL
MODEL 8
REMARK VINA RESULT:      -7.7      8.004     11.222
REMARK  Name = 
REMARK  4 active torsions:
REMARK  status: ('A' for Active; 'I' for Inactive)
REMARK    1  A    between atoms: C_1  and  N_2
REMARK    2  A    between atoms: C_3  and  C_4
REMARK    3  A    between atoms: C_5  and  C_6
REMARK    4  A    between atoms: C_16  and  N_17
REMARK                            x       y       z     vdW  Elec       q    Type
REMARK                         _______ _______ _______ _____ _____    ______ ____
ROOT
ATOM      1  C   UNL     1       2.783   8.026  18.195  0.00  0.00    +0.000 C 
ATOM      2  N   UNL     1       2.674   6.715  18.892  0.00  0.00    +0.000 N 
ATOM      3  C   UNL     1       1.933   6.526  20.082  0.00  0.00    +0.000 A 
ATOM      4  C   UNL     1       2.023   5.277  20.682  0.00  0.00    +0.000 A 
ATOM      5  C   UNL     1       2.753   4.232  20.146  0.00  0.00    +0.000 A 
ATOM      6  C   UNL     1       3.435   4.392  18.931  0.00  0.00    +0.000 A 
ATOM      7  C   UNL     1       4.156   3.318  18.353  0.00  0.00    +0.000 A 
ATOM      8  C   UNL     1       4.821   3.472  17.152  0.00  0.00    +0.000 A 
ATOM      9  C   UNL     1       4.790   4.693  16.500  0.00  0.00    +0.000 A 
ATOM     10 CL   UNL     1       5.628   4.834  14.969  0.00  0.00    +0.000 Cl
ATOM     11  C   UNL     1       4.106   5.786  17.057  0.00  0.00    +0.000 A 
ATOM     12  C   UNL     1       3.393   5.671  18.260  0.00  0.00    +0.000 A 
ENDROOT
BRANCH   5  13
ATOM     13  N   UNL     1       2.793   3.029  20.894  0.00  0.00    +0.000 N 
ATOM     14  H   UNL     1       2.569   3.046  21.893  0.00  0.00    +0.000 HD
ATOM     15  H   UNL     1       3.223   2.166  20.558  0.00  0.00    +0.000 HD
ENDBRANCH   5  13
BRANCH   3  16
ATOM     16  C   UNL     1       1.099   7.579  20.841  0.00  0.00    +0.000 C 
ATOM     17  C   UNL     1       1.490   8.699  21.647  0.00  0.00    +0.000 C 
BRANCH  17  18
ATOM     18  C   UNL     1       0.454   9.795  22.089  0.00  0.00    +0.000 A 
ATOM     19  C   UNL     1      -0.281   9.478  23.185  0.00  0.00    +0.000 A 
ATOM     20  N   UNL     1      -1.171  10.425  23.448  0.00  0.00    +0.000 N 
ATOM     21  C   UNL     1      -1.146  11.278  22.447  0.00  0.00    +0.000 A 
ATOM     22  C   UNL     1      -2.178  12.184  22.173  0.00  0.00    +0.000 A 
ATOM     23  C   UNL     1      -2.007  13.123  21.169  0.00  0.00    +0.000 A 
ATOM     24  C   UNL     1      -0.750  13.220  20.556  0.00  0.00    +0.000 A 
ATOM     25  C   UNL     1       0.261  12.224  20.778  0.00  0.00    +0.000 A 
ATOM     26  C   UNL     1      -0.017  11.125  21.670  0.00  0.00    +0.000 A 
ATOM     27  H   UNL     1      -1.788  10.480  24.264  0.00  0.00    +0.000 HD
ENDBRANCH  17  18
ENDBRANCH   3  16
TORSDOF 3
ENDMDL
MODEL 9
REMARK VINA RESULT:      -7.6      7.743      8.807
REMARK  Name = 
REMARK  4 active torsions:
REMARK  status: ('A' for Active; 'I' for Inactive)
REMARK    1  A    between atoms: C_1  and  N_2
REMARK    2  A    between atoms: C_3  and  C_4
REMARK    3  A    between atoms: C_5  and  C_6
REMARK    4  A    between atoms: C_16  and  N_17
REMARK                            x       y       z     vdW  Elec       q    Type
REMARK                         _______ _______ _______ _____ _____    ______ ____
ROOT
ATOM      1  C   UNL     1       0.082   9.104  21.992  0.00  0.00    +0.000 C 
ATOM      2  N   UNL     1       0.368  10.040  20.871  0.00  0.00    +0.000 N 
ATOM      3  C   UNL     1       1.032   9.653  19.683  0.00  0.00    +0.000 A 
ATOM      4  C   UNL     1       1.335  10.663  18.780  0.00  0.00    +0.000 A 
ATOM      5  C   UNL     1       0.981  11.985  18.976  0.00  0.00    +0.000 A 
ATOM      6  C   UNL     1       0.262  12.365  20.120  0.00  0.00    +0.000 A 
ATOM      7  C   UNL     1      -0.139  13.710  20.315  0.00  0.00    +0.000 A 
ATOM      8  C   UNL     1      -0.854  14.083  21.437  0.00  0.00    +0.000 A 
ATOM      9  C   UNL     1      -1.182  13.135  22.391  0.00  0.00    +0.000 A 
ATOM     10 CL   UNL     1      -2.108  13.652  23.783  0.00  0.00    +0.000 Cl
ATOM     11  C   UNL     1      -0.778  11.799  22.241  0.00  0.00    +0.000 A 
ATOM     12  C   UNL     1      -0.076  11.365  21.107  0.00  0.00    +0.000 A 
ENDROOT
BRANCH   5  13
ATOM     13  N   UNL     1       1.400  12.914  17.992  0.00  0.00    +0.000 N 
ATOM     14  H   UNL     1       0.702  13.479  17.499  0.00  0.00    +0.000 HD
ATOM     15  H   UNL     1       2.338  12.929  17.588  0.00  0.00    +0.000 HD
ENDBRANCH   5  13
BRANCH   3  16
ATOM     16  C   UNL     1       1.536   8.243  19.312  0.00  0.00    +0.000 C 
ATOM     17  C   UNL     1       2.310   7.774  18.200  0.00  0.00    +0.000 C 
BRANCH  17  18
ATOM     18  C   UNL     1       2.937   6.333  18.185  0.00  0.00    +0.000 A 
ATOM     19  C   UNL     1       4.254   6.285  17.859  0.00  0.00    +0.000 A 
ATOM     20  N   UNL     1       4.683   5.033  17.807  0.00  0.00    +0.000 N 
ATOM     21  C   UNL     1       3.632   4.250  17.928  0.00  0.00    +0.000 A 
ATOM     22  C   UNL     1       3.620   2.902  17.549  0.00  0.00    +0.000 A 
ATOM     23  C   UNL     1       2.503   2.131  17.825  0.00  0.00    +0.000 A 
ATOM     24  C   UNL     1       1.479   2.695  18.598  0.00  0.00    +0.000 A 
ATOM     25  C   UNL     1       1.463   4.101  18.892  0.00  0.00    +0.000 A 
ATOM     26  C   UNL     1       2.536   4.935  18.407  0.00  0.00    +0.000 A 
ATOM     27  H   UNL     1       5.648   4.718  17.672  0.00  0.00    +0.000 HD
ENDBRANCH  17  18
ENDBRANCH   3  16
TORSDOF 3
ENDMDL
