MODEL 1
REMARK VINA RESULT:      -9.5      0.000      0.000
REMARK  Name = 
REMARK  7 active torsions:
REMARK  status: ('A' for Active; 'I' for Inactive)
REMARK    1  A    between atoms: C_1  and  C_18
REMARK    2  A    between atoms: N_2  and  O_3
REMARK    3  A    between atoms: O_3  and  C_4
REMARK    4  A    between atoms: C_4  and  C_5
REMARK    5  A    between atoms: C_8  and  O_9
REMARK    6  A    between atoms: O_9  and  C_10
REMARK    7  A    between atoms: C_19  and  C_20
REMARK                            x       y       z     vdW  Elec       q    Type
REMARK                         _______ _______ _______ _____ _____    ______ ____
ROOT
ATOM      1  C   UNL     1       3.134   4.953  18.775  0.00  0.00    +0.000 A 
ATOM      2  C   UNL     1       4.223   4.212  18.293  0.00  0.00    +0.000 A 
ATOM      3  N   UNL     1       4.477   3.085  19.078  0.00  0.00    +0.000 NA
ATOM      4  C   UNL     1       3.596   3.198  20.026  0.00  0.00    +0.000 A 
ATOM      5  O   UNL     1       3.297   2.482  21.119  0.00  0.00    +0.000 OA
ATOM      6  C   UNL     1       2.215   3.210  21.692  0.00  0.00    +0.000 A 
ATOM      7  C   UNL     1       1.906   4.293  20.961  0.00  0.00    +0.000 A 
ATOM      8  N   UNL     1       2.787   4.280  19.907  0.00  0.00    +0.000 N 
ENDROOT
BRANCH   2   9
ATOM      9  C   UNL     1       5.037   4.517  17.123  0.00  0.00    +0.000 A 
ATOM     10  C   UNL     1       6.127   5.383  17.257  0.00  0.00    +0.000 A 
ATOM     11  C   UNL     1       6.976   5.631  16.174  0.00  0.00    +0.000 A 
ATOM     12  C   UNL     1       6.750   5.017  14.935  0.00  0.00    +0.000 A 
ATOM     13  C   UNL     1       7.646   5.172  13.866  0.00  0.00    +0.000 A 
ATOM     14  C   UNL     1       7.405   4.554  12.638  0.00  0.00    +0.000 A 
ATOM     15  C   UNL     1       6.244   3.811  12.451  0.00  0.00    +0.000 A 
ATOM     16  C   UNL     1       5.342   3.646  13.504  0.00  0.00    +0.000 A 
ATOM     17  C   UNL     1       5.601   4.214  14.762  0.00  0.00    +0.000 A 
ATOM     18  C   UNL     1       4.751   3.983  15.857  0.00  0.00    +0.000 A 
ENDBRANCH   2   9
BRANCH   1  19
ATOM     19  C   UNL     1       2.492   6.131  18.282  0.00  0.00    +0.000 C 
ATOM     20  N   UNL     1       2.407   7.180  19.035  0.00  0.00    +0.000 NA
BRANCH  20  21
ATOM     21  O   UNL     1       1.825   8.227  18.297  0.00  0.00    +0.000 OA
BRANCH  21  22
ATOM     22  C   UNL     1       1.519   9.311  19.183  0.00  0.00    +0.000 C 
BRANCH  22  23
ATOM     23  C   UNL     1       0.216   9.951  18.774  0.00  0.00    +0.000 A 
ATOM     24  C   UNL     1      -0.352  10.984  19.533  0.00  0.00    +0.000 A 
ATOM     25  C   UNL     1      -1.556  11.573  19.136  0.00  0.00    +0.000 A 
ATOM     26  C   UNL     1      -2.213  11.135  17.984  0.00  0.00    +0.000 A 
ATOM     27  C   UNL     1      -1.692  10.053  17.271  0.00  0.00    +0.000 A 
ATOM     28  C   UNL     1      -0.473   9.486  17.646  0.00  0.00    +0.000 A 
BRANCH  26  29
ATOM     29  O   UNL     1      -3.388  11.783  17.679  0.00  0.00    +0.000 OA
BRANCH  29  30
ATOM     30  C   UNL     1      -4.491  11.655  18.497  0.00  0.00    +0.000 A 
ATOM     31  C   UNL     1      -5.373  10.621  18.172  0.00  0.00    +0.000 A 
ATOM     32  C   UNL     1      -6.525  10.412  18.933  0.00  0.00    +0.000 A 
ATOM     33  C   UNL     1      -6.799  11.238  20.021  0.00  0.00    +0.000 A 
ATOM     34  C   UNL     1      -5.904  12.245  20.373  0.00  0.00    +0.000 A 
ATOM     35  C   UNL     1      -4.736  12.433  19.632  0.00  0.00    +0.000 A 
ENDBRANCH  29  30
ENDBRANCH  26  29
ENDBRANCH  22  23
ENDBRANCH  21  22
ENDBRANCH  20  21
ENDBRANCH   1  19
TORSDOF 7
ENDMDL
MODEL 2
REMARK VINA RESULT:      -9.4      5.966     10.176
REMARK  Name = 
REMARK  7 active torsions:
REMARK  status: ('A' for Active; 'I' for Inactive)
REMARK    1  A    between atoms: C_1  and  C_18
REMARK    2  A    between atoms: N_2  and  O_3
REMARK    3  A    between atoms: O_3  and  C_4
REMARK    4  A    between atoms: C_4  and  C_5
REMARK    5  A    between atoms: C_8  and  O_9
REMARK    6  A    between atoms: O_9  and  C_10
REMARK    7  A    between atoms: C_19  and  C_20
REMARK                            x       y       z     vdW  Elec       q    Type
REMARK                         _______ _______ _______ _____ _____    ______ ____
ROOT
ATOM      1  C   UNL     1       6.143   5.488  16.326  0.00  0.00    +0.000 A 
ATOM      2  C   UNL     1       5.080   4.587  16.479  0.00  0.00    +0.000 A 
ATOM      3  N   UNL     1       4.976   3.711  15.397  0.00  0.00    +0.000 NA
ATOM      4  C   UNL     1       5.918   4.129  14.605  0.00  0.00    +0.000 A 
ATOM      5  O   UNL     1       6.357   3.761  13.393  0.00  0.00    +0.000 OA
ATOM      6  C   UNL     1       7.422   4.674  13.149  0.00  0.00    +0.000 A 
ATOM      7  C   UNL     1       7.588   5.526  14.173  0.00  0.00    +0.000 A 
ATOM      8  N   UNL     1       6.630   5.175  15.092  0.00  0.00    +0.000 N 
ENDROOT
BRANCH   2   9
ATOM      9  C   UNL     1       4.155   4.513  17.603  0.00  0.00    +0.000 A 
ATOM     10  C   UNL     1       3.086   5.413  17.669  0.00  0.00    +0.000 A 
ATOM     11  C   UNL     1       2.134   5.315  18.688  0.00  0.00    +0.000 A 
ATOM     12  C   UNL     1       2.234   4.314  19.664  0.00  0.00    +0.000 A 
ATOM     13  C   UNL     1       1.237   4.135  20.635  0.00  0.00    +0.000 A 
ATOM     14  C   UNL     1       1.352   3.133  21.600  0.00  0.00    +0.000 A 
ATOM     15  C   UNL     1       2.487   2.328  21.632  0.00  0.00    +0.000 A 
ATOM     16  C   UNL     1       3.488   2.493  20.674  0.00  0.00    +0.000 A 
ATOM     17  C   UNL     1       3.357   3.458  19.662  0.00  0.00    +0.000 A 
ATOM     18  C   UNL     1       4.311   3.576  18.636  0.00  0.00    +0.000 A 
ENDBRANCH   2   9
BRANCH   1  19
ATOM     19  C   UNL     1       6.653   6.515  17.181  0.00  0.00    +0.000 C 
ATOM     20  N   UNL     1       7.850   6.416  17.660  0.00  0.00    +0.000 NA
BRANCH  20  21
ATOM     21  O   UNL     1       8.150   7.584  18.385  0.00  0.00    +0.000 OA
BRANCH  21  22
ATOM     22  C   UNL     1       7.840   8.728  17.579  0.00  0.00    +0.000 C 
BRANCH  22  23
ATOM     23  C   UNL     1       8.479   9.959  18.174  0.00  0.00    +0.000 A 
ATOM     24  C   UNL     1       8.330  11.215  17.571  0.00  0.00    +0.000 A 
ATOM     25  C   UNL     1       8.921  12.347  18.140  0.00  0.00    +0.000 A 
ATOM     26  C   UNL     1       9.675  12.240  19.310  0.00  0.00    +0.000 A 
ATOM     27  C   UNL     1       9.893  10.979  19.869  0.00  0.00    +0.000 A 
ATOM     28  C   UNL     1       9.276   9.852  19.323  0.00  0.00    +0.000 A 
BRANCH  26  29
ATOM     29  O   UNL     1      10.211  13.414  19.790  0.00  0.00    +0.000 OA
BRANCH  29  30
ATOM     30  C   UNL     1      10.606  14.409  18.922  0.00  0.00    +0.000 A 
ATOM     31  C   UNL     1      11.788  14.169  18.218  0.00  0.00    +0.000 A 
ATOM     32  C   UNL     1      12.279  15.119  17.319  0.00  0.00    +0.000 A 
ATOM     33  C   UNL     1      11.589  16.314  17.124  0.00  0.00    +0.000 A 
ATOM     34  C   UNL     1      10.390  16.542  17.795  0.00  0.00    +0.000 A 
ATOM     35  C   UNL     1       9.882  15.578  18.667  0.00  0.00    +0.000 A 
ENDBRANCH  29  30
ENDBRANCH  26  29
ENDBRANCH  22  23
ENDBRANCH  21  22
ENDBRANCH  20  21
ENDBRANCH   1  19
TORSDOF 7
ENDMDL
MODEL 3
REMARK VINA RESULT:      -9.2      1.507      1.928
REMARK  Name = 
REMARK  7 active torsions:
REMARK  status: ('A' for Active; 'I' for Inactive)
REMARK    1  A    between atoms: C_1  and  C_18
REMARK    2  A    between atoms: N_2  and  O_3
REMARK    3  A    between atoms: O_3  and  C_4
REMARK    4  A    between atoms: C_4  and  C_5
REMARK    5  A    between atoms: C_8  and  O_9
REMARK    6  A    between atoms: O_9  and  C_10
REMARK    7  A    between atoms: C_19  and  C_20
REMARK                            x       y       z     vdW  Elec       q    Type
REMARK                         _______ _______ _______ _____ _____    ______ ____
ROOT
ATOM      1  C   UNL     1       3.045   5.026  18.666  0.00  0.00    +0.000 A 
ATOM      2  C   UNL     1       4.160   4.301  18.219  0.00  0.00    +0.000 A 
ATOM      3  N   UNL     1       4.430   3.201  19.035  0.00  0.00    +0.000 NA
ATOM      4  C   UNL     1       3.532   3.316  19.968  0.00  0.00    +0.000 A 
ATOM      5  O   UNL     1       3.234   2.620  21.074  0.00  0.00    +0.000 OA
ATOM      6  C   UNL     1       2.126   3.335  21.612  0.00  0.00    +0.000 A 
ATOM      7  C   UNL     1       1.801   4.390  20.850  0.00  0.00    +0.000 A 
ATOM      8  N   UNL     1       2.698   4.373  19.810  0.00  0.00    +0.000 N 
ENDROOT
BRANCH   2   9
ATOM      9  C   UNL     1       4.983   4.598  17.053  0.00  0.00    +0.000 A 
ATOM     10  C   UNL     1       6.023   5.525  17.170  0.00  0.00    +0.000 A 
ATOM     11  C   UNL     1       6.884   5.769  16.095  0.00  0.00    +0.000 A 
ATOM     12  C   UNL     1       6.718   5.091  14.880  0.00  0.00    +0.000 A 
ATOM     13  C   UNL     1       7.629   5.246  13.824  0.00  0.00    +0.000 A 
ATOM     14  C   UNL     1       7.448   4.564  12.620  0.00  0.00    +0.000 A 
ATOM     15  C   UNL     1       6.331   3.753  12.443  0.00  0.00    +0.000 A 
ATOM     16  C   UNL     1       5.415   3.587  13.483  0.00  0.00    +0.000 A 
ATOM     17  C   UNL     1       5.616   4.222  14.719  0.00  0.00    +0.000 A 
ATOM     18  C   UNL     1       4.754   3.995  15.807  0.00  0.00    +0.000 A 
ENDBRANCH   2   9
BRANCH   1  19
ATOM     19  C   UNL     1       2.381   6.175  18.133  0.00  0.00    +0.000 C 
ATOM     20  N   UNL     1       2.927   7.342  18.246  0.00  0.00    +0.000 NA
BRANCH  20  21
ATOM     21  O   UNL     1       2.135   8.285  17.565  0.00  0.00    +0.000 OA
BRANCH  21  22
ATOM     22  C   UNL     1       2.512   9.603  17.984  0.00  0.00    +0.000 C 
BRANCH  22  23
ATOM     23  C   UNL     1       1.283  10.380  18.388  0.00  0.00    +0.000 A 
ATOM     24  C   UNL     1       1.382  11.701  18.848  0.00  0.00    +0.000 A 
ATOM     25  C   UNL     1       0.233  12.411  19.210  0.00  0.00    +0.000 A 
ATOM     26  C   UNL     1      -1.026  11.811  19.127  0.00  0.00    +0.000 A 
ATOM     27  C   UNL     1      -1.120  10.471  18.746  0.00  0.00    +0.000 A 
ATOM     28  C   UNL     1       0.022   9.770  18.351  0.00  0.00    +0.000 A 
BRANCH  26  29
ATOM     29  O   UNL     1      -2.091  12.597  19.503  0.00  0.00    +0.000 OA
BRANCH  29  30
ATOM     30  C   UNL     1      -2.562  12.564  20.799  0.00  0.00    +0.000 A 
ATOM     31  C   UNL     1      -3.878  12.997  20.979  0.00  0.00    +0.000 A 
ATOM     32  C   UNL     1      -4.448  13.011  22.254  0.00  0.00    +0.000 A 
ATOM     33  C   UNL     1      -3.700  12.593  23.354  0.00  0.00    +0.000 A 
ATOM     34  C   UNL     1      -2.401  12.124  23.175  0.00  0.00    +0.000 A 
ATOM     35  C   UNL     1      -1.844  12.079  21.896  0.00  0.00    +0.000 A 
ENDBRANCH  29  30
ENDBRANCH  26  29
ENDBRANCH  22  23
ENDBRANCH  21  22
ENDBRANCH  20  21
ENDBRANCH   1  19
TORSDOF 7
ENDMDL
MODEL 4
REMARK VINA RESULT:      -9.2      2.436      2.966
REMARK  Name = 
REMARK  7 active torsions:
REMARK  status: ('A' for Active; 'I' for Inactive)
REMARK    1  A    between atoms: C_1  and  C_18
REMARK    2  A    between atoms: N_2  and  O_3
REMARK    3  A    between atoms: O_3  and  C_4
REMARK    4  A    between atoms: C_4  and  C_5
REMARK    5  A    between atoms: C_8  and  O_9
REMARK    6  A    between atoms: O_9  and  C_10
REMARK    7  A    between atoms: C_19  and  C_20
REMARK                            x       y       z     vdW  Elec       q    Type
REMARK                         _______ _______ _______ _____ _____    ______ ____
ROOT
ATOM      1  C   UNL     1       3.530   5.172  19.030  0.00  0.00    +0.000 A 
ATOM      2  C   UNL     1       4.193   4.234  18.226  0.00  0.00    +0.000 A 
ATOM      3  N   UNL     1       3.984   2.926  18.668  0.00  0.00    +0.000 NA
ATOM      4  C   UNL     1       3.267   3.102  19.737  0.00  0.00    +0.000 A 
ATOM      5  O   UNL     1       2.739   2.282  20.657  0.00  0.00    +0.000 OA
ATOM      6  C   UNL     1       2.081   3.181  21.545  0.00  0.00    +0.000 A 
ATOM      7  C   UNL     1       2.223   4.456  21.152  0.00  0.00    +0.000 A 
ATOM      8  N   UNL     1       2.978   4.399  20.006  0.00  0.00    +0.000 N 
ENDROOT
BRANCH   2   9
ATOM      9  C   UNL     1       5.014   4.515  17.055  0.00  0.00    +0.000 A 
ATOM     10  C   UNL     1       6.133   5.344  17.189  0.00  0.00    +0.000 A 
ATOM     11  C   UNL     1       6.989   5.565  16.105  0.00  0.00    +0.000 A 
ATOM     12  C   UNL     1       6.740   4.962  14.865  0.00  0.00    +0.000 A 
ATOM     13  C   UNL     1       7.639   5.089  13.795  0.00  0.00    +0.000 A 
ATOM     14  C   UNL     1       7.376   4.482  12.566  0.00  0.00    +0.000 A 
ATOM     15  C   UNL     1       6.190   3.779  12.379  0.00  0.00    +0.000 A 
ATOM     16  C   UNL     1       5.285   3.642  13.433  0.00  0.00    +0.000 A 
ATOM     17  C   UNL     1       5.565   4.198  14.692  0.00  0.00    +0.000 A 
ATOM     18  C   UNL     1       4.709   3.993  15.789  0.00  0.00    +0.000 A 
ENDBRANCH   2   9
BRANCH   1  19
ATOM     19  C   UNL     1       3.418   6.595  18.939  0.00  0.00    +0.000 C 
ATOM     20  N   UNL     1       2.731   7.125  17.980  0.00  0.00    +0.000 NA
BRANCH  20  21
ATOM     21  O   UNL     1       2.692   8.519  18.161  0.00  0.00    +0.000 OA
BRANCH  21  22
ATOM     22  C   UNL     1       1.333   8.965  18.077  0.00  0.00    +0.000 C 
BRANCH  22  23
ATOM     23  C   UNL     1       0.913   9.573  19.392  0.00  0.00    +0.000 A 
ATOM     24  C   UNL     1       0.457  10.897  19.465  0.00  0.00    +0.000 A 
ATOM     25  C   UNL     1       0.063  11.443  20.690  0.00  0.00    +0.000 A 
ATOM     26  C   UNL     1       0.127  10.680  21.858  0.00  0.00    +0.000 A 
ATOM     27  C   UNL     1       0.655   9.389  21.803  0.00  0.00    +0.000 A 
ATOM     28  C   UNL     1       1.018   8.829  20.576  0.00  0.00    +0.000 A 
BRANCH  26  29
ATOM     29  O   UNL     1      -0.287  11.309  23.010  0.00  0.00    +0.000 OA
BRANCH  29  30
ATOM     30  C   UNL     1      -1.275  12.269  22.968  0.00  0.00    +0.000 A 
ATOM     31  C   UNL     1      -0.836  13.592  22.870  0.00  0.00    +0.000 A 
ATOM     32  C   UNL     1      -1.757  14.640  22.828  0.00  0.00    +0.000 A 
ATOM     33  C   UNL     1      -3.123  14.368  22.886  0.00  0.00    +0.000 A 
ATOM     34  C   UNL     1      -3.568  13.050  22.945  0.00  0.00    +0.000 A 
ATOM     35  C   UNL     1      -2.647  12.001  22.953  0.00  0.00    +0.000 A 
ENDBRANCH  29  30
ENDBRANCH  26  29
ENDBRANCH  22  23
ENDBRANCH  21  22
ENDBRANCH  20  21
ENDBRANCH   1  19
TORSDOF 7
ENDMDL
MODEL 5
REMARK VINA RESULT:      -9.2      6.346     10.459
REMARK  Name = 
REMARK  7 active torsions:
REMARK  status: ('A' for Active; 'I' for Inactive)
REMARK    1  A    between atoms: C_1  and  C_18
REMARK    2  A    between atoms: N_2  and  O_3
REMARK    3  A    between atoms: O_3  and  C_4
REMARK    4  A    between atoms: C_4  and  C_5
REMARK    5  A    between atoms: C_8  and  O_9
REMARK    6  A    between atoms: O_9  and  C_10
REMARK    7  A    between atoms: C_19  and  C_20
REMARK                            x       y       z     vdW  Elec       q    Type
REMARK                         _______ _______ _______ _____ _____    ______ ____
ROOT
ATOM      1  C   UNL     1       5.542   6.522  17.201  0.00  0.00    +0.000 A 
ATOM      2  C   UNL     1       4.250   6.091  17.533  0.00  0.00    +0.000 A 
ATOM      3  N   UNL     1       3.975   4.820  17.025  0.00  0.00    +0.000 NA
ATOM      4  C   UNL     1       5.058   4.542  16.363  0.00  0.00    +0.000 A 
ATOM      5  O   UNL     1       5.461   3.503  15.619  0.00  0.00    +0.000 OA
ATOM      6  C   UNL     1       6.767   3.895  15.204  0.00  0.00    +0.000 A 
ATOM      7  C   UNL     1       7.097   5.102  15.689  0.00  0.00    +0.000 A 
ATOM      8  N   UNL     1       6.009   5.507  16.422  0.00  0.00    +0.000 N 
ENDROOT
BRANCH   2   9
ATOM      9  C   UNL     1       3.259   6.825  18.312  0.00  0.00    +0.000 A 
ATOM     10  C   UNL     1       2.858   6.322  19.554  0.00  0.00    +0.000 A 
ATOM     11  C   UNL     1       1.974   7.042  20.362  0.00  0.00    +0.000 A 
ATOM     12  C   UNL     1       1.472   8.282  19.942  0.00  0.00    +0.000 A 
ATOM     13  C   UNL     1       0.665   9.067  20.779  0.00  0.00    +0.000 A 
ATOM     14  C   UNL     1       0.173  10.298  20.345  0.00  0.00    +0.000 A 
ATOM     15  C   UNL     1       0.445  10.738  19.053  0.00  0.00    +0.000 A 
ATOM     16  C   UNL     1       1.247   9.970  18.207  0.00  0.00    +0.000 A 
ATOM     17  C   UNL     1       1.796   8.756  18.652  0.00  0.00    +0.000 A 
ATOM     18  C   UNL     1       2.679   8.015  17.847  0.00  0.00    +0.000 A 
ENDBRANCH   2   9
BRANCH   1  19
ATOM     19  C   UNL     1       6.266   7.709  17.535  0.00  0.00    +0.000 C 
ATOM     20  N   UNL     1       7.479   7.863  17.113  0.00  0.00    +0.000 NA
BRANCH  20  21
ATOM     21  O   UNL     1       7.935   9.140  17.488  0.00  0.00    +0.000 OA
BRANCH  21  22
ATOM     22  C   UNL     1       8.662   9.035  18.719  0.00  0.00    +0.000 C 
BRANCH  22  23
ATOM     23  C   UNL     1       9.395  10.326  18.989  0.00  0.00    +0.000 A 
ATOM     24  C   UNL     1      10.088  10.992  17.968  0.00  0.00    +0.000 A 
ATOM     25  C   UNL     1      10.754  12.192  18.233  0.00  0.00    +0.000 A 
ATOM     26  C   UNL     1      10.747  12.738  19.519  0.00  0.00    +0.000 A 
ATOM     27  C   UNL     1      10.127  12.036  20.555  0.00  0.00    +0.000 A 
ATOM     28  C   UNL     1       9.431  10.855  20.286  0.00  0.00    +0.000 A 
BRANCH  26  29
ATOM     29  O   UNL     1      11.430  13.923  19.673  0.00  0.00    +0.000 OA
BRANCH  29  30
ATOM     30  C   UNL     1      11.079  15.034  18.937  0.00  0.00    +0.000 A 
ATOM     31  C   UNL     1      12.048  15.506  18.047  0.00  0.00    +0.000 A 
ATOM     32  C   UNL     1      11.794  16.632  17.261  0.00  0.00    +0.000 A 
ATOM     33  C   UNL     1      10.570  17.290  17.363  0.00  0.00    +0.000 A 
ATOM     34  C   UNL     1       9.587  16.802  18.219  0.00  0.00    +0.000 A 
ATOM     35  C   UNL     1       9.828  15.657  18.980  0.00  0.00    +0.000 A 
ENDBRANCH  29  30
ENDBRANCH  26  29
ENDBRANCH  22  23
ENDBRANCH  21  22
ENDBRANCH  20  21
ENDBRANCH   1  19
TORSDOF 7
ENDMDL
MODEL 6
REMARK VINA RESULT:      -9.1      5.960     10.247
REMARK  Name = 
REMARK  7 active torsions:
REMARK  status: ('A' for Active; 'I' for Inactive)
REMARK    1  A    between atoms: C_1  and  C_18
REMARK    2  A    between atoms: N_2  and  O_3
REMARK    3  A    between atoms: O_3  and  C_4
REMARK    4  A    between atoms: C_4  and  C_5
REMARK    5  A    between atoms: C_8  and  O_9
REMARK    6  A    between atoms: O_9  and  C_10
REMARK    7  A    between atoms: C_19  and  C_20
REMARK                            x       y       z     vdW  Elec       q    Type
REMARK                         _______ _______ _______ _____ _____    ______ ____
ROOT
ATOM      1  C   UNL     1       6.470   5.517  15.883  0.00  0.00    +0.000 A 
ATOM      2  C   UNL     1       5.358   4.711  16.169  0.00  0.00    +0.000 A 
ATOM      3  N   UNL     1       5.098   3.797  15.145  0.00  0.00    +0.000 NA
ATOM      4  C   UNL     1       5.999   4.103  14.260  0.00  0.00    +0.000 A 
ATOM      5  O   UNL     1       6.304   3.647  13.037  0.00  0.00    +0.000 OA
ATOM      6  C   UNL     1       7.410   4.461  12.660  0.00  0.00    +0.000 A 
ATOM      7  C   UNL     1       7.725   5.342  13.622  0.00  0.00    +0.000 A 
ATOM      8  N   UNL     1       6.825   5.111  14.633  0.00  0.00    +0.000 N 
ENDROOT
BRANCH   2   9
ATOM      9  C   UNL     1       4.529   4.761  17.367  0.00  0.00    +0.000 A 
ATOM     10  C   UNL     1       3.951   5.977  17.746  0.00  0.00    +0.000 A 
ATOM     11  C   UNL     1       3.084   6.042  18.841  0.00  0.00    +0.000 A 
ATOM     12  C   UNL     1       2.779   4.890  19.579  0.00  0.00    +0.000 A 
ATOM     13  C   UNL     1       1.834   4.914  20.617  0.00  0.00    +0.000 A 
ATOM     14  C   UNL     1       1.543   3.758  21.342  0.00  0.00    +0.000 A 
ATOM     15  C   UNL     1       2.225   2.576  21.068  0.00  0.00    +0.000 A 
ATOM     16  C   UNL     1       3.167   2.535  20.039  0.00  0.00    +0.000 A 
ATOM     17  C   UNL     1       3.428   3.676  19.263  0.00  0.00    +0.000 A 
ATOM     18  C   UNL     1       4.305   3.630  18.165  0.00  0.00    +0.000 A 
ENDBRANCH   2   9
BRANCH   1  19
ATOM     19  C   UNL     1       7.125   6.538  16.640  0.00  0.00    +0.000 C 
ATOM     20  N   UNL     1       7.471   6.308  17.865  0.00  0.00    +0.000 NA
BRANCH  20  21
ATOM     21  O   UNL     1       8.177   7.420  18.358  0.00  0.00    +0.000 OA
BRANCH  21  22
ATOM     22  C   UNL     1       7.818   8.579  17.595  0.00  0.00    +0.000 C 
BRANCH  22  23
ATOM     23  C   UNL     1       8.466   9.803  18.192  0.00  0.00    +0.000 A 
ATOM     24  C   UNL     1       9.186   9.728  19.393  0.00  0.00    +0.000 A 
ATOM     25  C   UNL     1       9.788  10.870  19.929  0.00  0.00    +0.000 A 
ATOM     26  C   UNL     1       9.674  12.102  19.281  0.00  0.00    +0.000 A 
ATOM     27  C   UNL     1       8.891  12.197  18.129  0.00  0.00    +0.000 A 
ATOM     28  C   UNL     1       8.316  11.051  17.572  0.00  0.00    +0.000 A 
BRANCH  26  29
ATOM     29  O   UNL     1      10.306  13.162  19.889  0.00  0.00    +0.000 OA
BRANCH  29  30
ATOM     30  C   UNL     1      10.916  14.141  19.134  0.00  0.00    +0.000 A 
ATOM     31  C   UNL     1      11.668  13.689  18.047  0.00  0.00    +0.000 A 
ATOM     32  C   UNL     1      12.333  14.600  17.223  0.00  0.00    +0.000 A 
ATOM     33  C   UNL     1      12.249  15.966  17.486  0.00  0.00    +0.000 A 
ATOM     34  C   UNL     1      11.470  16.424  18.546  0.00  0.00    +0.000 A 
ATOM     35  C   UNL     1      10.778  15.515  19.348  0.00  0.00    +0.000 A 
ENDBRANCH  29  30
ENDBRANCH  26  29
ENDBRANCH  22  23
ENDBRANCH  21  22
ENDBRANCH  20  21
ENDBRANCH   1  19
TORSDOF 7
ENDMDL
MODEL 7
REMARK VINA RESULT:      -9.1      5.824      9.583
REMARK  Name = 
REMARK  7 active torsions:
REMARK  status: ('A' for Active; 'I' for Inactive)
REMARK    1  A    between atoms: C_1  and  C_18
REMARK    2  A    between atoms: N_2  and  O_3
REMARK    3  A    between atoms: O_3  and  C_4
REMARK    4  A    between atoms: C_4  and  C_5
REMARK    5  A    between atoms: C_8  and  O_9
REMARK    6  A    between atoms: O_9  and  C_10
REMARK    7  A    between atoms: C_19  and  C_20
REMARK                            x       y       z     vdW  Elec       q    Type
REMARK                         _______ _______ _______ _____ _____    ______ ____
ROOT
ATOM      1  C   UNL     1       6.375   5.559  16.117  0.00  0.00    +0.000 A 
ATOM      2  C   UNL     1       5.288   4.705  16.354  0.00  0.00    +0.000 A 
ATOM      3  N   UNL     1       5.093   3.802  15.306  0.00  0.00    +0.000 NA
ATOM      4  C   UNL     1       6.007   4.160  14.454  0.00  0.00    +0.000 A 
ATOM      5  O   UNL     1       6.366   3.739  13.233  0.00  0.00    +0.000 OA
ATOM      6  C   UNL     1       7.450   4.603  12.905  0.00  0.00    +0.000 A 
ATOM      7  C   UNL     1       7.702   5.477  13.891  0.00  0.00    +0.000 A 
ATOM      8  N   UNL     1       6.782   5.191  14.870  0.00  0.00    +0.000 N 
ENDROOT
BRANCH   2   9
ATOM      9  C   UNL     1       4.422   4.700  17.527  0.00  0.00    +0.000 A 
ATOM     10  C   UNL     1       3.546   5.771  17.733  0.00  0.00    +0.000 A 
ATOM     11  C   UNL     1       2.644   5.757  18.802  0.00  0.00    +0.000 A 
ATOM     12  C   UNL     1       2.602   4.671  19.686  0.00  0.00    +0.000 A 
ATOM     13  C   UNL     1       1.639   4.590  20.703  0.00  0.00    +0.000 A 
ATOM     14  C   UNL     1       1.612   3.502  21.576  0.00  0.00    +0.000 A 
ATOM     15  C   UNL     1       2.575   2.503  21.470  0.00  0.00    +0.000 A 
ATOM     16  C   UNL     1       3.541   2.567  20.464  0.00  0.00    +0.000 A 
ATOM     17  C   UNL     1       3.544   3.627  19.543  0.00  0.00    +0.000 A 
ATOM     18  C   UNL     1       4.451   3.661  18.469  0.00  0.00    +0.000 A 
ENDBRANCH   2   9
BRANCH   1  19
ATOM     19  C   UNL     1       6.967   6.589  16.912  0.00  0.00    +0.000 C 
ATOM     20  N   UNL     1       7.656   6.276  17.961  0.00  0.00    +0.000 NA
BRANCH  20  21
ATOM     21  O   UNL     1       8.209   7.446  18.512  0.00  0.00    +0.000 OA
BRANCH  21  22
ATOM     22  C   UNL     1       7.831   8.568  17.704  0.00  0.00    +0.000 C 
BRANCH  22  23
ATOM     23  C   UNL     1       8.536   9.809  18.194  0.00  0.00    +0.000 A 
ATOM     24  C   UNL     1       8.447  11.017  17.489  0.00  0.00    +0.000 A 
ATOM     25  C   UNL     1       9.098  12.161  17.961  0.00  0.00    +0.000 A 
ATOM     26  C   UNL     1       9.852  12.112  19.135  0.00  0.00    +0.000 A 
ATOM     27  C   UNL     1      10.009  10.892  19.796  0.00  0.00    +0.000 A 
ATOM     28  C   UNL     1       9.332   9.757  19.346  0.00  0.00    +0.000 A 
BRANCH  26  29
ATOM     29  O   UNL     1      10.450  13.293  19.515  0.00  0.00    +0.000 OA
BRANCH  29  30
ATOM     30  C   UNL     1       9.688  14.355  19.952  0.00  0.00    +0.000 A 
ATOM     31  C   UNL     1       9.059  14.185  21.188  0.00  0.00    +0.000 A 
ATOM     32  C   UNL     1       8.257  15.198  21.717  0.00  0.00    +0.000 A 
ATOM     33  C   UNL     1       8.080  16.386  21.009  0.00  0.00    +0.000 A 
ATOM     34  C   UNL     1       8.736  16.576  19.795  0.00  0.00    +0.000 A 
ATOM     35  C   UNL     1       9.564  15.576  19.283  0.00  0.00    +0.000 A 
ENDBRANCH  29  30
ENDBRANCH  26  29
ENDBRANCH  22  23
ENDBRANCH  21  22
ENDBRANCH  20  21
ENDBRANCH   1  19
TORSDOF 7
ENDMDL
MODEL 8
REMARK VINA RESULT:      -9.1      1.581      2.157
REMARK  Name = 
REMARK  7 active torsions:
REMARK  status: ('A' for Active; 'I' for Inactive)
REMARK    1  A    between atoms: C_1  and  C_18
REMARK    2  A    between atoms: N_2  and  O_3
REMARK    3  A    between atoms: O_3  and  C_4
REMARK    4  A    between atoms: C_4  and  C_5
REMARK    5  A    between atoms: C_8  and  O_9
REMARK    6  A    between atoms: O_9  and  C_10
REMARK    7  A    between atoms: C_19  and  C_20
REMARK                            x       y       z     vdW  Elec       q    Type
REMARK                         _______ _______ _______ _____ _____    ______ ____
ROOT
ATOM      1  C   UNL     1       3.051   5.038  18.659  0.00  0.00    +0.000 A 
ATOM      2  C   UNL     1       4.142   4.285  18.201  0.00  0.00    +0.000 A 
ATOM      3  N   UNL     1       4.378   3.166  19.002  0.00  0.00    +0.000 NA
ATOM      4  C   UNL     1       3.485   3.297  19.937  0.00  0.00    +0.000 A 
ATOM      5  O   UNL     1       3.167   2.595  21.035  0.00  0.00    +0.000 OA
ATOM      6  C   UNL     1       2.082   3.337  21.584  0.00  0.00    +0.000 A 
ATOM      7  C   UNL     1       1.790   4.412  20.836  0.00  0.00    +0.000 A 
ATOM      8  N   UNL     1       2.685   4.381  19.795  0.00  0.00    +0.000 N 
ENDROOT
BRANCH   2   9
ATOM      9  C   UNL     1       4.972   4.572  17.038  0.00  0.00    +0.000 A 
ATOM     10  C   UNL     1       6.043   5.461  17.167  0.00  0.00    +0.000 A 
ATOM     11  C   UNL     1       6.910   5.693  16.094  0.00  0.00    +0.000 A 
ATOM     12  C   UNL     1       6.719   5.039  14.869  0.00  0.00    +0.000 A 
ATOM     13  C   UNL     1       7.633   5.180  13.813  0.00  0.00    +0.000 A 
ATOM     14  C   UNL     1       7.428   4.522  12.600  0.00  0.00    +0.000 A 
ATOM     15  C   UNL     1       6.284   3.752  12.413  0.00  0.00    +0.000 A 
ATOM     16  C   UNL     1       5.365   3.601  13.452  0.00  0.00    +0.000 A 
ATOM     17  C   UNL     1       5.589   4.210  14.698  0.00  0.00    +0.000 A 
ATOM     18  C   UNL     1       4.722   3.995  15.783  0.00  0.00    +0.000 A 
ENDBRANCH   2   9
BRANCH   1  19
ATOM     19  C   UNL     1       2.422   6.215  18.143  0.00  0.00    +0.000 C 
ATOM     20  N   UNL     1       3.103   7.308  18.025  0.00  0.00    +0.000 NA
BRANCH  20  21
ATOM     21  O   UNL     1       2.298   8.284  17.411  0.00  0.00    +0.000 OA
BRANCH  21  22
ATOM     22  C   UNL     1       2.674   9.578  17.900  0.00  0.00    +0.000 C 
BRANCH  22  23
ATOM     23  C   UNL     1       1.441  10.349  18.302  0.00  0.00    +0.000 A 
ATOM     24  C   UNL     1       0.172   9.755  18.263  0.00  0.00    +0.000 A 
ATOM     25  C   UNL     1      -0.960  10.480  18.647  0.00  0.00    +0.000 A 
ATOM     26  C   UNL     1      -0.843  11.808  19.064  0.00  0.00    +0.000 A 
ATOM     27  C   UNL     1       0.408  12.428  19.027  0.00  0.00    +0.000 A 
ATOM     28  C   UNL     1       1.545  11.695  18.677  0.00  0.00    +0.000 A 
BRANCH  26  29
ATOM     29  O   UNL     1      -2.016  12.432  19.423  0.00  0.00    +0.000 OA
BRANCH  29  30
ATOM     30  C   UNL     1      -2.443  12.420  20.734  0.00  0.00    +0.000 A 
ATOM     31  C   UNL     1      -1.523  11.938  21.670  0.00  0.00    +0.000 A 
ATOM     32  C   UNL     1      -1.860  11.877  23.023  0.00  0.00    +0.000 A 
ATOM     33  C   UNL     1      -3.121  12.296  23.445  0.00  0.00    +0.000 A 
ATOM     34  C   UNL     1      -4.027  12.813  22.523  0.00  0.00    +0.000 A 
ATOM     35  C   UNL     1      -3.677  12.905  21.175  0.00  0.00    +0.000 A 
ENDBRANCH  29  30
ENDBRANCH  26  29
ENDBRANCH  22  23
ENDBRANCH  21  22
ENDBRANCH  20  21
ENDBRANCH   1  19
TORSDOF 7
ENDMDL
MODEL 9
REMARK VINA RESULT:      -9.0      0.732      1.142
REMARK  Name = 
REMARK  7 active torsions:
REMARK  status: ('A' for Active; 'I' for Inactive)
REMARK    1  A    between atoms: C_1  and  C_18
REMARK    2  A    between atoms: N_2  and  O_3
REMARK    3  A    between atoms: O_3  and  C_4
REMARK    4  A    between atoms: C_4  and  C_5
REMARK    5  A    between atoms: C_8  and  O_9
REMARK    6  A    between atoms: O_9  and  C_10
REMARK    7  A    between atoms: C_19  and  C_20
REMARK                            x       y       z     vdW  Elec       q    Type
REMARK                         _______ _______ _______ _____ _____    ______ ____
ROOT
ATOM      1  C   UNL     1       3.074   4.822  18.648  0.00  0.00    +0.000 A 
ATOM      2  C   UNL     1       4.238   4.153  18.241  0.00  0.00    +0.000 A 
ATOM      3  N   UNL     1       4.560   3.097  19.096  0.00  0.00    +0.000 NA
ATOM      4  C   UNL     1       3.641   3.185  20.010  0.00  0.00    +0.000 A 
ATOM      5  O   UNL     1       3.367   2.506  21.133  0.00  0.00    +0.000 OA
ATOM      6  C   UNL     1       2.208   3.168  21.631  0.00  0.00    +0.000 A 
ATOM      7  C   UNL     1       1.834   4.178  20.831  0.00  0.00    +0.000 A 
ATOM      8  N   UNL     1       2.748   4.184  19.806  0.00  0.00    +0.000 N 
ENDROOT
BRANCH   2   9
ATOM      9  C   UNL     1       5.062   4.464  17.079  0.00  0.00    +0.000 A 
ATOM     10  C   UNL     1       6.159   5.318  17.229  0.00  0.00    +0.000 A 
ATOM     11  C   UNL     1       7.017   5.570  16.155  0.00  0.00    +0.000 A 
ATOM     12  C   UNL     1       6.793   4.972  14.907  0.00  0.00    +0.000 A 
ATOM     13  C   UNL     1       7.697   5.131  13.846  0.00  0.00    +0.000 A 
ATOM     14  C   UNL     1       7.458   4.529  12.610  0.00  0.00    +0.000 A 
ATOM     15  C   UNL     1       6.291   3.799  12.407  0.00  0.00    +0.000 A 
ATOM     16  C   UNL     1       5.382   3.631  13.452  0.00  0.00    +0.000 A 
ATOM     17  C   UNL     1       5.638   4.182  14.718  0.00  0.00    +0.000 A 
ATOM     18  C   UNL     1       4.779   3.947  15.806  0.00  0.00    +0.000 A 
ENDBRANCH   2   9
BRANCH   1  19
ATOM     19  C   UNL     1       2.351   5.912  18.070  0.00  0.00    +0.000 C 
ATOM     20  N   UNL     1       2.605   7.123  18.446  0.00  0.00    +0.000 NA
BRANCH  20  21
ATOM     21  O   UNL     1       1.839   8.013  17.670  0.00  0.00    +0.000 OA
BRANCH  21  22
ATOM     22  C   UNL     1       2.135   9.357  18.070  0.00  0.00    +0.000 C 
BRANCH  22  23
ATOM     23  C   UNL     1       0.862  10.063  18.466  0.00  0.00    +0.000 A 
ATOM     24  C   UNL     1       0.850  11.004  19.504  0.00  0.00    +0.000 A 
ATOM     25  C   UNL     1      -0.336  11.657  19.853  0.00  0.00    +0.000 A 
ATOM     26  C   UNL     1      -1.526  11.373  19.179  0.00  0.00    +0.000 A 
ATOM     27  C   UNL     1      -1.534  10.378  18.199  0.00  0.00    +0.000 A 
ATOM     28  C   UNL     1      -0.344   9.749  17.825  0.00  0.00    +0.000 A 
BRANCH  26  29
ATOM     29  O   UNL     1      -2.636  12.071  19.596  0.00  0.00    +0.000 OA
BRANCH  29  30
ATOM     30  C   UNL     1      -3.845  11.916  18.952  0.00  0.00    +0.000 A 
ATOM     31  C   UNL     1      -4.978  12.256  19.695  0.00  0.00    +0.000 A 
ATOM     32  C   UNL     1      -6.252  12.127  19.136  0.00  0.00    +0.000 A 
ATOM     33  C   UNL     1      -6.395  11.655  17.832  0.00  0.00    +0.000 A 
ATOM     34  C   UNL     1      -5.267  11.351  17.075  0.00  0.00    +0.000 A 
ATOM     35  C   UNL     1      -3.993  11.512  17.622  0.00  0.00    +0.000 A 
ENDBRANCH  29  30
ENDBRANCH  26  29
ENDBRANCH  22  23
ENDBRANCH  21  22
ENDBRANCH  20  21
ENDBRANCH   1  19
TORSDOF 7
ENDMDL
