MODEL 1
REMARK VINA RESULT:      -8.3      0.000      0.000
REMARK  Name = 
REMARK  2 active torsions:
REMARK  status: ('A' for Active; 'I' for Inactive)
REMARK    1  A    between atoms: C_6  and  C_7
REMARK    2  A    between atoms: C_13  and  C_14
REMARK                            x       y       z     vdW  Elec       q    Type
REMARK                         _______ _______ _______ _____ _____    ______ ____
ROOT
ATOM      1  C   UNL     1       4.374   3.783  18.617  0.00  0.00    +0.000 A 
ATOM      2  N   UNL     1       4.255   2.602  19.205  0.00  0.00    +0.000 NA
ATOM      3  N   UNL     1       3.332   2.697  20.218  0.00  0.00    +0.000 NA
ATOM      4  C   UNL     1       2.872   3.925  20.221  0.00  0.00    +0.000 A 
ATOM      5  C   UNL     1       1.919   4.589  21.037  0.00  0.00    +0.000 A 
ATOM      6  C   UNL     1       1.611   5.874  20.787  0.00  0.00    +0.000 A 
ATOM      7  C   UNL     1       2.212   6.628  19.675  0.00  0.00    +0.000 A 
ATOM      8  C   UNL     1       3.115   5.971  18.911  0.00  0.00    +0.000 A 
ATOM      9  N   UNL     1       3.461   4.652  19.198  0.00  0.00    +0.000 N 
ENDROOT
BRANCH   1  15
ATOM     10 CL   UNL     1       5.436   3.964  13.520  0.00  0.00    +0.000 Cl
ATOM     11  C   UNL     1       5.879   4.207  15.165  0.00  0.00    +0.000 A 
ATOM     12  C   UNL     1       7.148   4.682  15.478  0.00  0.00    +0.000 A 
ATOM     13  C   UNL     1       7.499   4.879  16.812  0.00  0.00    +0.000 A 
ATOM     14  C   UNL     1       6.583   4.578  17.826  0.00  0.00    +0.000 A 
ATOM     15  C   UNL     1       5.307   4.079  17.523  0.00  0.00    +0.000 A 
ATOM     16  C   UNL     1       4.957   3.926  16.174  0.00  0.00    +0.000 A 
ENDBRANCH   1  15
BRANCH   7  17
ATOM     17  C   UNL     1       1.873   8.040  19.363  0.00  0.00    +0.000 A 
ATOM     18  N   UNL     1       2.246   8.537  18.165  0.00  0.00    +0.000 NA
ATOM     19  C   UNL     1       1.903   9.813  17.911  0.00  0.00    +0.000 A 
ATOM     20  C   UNL     1       1.214  10.602  18.802  0.00  0.00    +0.000 A 
ATOM     21  C   UNL     1       0.891  10.006  19.997  0.00  0.00    +0.000 A 
ATOM     22  N   UNL     1       1.206   8.734  20.303  0.00  0.00    +0.000 NA
ENDBRANCH   7  17
TORSDOF 2
ENDMDL
MODEL 2
REMARK VINA RESULT:      -8.2      0.059      1.006
REMARK  Name = 
REMARK  2 active torsions:
REMARK  status: ('A' for Active; 'I' for Inactive)
REMARK    1  A    between atoms: C_6  and  C_7
REMARK    2  A    between atoms: C_13  and  C_14
REMARK                            x       y       z     vdW  Elec       q    Type
REMARK                         _______ _______ _______ _____ _____    ______ ____
ROOT
ATOM      1  C   UNL     1       4.386   3.796  18.566  0.00  0.00    +0.000 A 
ATOM      2  N   UNL     1       4.280   2.610  19.145  0.00  0.00    +0.000 NA
ATOM      3  N   UNL     1       3.359   2.688  20.162  0.00  0.00    +0.000 NA
ATOM      4  C   UNL     1       2.889   3.912  20.177  0.00  0.00    +0.000 A 
ATOM      5  C   UNL     1       1.933   4.562  21.002  0.00  0.00    +0.000 A 
ATOM      6  C   UNL     1       1.613   5.846  20.764  0.00  0.00    +0.000 A 
ATOM      7  C   UNL     1       2.204   6.614  19.655  0.00  0.00    +0.000 A 
ATOM      8  C   UNL     1       3.109   5.971  18.883  0.00  0.00    +0.000 A 
ATOM      9  N   UNL     1       3.468   4.652  19.157  0.00  0.00    +0.000 N 
ENDROOT
BRANCH   1  15
ATOM     10 CL   UNL     1       5.475   3.909  13.473  0.00  0.00    +0.000 Cl
ATOM     11  C   UNL     1       5.895   4.209  15.114  0.00  0.00    +0.000 A 
ATOM     12  C   UNL     1       7.139   4.748  15.424  0.00  0.00    +0.000 A 
ATOM     13  C   UNL     1       7.471   4.991  16.755  0.00  0.00    +0.000 A 
ATOM     14  C   UNL     1       6.563   4.673  17.770  0.00  0.00    +0.000 A 
ATOM     15  C   UNL     1       5.312   4.109  17.471  0.00  0.00    +0.000 A 
ATOM     16  C   UNL     1       4.979   3.910  16.124  0.00  0.00    +0.000 A 
ENDBRANCH   1  15
BRANCH   7  17
ATOM     17  C   UNL     1       1.851   8.026  19.356  0.00  0.00    +0.000 A 
ATOM     18  N   UNL     1       1.194   8.733  20.300  0.00  0.00    +0.000 NA
ATOM     19  C   UNL     1       0.910  10.014  20.000  0.00  0.00    +0.000 A 
ATOM     20  C   UNL     1       1.250  10.604  18.806  0.00  0.00    +0.000 A 
ATOM     21  C   UNL     1       1.907   9.796  17.911  0.00  0.00    +0.000 A 
ATOM     22  N   UNL     1       2.219   8.510  18.157  0.00  0.00    +0.000 NA
ENDBRANCH   7  17
TORSDOF 2
ENDMDL
MODEL 3
REMARK VINA RESULT:      -7.8      3.238      5.480
REMARK  Name = 
REMARK  2 active torsions:
REMARK  status: ('A' for Active; 'I' for Inactive)
REMARK    1  A    between atoms: C_6  and  C_7
REMARK    2  A    between atoms: C_13  and  C_14
REMARK                            x       y       z     vdW  Elec       q    Type
REMARK                         _______ _______ _______ _____ _____    ______ ____
ROOT
ATOM      1  C   UNL     1       6.358   4.657  14.479  0.00  0.00    +0.000 A 
ATOM      2  N   UNL     1       7.481   5.359  14.473  0.00  0.00    +0.000 NA
ATOM      3  N   UNL     1       7.640   5.961  15.697  0.00  0.00    +0.000 NA
ATOM      4  C   UNL     1       6.631   5.598  16.452  0.00  0.00    +0.000 A 
ATOM      5  C   UNL     1       6.272   5.911  17.789  0.00  0.00    +0.000 A 
ATOM      6  C   UNL     1       5.173   5.357  18.330  0.00  0.00    +0.000 A 
ATOM      7  C   UNL     1       4.322   4.409  17.591  0.00  0.00    +0.000 A 
ATOM      8  C   UNL     1       4.688   4.125  16.320  0.00  0.00    +0.000 A 
ATOM      9  N   UNL     1       5.805   4.732  15.750  0.00  0.00    +0.000 N 
ENDROOT
BRANCH   1  15
ATOM     10 CL   UNL     1       6.902   0.931  10.879  0.00  0.00    +0.000 Cl
ATOM     11  C   UNL     1       5.998   2.192  11.623  0.00  0.00    +0.000 A 
ATOM     12  C   UNL     1       4.746   2.535  11.124  0.00  0.00    +0.000 A 
ATOM     13  C   UNL     1       4.019   3.555  11.734  0.00  0.00    +0.000 A 
ATOM     14  C   UNL     1       4.559   4.240  12.827  0.00  0.00    +0.000 A 
ATOM     15  C   UNL     1       5.831   3.917  13.326  0.00  0.00    +0.000 A 
ATOM     16  C   UNL     1       6.530   2.860  12.727  0.00  0.00    +0.000 A 
ENDBRANCH   1  15
BRANCH   7  17
ATOM     17  C   UNL     1       3.116   3.765  18.172  0.00  0.00    +0.000 A 
ATOM     18  N   UNL     1       2.294   4.519  18.933  0.00  0.00    +0.000 NA
ATOM     19  C   UNL     1       1.202   3.906  19.424  0.00  0.00    +0.000 A 
ATOM     20  C   UNL     1       0.907   2.583  19.191  0.00  0.00    +0.000 A 
ATOM     21  C   UNL     1       1.813   1.902  18.415  0.00  0.00    +0.000 A 
ATOM     22  N   UNL     1       2.920   2.464  17.895  0.00  0.00    +0.000 NA
ENDBRANCH   7  17
TORSDOF 2
ENDMDL
MODEL 4
REMARK VINA RESULT:      -7.8      3.225      5.459
REMARK  Name = 
REMARK  2 active torsions:
REMARK  status: ('A' for Active; 'I' for Inactive)
REMARK    1  A    between atoms: C_6  and  C_7
REMARK    2  A    between atoms: C_13  and  C_14
REMARK                            x       y       z     vdW  Elec       q    Type
REMARK                         _______ _______ _______ _____ _____    ______ ____
ROOT
ATOM      1  C   UNL     1       6.342   4.598  14.381  0.00  0.00    +0.000 A 
ATOM      2  N   UNL     1       7.476   5.281  14.360  0.00  0.00    +0.000 NA
ATOM      3  N   UNL     1       7.656   5.890  15.578  0.00  0.00    +0.000 NA
ATOM      4  C   UNL     1       6.646   5.551  16.344  0.00  0.00    +0.000 A 
ATOM      5  C   UNL     1       6.304   5.882  17.681  0.00  0.00    +0.000 A 
ATOM      6  C   UNL     1       5.199   5.351  18.235  0.00  0.00    +0.000 A 
ATOM      7  C   UNL     1       4.326   4.411  17.511  0.00  0.00    +0.000 A 
ATOM      8  C   UNL     1       4.677   4.110  16.240  0.00  0.00    +0.000 A 
ATOM      9  N   UNL     1       5.801   4.693  15.656  0.00  0.00    +0.000 N 
ENDROOT
BRANCH   1  15
ATOM     10 CL   UNL     1       6.718   0.730  10.912  0.00  0.00    +0.000 Cl
ATOM     11  C   UNL     1       5.884   2.071  11.594  0.00  0.00    +0.000 A 
ATOM     12  C   UNL     1       4.669   2.480  11.054  0.00  0.00    +0.000 A 
ATOM     13  C   UNL     1       3.998   3.565  11.613  0.00  0.00    +0.000 A 
ATOM     14  C   UNL     1       4.558   4.248  12.698  0.00  0.00    +0.000 A 
ATOM     15  C   UNL     1       5.793   3.858  13.239  0.00  0.00    +0.000 A 
ATOM     16  C   UNL     1       6.434   2.738  12.689  0.00  0.00    +0.000 A 
ENDBRANCH   1  15
BRANCH   7  17
ATOM     17  C   UNL     1       3.114   3.793  18.106  0.00  0.00    +0.000 A 
ATOM     18  N   UNL     1       2.856   2.498  17.829  0.00  0.00    +0.000 NA
ATOM     19  C   UNL     1       1.761   1.968  18.403  0.00  0.00    +0.000 A 
ATOM     20  C   UNL     1       0.921   2.678  19.229  0.00  0.00    +0.000 A 
ATOM     21  C   UNL     1       1.266   3.991  19.438  0.00  0.00    +0.000 A 
ATOM     22  N   UNL     1       2.351   4.573  18.892  0.00  0.00    +0.000 NA
ENDBRANCH   7  17
TORSDOF 2
ENDMDL
MODEL 5
REMARK VINA RESULT:      -7.7      1.442      1.749
REMARK  Name = 
REMARK  2 active torsions:
REMARK  status: ('A' for Active; 'I' for Inactive)
REMARK    1  A    between atoms: C_6  and  C_7
REMARK    2  A    between atoms: C_13  and  C_14
REMARK                            x       y       z     vdW  Elec       q    Type
REMARK                         _______ _______ _______ _____ _____    ______ ____
ROOT
ATOM      1  C   UNL     1       4.244   3.843  18.407  0.00  0.00    +0.000 A 
ATOM      2  N   UNL     1       4.123   2.547  18.652  0.00  0.00    +0.000 NA
ATOM      3  N   UNL     1       3.153   2.360  19.605  0.00  0.00    +0.000 NA
ATOM      4  C   UNL     1       2.667   3.538  19.914  0.00  0.00    +0.000 A 
ATOM      5  C   UNL     1       1.664   3.952  20.829  0.00  0.00    +0.000 A 
ATOM      6  C   UNL     1       1.341   5.255  20.916  0.00  0.00    +0.000 A 
ATOM      7  C   UNL     1       1.977   6.284  20.077  0.00  0.00    +0.000 A 
ATOM      8  C   UNL     1       2.927   5.863  19.211  0.00  0.00    +0.000 A 
ATOM      9  N   UNL     1       3.288   4.517  19.152  0.00  0.00    +0.000 N 
ENDROOT
BRANCH   1  15
ATOM     10 CL   UNL     1       7.806   7.484  17.314  0.00  0.00    +0.000 Cl
ATOM     11  C   UNL     1       6.903   6.081  16.895  0.00  0.00    +0.000 A 
ATOM     12  C   UNL     1       7.083   5.486  15.650  0.00  0.00    +0.000 A 
ATOM     13  C   UNL     1       6.350   4.349  15.320  0.00  0.00    +0.000 A 
ATOM     14  C   UNL     1       5.425   3.825  16.229  0.00  0.00    +0.000 A 
ATOM     15  C   UNL     1       5.220   4.429  17.480  0.00  0.00    +0.000 A 
ATOM     16  C   UNL     1       5.996   5.548  17.812  0.00  0.00    +0.000 A 
ENDBRANCH   1  15
BRANCH   7  17
ATOM     17  C   UNL     1       1.622   7.725  20.137  0.00  0.00    +0.000 A 
ATOM     18  N   UNL     1       1.705   8.451  19.002  0.00  0.00    +0.000 NA
ATOM     19  C   UNL     1       1.356   9.748  19.092  0.00  0.00    +0.000 A 
ATOM     20  C   UNL     1       0.939  10.339  20.261  0.00  0.00    +0.000 A 
ATOM     21  C   UNL     1       0.900   9.517  21.361  0.00  0.00    +0.000 A 
ATOM     22  N   UNL     1       1.235   8.213  21.329  0.00  0.00    +0.000 NA
ENDBRANCH   7  17
TORSDOF 2
ENDMDL
MODEL 6
REMARK VINA RESULT:      -7.6      1.465      2.017
REMARK  Name = 
REMARK  2 active torsions:
REMARK  status: ('A' for Active; 'I' for Inactive)
REMARK    1  A    between atoms: C_6  and  C_7
REMARK    2  A    between atoms: C_13  and  C_14
REMARK                            x       y       z     vdW  Elec       q    Type
REMARK                         _______ _______ _______ _____ _____    ______ ____
ROOT
ATOM      1  C   UNL     1       4.218   3.809  18.344  0.00  0.00    +0.000 A 
ATOM      2  N   UNL     1       4.082   2.508  18.556  0.00  0.00    +0.000 NA
ATOM      3  N   UNL     1       3.094   2.307  19.489  0.00  0.00    +0.000 NA
ATOM      4  C   UNL     1       2.615   3.483  19.819  0.00  0.00    +0.000 A 
ATOM      5  C   UNL     1       1.601   3.884  20.728  0.00  0.00    +0.000 A 
ATOM      6  C   UNL     1       1.288   5.187  20.842  0.00  0.00    +0.000 A 
ATOM      7  C   UNL     1       1.947   6.230  20.038  0.00  0.00    +0.000 A 
ATOM      8  C   UNL     1       2.907   5.821  19.177  0.00  0.00    +0.000 A 
ATOM      9  N   UNL     1       3.256   4.474  19.091  0.00  0.00    +0.000 N 
ENDROOT
BRANCH   1  15
ATOM     10 CL   UNL     1       7.751   7.507  17.353  0.00  0.00    +0.000 Cl
ATOM     11  C   UNL     1       6.887   6.086  16.910  0.00  0.00    +0.000 A 
ATOM     12  C   UNL     1       7.119   5.490  15.676  0.00  0.00    +0.000 A 
ATOM     13  C   UNL     1       6.417   4.338  15.326  0.00  0.00    +0.000 A 
ATOM     14  C   UNL     1       5.471   3.802  16.207  0.00  0.00    +0.000 A 
ATOM     15  C   UNL     1       5.214   4.407  17.447  0.00  0.00    +0.000 A 
ATOM     16  C   UNL     1       5.959   5.542  17.799  0.00  0.00    +0.000 A 
ENDBRANCH   1  15
BRANCH   7  17
ATOM     17  C   UNL     1       1.605   7.673  20.128  0.00  0.00    +0.000 A 
ATOM     18  N   UNL     1       1.203   8.160  21.321  0.00  0.00    +0.000 NA
ATOM     19  C   UNL     1       0.922   9.475  21.367  0.00  0.00    +0.000 A 
ATOM     20  C   UNL     1       1.021  10.309  20.278  0.00  0.00    +0.000 A 
ATOM     21  C   UNL     1       1.427   9.712  19.110  0.00  0.00    +0.000 A 
ATOM     22  N   UNL     1       1.724   8.403  19.005  0.00  0.00    +0.000 NA
ENDBRANCH   7  17
TORSDOF 2
ENDMDL
MODEL 7
REMARK VINA RESULT:      -7.6      3.357      5.668
REMARK  Name = 
REMARK  2 active torsions:
REMARK  status: ('A' for Active; 'I' for Inactive)
REMARK    1  A    between atoms: C_6  and  C_7
REMARK    2  A    between atoms: C_13  and  C_14
REMARK                            x       y       z     vdW  Elec       q    Type
REMARK                         _______ _______ _______ _____ _____    ______ ____
ROOT
ATOM      1  C   UNL     1       6.454   4.441  14.063  0.00  0.00    +0.000 A 
ATOM      2  N   UNL     1       7.557   5.174  14.023  0.00  0.00    +0.000 NA
ATOM      3  N   UNL     1       7.699   5.836  15.218  0.00  0.00    +0.000 NA
ATOM      4  C   UNL     1       6.700   5.481  15.989  0.00  0.00    +0.000 A 
ATOM      5  C   UNL     1       6.333   5.846  17.311  0.00  0.00    +0.000 A 
ATOM      6  C   UNL     1       5.249   5.287  17.878  0.00  0.00    +0.000 A 
ATOM      7  C   UNL     1       4.425   4.282  17.185  0.00  0.00    +0.000 A 
ATOM      8  C   UNL     1       4.798   3.949  15.928  0.00  0.00    +0.000 A 
ATOM      9  N   UNL     1       5.899   4.561  15.329  0.00  0.00    +0.000 N 
ENDROOT
BRANCH   1  15
ATOM     10 CL   UNL     1       2.869   3.579  10.382  0.00  0.00    +0.000 Cl
ATOM     11  C   UNL     1       4.329   3.167  11.195  0.00  0.00    +0.000 A 
ATOM     12  C   UNL     1       5.048   2.043  10.803  0.00  0.00    +0.000 A 
ATOM     13  C   UNL     1       6.230   1.718  11.464  0.00  0.00    +0.000 A 
ATOM     14  C   UNL     1       6.675   2.509  12.528  0.00  0.00    +0.000 A 
ATOM     15  C   UNL     1       5.948   3.635  12.946  0.00  0.00    +0.000 A 
ATOM     16  C   UNL     1       4.782   3.970  12.243  0.00  0.00    +0.000 A 
ENDBRANCH   1  15
BRANCH   7  17
ATOM     17  C   UNL     1       3.237   3.633  17.796  0.00  0.00    +0.000 A 
ATOM     18  N   UNL     1       3.226   2.287  17.897  0.00  0.00    +0.000 NA
ATOM     19  C   UNL     1       2.142   1.737  18.475  0.00  0.00    +0.000 A 
ATOM     20  C   UNL     1       1.080   2.473  18.944  0.00  0.00    +0.000 A 
ATOM     21  C   UNL     1       1.184   3.834  18.783  0.00  0.00    +0.000 A 
ATOM     22  N   UNL     1       2.245   4.438  18.216  0.00  0.00    +0.000 NA
ENDBRANCH   7  17
TORSDOF 2
ENDMDL
MODEL 8
REMARK VINA RESULT:      -7.6      3.376      5.704
REMARK  Name = 
REMARK  2 active torsions:
REMARK  status: ('A' for Active; 'I' for Inactive)
REMARK    1  A    between atoms: C_6  and  C_7
REMARK    2  A    between atoms: C_13  and  C_14
REMARK                            x       y       z     vdW  Elec       q    Type
REMARK                         _______ _______ _______ _____ _____    ______ ____
ROOT
ATOM      1  C   UNL     1       6.450   4.447  14.063  0.00  0.00    +0.000 A 
ATOM      2  N   UNL     1       7.555   5.177  14.021  0.00  0.00    +0.000 NA
ATOM      3  N   UNL     1       7.702   5.837  15.217  0.00  0.00    +0.000 NA
ATOM      4  C   UNL     1       6.705   5.483  15.990  0.00  0.00    +0.000 A 
ATOM      5  C   UNL     1       6.342   5.847  17.314  0.00  0.00    +0.000 A 
ATOM      6  C   UNL     1       5.258   5.290  17.883  0.00  0.00    +0.000 A 
ATOM      7  C   UNL     1       4.430   4.288  17.191  0.00  0.00    +0.000 A 
ATOM      8  C   UNL     1       4.799   3.957  15.933  0.00  0.00    +0.000 A 
ATOM      9  N   UNL     1       5.899   4.566  15.332  0.00  0.00    +0.000 N 
ENDROOT
BRANCH   1  15
ATOM     10 CL   UNL     1       2.885   3.633  10.353  0.00  0.00    +0.000 Cl
ATOM     11  C   UNL     1       4.328   3.197  11.183  0.00  0.00    +0.000 A 
ATOM     12  C   UNL     1       5.027   2.056  10.805  0.00  0.00    +0.000 A 
ATOM     13  C   UNL     1       6.196   1.711  11.480  0.00  0.00    +0.000 A 
ATOM     14  C   UNL     1       6.647   2.500  12.544  0.00  0.00    +0.000 A 
ATOM     15  C   UNL     1       5.938   3.643  12.947  0.00  0.00    +0.000 A 
ATOM     16  C   UNL     1       4.787   3.997  12.230  0.00  0.00    +0.000 A 
ENDBRANCH   1  15
BRANCH   7  17
ATOM     17  C   UNL     1       3.242   3.642  17.805  0.00  0.00    +0.000 A 
ATOM     18  N   UNL     1       2.208   4.426  18.175  0.00  0.00    +0.000 NA
ATOM     19  C   UNL     1       1.142   3.801  18.708  0.00  0.00    +0.000 A 
ATOM     20  C   UNL     1       1.075   2.440  18.888  0.00  0.00    +0.000 A 
ATOM     21  C   UNL     1       2.184   1.734  18.490  0.00  0.00    +0.000 A 
ATOM     22  N   UNL     1       3.276   2.305  17.948  0.00  0.00    +0.000 NA
ENDBRANCH   7  17
TORSDOF 2
ENDMDL
MODEL 9
REMARK VINA RESULT:      -7.6      3.863      7.889
REMARK  Name = 
REMARK  2 active torsions:
REMARK  status: ('A' for Active; 'I' for Inactive)
REMARK    1  A    between atoms: C_6  and  C_7
REMARK    2  A    between atoms: C_13  and  C_14
REMARK                            x       y       z     vdW  Elec       q    Type
REMARK                         _______ _______ _______ _____ _____    ______ ____
ROOT
ATOM      1  C   UNL     1       1.239   9.567  19.561  0.00  0.00    +0.000 A 
ATOM      2  N   UNL     1       1.384  10.417  18.556  0.00  0.00    +0.000 NA
ATOM      3  N   UNL     1       2.156   9.833  17.582  0.00  0.00    +0.000 NA
ATOM      4  C   UNL     1       2.452   8.620  17.985  0.00  0.00    +0.000 A 
ATOM      5  C   UNL     1       3.217   7.576  17.402  0.00  0.00    +0.000 A 
ATOM      6  C   UNL     1       3.328   6.398  18.041  0.00  0.00    +0.000 A 
ATOM      7  C   UNL     1       2.665   6.131  19.328  0.00  0.00    +0.000 A 
ATOM      8  C   UNL     1       1.939   7.142  19.860  0.00  0.00    +0.000 A 
ATOM      9  N   UNL     1       1.859   8.375  19.215  0.00  0.00    +0.000 N 
ENDROOT
BRANCH   1  15
ATOM     10 CL   UNL     1      -2.382  12.285  22.139  0.00  0.00    +0.000 Cl
ATOM     11  C   UNL     1      -1.161  11.074  22.078  0.00  0.00    +0.000 A 
ATOM     12  C   UNL     1      -0.833  10.361  23.226  0.00  0.00    +0.000 A 
ATOM     13  C   UNL     1       0.155   9.381  23.168  0.00  0.00    +0.000 A 
ATOM     14  C   UNL     1       0.824   9.134  21.965  0.00  0.00    +0.000 A 
ATOM     15  C   UNL     1       0.517   9.862  20.804  0.00  0.00    +0.000 A 
ATOM     16  C   UNL     1      -0.508  10.816  20.871  0.00  0.00    +0.000 A 
ENDBRANCH   1  15
BRANCH   7  17
ATOM     17  C   UNL     1       2.752   4.833  20.042  0.00  0.00    +0.000 A 
ATOM     18  N   UNL     1       1.943   4.631  21.103  0.00  0.00    +0.000 NA
ATOM     19  C   UNL     1       2.037   3.435  21.712  0.00  0.00    +0.000 A 
ATOM     20  C   UNL     1       2.903   2.447  21.308  0.00  0.00    +0.000 A 
ATOM     21  C   UNL     1       3.692   2.756  20.226  0.00  0.00    +0.000 A 
ATOM     22  N   UNL     1       3.638   3.934  19.577  0.00  0.00    +0.000 NA
ENDBRANCH   7  17
TORSDOF 2
ENDMDL
