MODEL 1
REMARK VINA RESULT:      -6.3      0.000      0.000
REMARK  Name = 
REMARK  5 active torsions:
REMARK  status: ('A' for Active; 'I' for Inactive)
REMARK    1  A    between atoms: C_1  and  C_2
REMARK    2  A    between atoms: N_8  and  C_9
REMARK    3  A    between atoms: C_9  and  C_10
REMARK    4  A    between atoms: C_25  and  C_26
REMARK    5  A    between atoms: C_25  and  C_27
REMARK                            x       y       z     vdW  Elec       q    Type
REMARK                         _______ _______ _______ _____ _____    ______ ____
ROOT
ATOM      1  C   UNL     1      11.413  11.402  18.199  0.00  0.00    +0.000 C 
ATOM      2  C   UNL     1      10.154  12.274  17.996  0.00  0.00    +0.000 C 
ATOM      3  S   UNL     1       9.351  11.010  19.374  0.00  0.00    +0.000 S 
ATOM      4  S   UNL     1       9.781  12.012  21.078  0.00  0.00    +0.000 S 
ATOM      5  C   UNL     1       9.546  13.720  20.451  0.00  0.00    +0.000 C 
ATOM      6  C   UNL     1      10.848  14.094  19.638  0.00  0.00    +0.000 C 
ATOM      7  O   UNL     1      11.811  14.694  20.093  0.00  0.00    +0.000 OA
ATOM      8  N   UNL     1      10.839  13.563  18.348  0.00  0.00    +0.000 N 
ATOM      9  N   UNL     1       8.534  13.772  19.350  0.00  0.00    +0.000 N 
ATOM     10  C   UNL     1       8.720  13.063  18.135  0.00  0.00    +0.000 C 
ATOM     11  O   UNL     1       7.906  13.033  17.208  0.00  0.00    +0.000 OA
ATOM     12  C   UNL     1       7.458  14.565  19.752  0.00  0.00    +0.000 A 
ATOM     13  C   UNL     1       6.305  14.879  19.058  0.00  0.00    +0.000 A 
ATOM     14  C   UNL     1       5.324  15.637  19.707  0.00  0.00    +0.000 A 
ATOM     15  C   UNL     1       5.502  16.060  21.034  0.00  0.00    +0.000 A 
ATOM     16  C   UNL     1       6.685  15.776  21.708  0.00  0.00    +0.000 A 
ATOM     17  C   UNL     1       7.673  15.055  21.050  0.00  0.00    +0.000 A 
ATOM     18  C   UNL     1       9.074  14.739  21.556  0.00  0.00    +0.000 C 
ATOM     19  C   UNL     1       9.029  14.174  22.990  0.00  0.00    +0.000 C 
ATOM     20  C   UNL     1       9.865  16.060  21.601  0.00  0.00    +0.000 C 
ENDROOT
BRANCH   8  21
ATOM     21  C   UNL     1      11.510  14.272  17.266  0.00  0.00    +0.000 C 
BRANCH  21  22
ATOM     22  C   UNL     1      11.250  15.765  17.301  0.00  0.00    +0.000 A 
ATOM     23  C   UNL     1      12.332  16.651  17.394  0.00  0.00    +0.000 A 
ATOM     24  C   UNL     1      12.120  18.022  17.541  0.00  0.00    +0.000 A 
ATOM     25  C   UNL     1      10.824  18.526  17.586  0.00  0.00    +0.000 A 
ATOM     26  C   UNL     1       9.738  17.664  17.458  0.00  0.00    +0.000 A 
ATOM     27  C   UNL     1       9.947  16.289  17.312  0.00  0.00    +0.000 A 
ENDBRANCH  21  22
ENDBRANCH   8  21
TORSDOF 2
ENDMDL
MODEL 2
REMARK VINA RESULT:      -6.1      9.733     12.625
REMARK  Name = 
REMARK  5 active torsions:
REMARK  status: ('A' for Active; 'I' for Inactive)
REMARK    1  A    between atoms: C_1  and  C_2
REMARK    2  A    between atoms: N_8  and  C_9
REMARK    3  A    between atoms: C_9  and  C_10
REMARK    4  A    between atoms: C_25  and  C_26
REMARK    5  A    between atoms: C_25  and  C_27
REMARK                            x       y       z     vdW  Elec       q    Type
REMARK                         _______ _______ _______ _____ _____    ______ ____
ROOT
ATOM      1  C   UNL     1       0.463  14.972  22.163  0.00  0.00    +0.000 C 
ATOM      2  C   UNL     1      -0.819  14.430  21.493  0.00  0.00    +0.000 C 
ATOM      3  S   UNL     1       0.194  14.837  19.776  0.00  0.00    +0.000 S 
ATOM      4  S   UNL     1       1.114  13.062  19.469  0.00  0.00    +0.000 S 
ATOM      5  C   UNL     1      -0.224  11.959  20.069  0.00  0.00    +0.000 C 
ATOM      6  C   UNL     1      -0.159  11.975  21.648  0.00  0.00    +0.000 C 
ATOM      7  O   UNL     1       0.438  11.158  22.333  0.00  0.00    +0.000 OA
ATOM      8  N   UNL     1      -0.772  13.102  22.193  0.00  0.00    +0.000 N 
ATOM      9  N   UNL     1      -1.576  12.566  19.863  0.00  0.00    +0.000 N 
ATOM     10  C   UNL     1      -1.942  13.792  20.478  0.00  0.00    +0.000 C 
ATOM     11  O   UNL     1      -3.024  14.362  20.316  0.00  0.00    +0.000 OA
ATOM     12  C   UNL     1      -2.315  11.760  18.995  0.00  0.00    +0.000 A 
ATOM     13  C   UNL     1      -3.602  11.942  18.527  0.00  0.00    +0.000 A 
ATOM     14  C   UNL     1      -4.104  11.030  17.594  0.00  0.00    +0.000 A 
ATOM     15  C   UNL     1      -3.317   9.961  17.135  0.00  0.00    +0.000 A 
ATOM     16  C   UNL     1      -2.039   9.763  17.645  0.00  0.00    +0.000 A 
ATOM     17  C   UNL     1      -1.555  10.648  18.600  0.00  0.00    +0.000 A 
ATOM     18  C   UNL     1      -0.243  10.549  19.367  0.00  0.00    +0.000 C 
ATOM     19  C   UNL     1       0.936  10.279  18.411  0.00  0.00    +0.000 C 
ATOM     20  C   UNL     1      -0.350   9.348  20.325  0.00  0.00    +0.000 C 
ENDROOT
BRANCH   8  21
ATOM     21  C   UNL     1      -1.414  13.021  23.500  0.00  0.00    +0.000 C 
BRANCH  21  22
ATOM     22  C   UNL     1      -2.863  13.462  23.462  0.00  0.00    +0.000 A 
ATOM     23  C   UNL     1      -3.205  14.744  23.913  0.00  0.00    +0.000 A 
ATOM     24  C   UNL     1      -4.541  15.138  23.996  0.00  0.00    +0.000 A 
ATOM     25  C   UNL     1      -5.552  14.260  23.619  0.00  0.00    +0.000 A 
ATOM     26  C   UNL     1      -5.228  12.995  23.133  0.00  0.00    +0.000 A 
ATOM     27  C   UNL     1      -3.890  12.597  23.050  0.00  0.00    +0.000 A 
ENDBRANCH  21  22
ENDBRANCH   8  21
TORSDOF 2
ENDMDL
MODEL 3
REMARK VINA RESULT:      -6.0      9.086     12.192
REMARK  Name = 
REMARK  5 active torsions:
REMARK  status: ('A' for Active; 'I' for Inactive)
REMARK    1  A    between atoms: C_1  and  C_2
REMARK    2  A    between atoms: N_8  and  C_9
REMARK    3  A    between atoms: C_9  and  C_10
REMARK    4  A    between atoms: C_25  and  C_26
REMARK    5  A    between atoms: C_25  and  C_27
REMARK                            x       y       z     vdW  Elec       q    Type
REMARK                         _______ _______ _______ _____ _____    ______ ____
ROOT
ATOM      1  C   UNL     1       1.303  14.806  21.571  0.00  0.00    +0.000 C 
ATOM      2  C   UNL     1      -0.073  14.402  20.996  0.00  0.00    +0.000 C 
ATOM      3  S   UNL     1       0.909  14.509  19.217  0.00  0.00    +0.000 S 
ATOM      4  S   UNL     1       1.551  12.598  19.044  0.00  0.00    +0.000 S 
ATOM      5  C   UNL     1       0.098  11.758  19.785  0.00  0.00    +0.000 C 
ATOM      6  C   UNL     1       0.238  11.899  21.353  0.00  0.00    +0.000 C 
ATOM      7  O   UNL     1       0.743  11.065  22.090  0.00  0.00    +0.000 OA
ATOM      8  N   UNL     1      -0.183  13.146  21.813  0.00  0.00    +0.000 N 
ATOM      9  N   UNL     1      -1.161  12.536  19.570  0.00  0.00    +0.000 N 
ATOM     10  C   UNL     1      -1.320  13.850  20.082  0.00  0.00    +0.000 C 
ATOM     11  O   UNL     1      -2.316  14.557  19.904  0.00  0.00    +0.000 OA
ATOM     12  C   UNL     1      -2.046  11.775  18.803  0.00  0.00    +0.000 A 
ATOM     13  C   UNL     1      -3.314  12.103  18.363  0.00  0.00    +0.000 A 
ATOM     14  C   UNL     1      -3.983  11.196  17.534  0.00  0.00    +0.000 A 
ATOM     15  C   UNL     1      -3.378   9.990  17.149  0.00  0.00    +0.000 A 
ATOM     16  C   UNL     1      -2.119   9.651  17.633  0.00  0.00    +0.000 A 
ATOM     17  C   UNL     1      -1.471  10.535  18.486  0.00  0.00    +0.000 A 
ATOM     18  C   UNL     1      -0.153  10.311  19.216  0.00  0.00    +0.000 C 
ATOM     19  C   UNL     1       0.931   9.791  18.250  0.00  0.00    +0.000 C 
ATOM     20  C   UNL     1      -0.387   9.225  20.283  0.00  0.00    +0.000 C 
ENDROOT
BRANCH   8  21
ATOM     21  C   UNL     1      -0.769  13.272  23.142  0.00  0.00    +0.000 C 
BRANCH  21  22
ATOM     22  C   UNL     1      -2.267  13.505  23.095  0.00  0.00    +0.000 A 
ATOM     23  C   UNL     1      -3.111  12.474  22.663  0.00  0.00    +0.000 A 
ATOM     24  C   UNL     1      -4.480  12.693  22.503  0.00  0.00    +0.000 A 
ATOM     25  C   UNL     1      -5.023  13.942  22.784  0.00  0.00    +0.000 A 
ATOM     26  C   UNL     1      -4.204  14.968  23.250  0.00  0.00    +0.000 A 
ATOM     27  C   UNL     1      -2.832  14.751  23.410  0.00  0.00    +0.000 A 
ENDBRANCH  21  22
ENDBRANCH   8  21
TORSDOF 2
ENDMDL
MODEL 4
REMARK VINA RESULT:      -6.0     10.048     12.987
REMARK  Name = 
REMARK  5 active torsions:
REMARK  status: ('A' for Active; 'I' for Inactive)
REMARK    1  A    between atoms: C_1  and  C_2
REMARK    2  A    between atoms: N_8  and  C_9
REMARK    3  A    between atoms: C_9  and  C_10
REMARK    4  A    between atoms: C_25  and  C_26
REMARK    5  A    between atoms: C_25  and  C_27
REMARK                            x       y       z     vdW  Elec       q    Type
REMARK                         _______ _______ _______ _____ _____    ______ ____
ROOT
ATOM      1  C   UNL     1      -0.387  15.040  22.736  0.00  0.00    +0.000 C 
ATOM      2  C   UNL     1      -1.518  14.400  21.899  0.00  0.00    +0.000 C 
ATOM      3  S   UNL     1      -0.395  15.043  20.330  0.00  0.00    +0.000 S 
ATOM      4  S   UNL     1       0.765  13.413  20.024  0.00  0.00    +0.000 S 
ATOM      5  C   UNL     1      -0.480  12.122  20.409  0.00  0.00    +0.000 C 
ATOM      6  C   UNL     1      -0.578  12.034  21.984  0.00  0.00    +0.000 C 
ATOM      7  O   UNL     1       0.043  11.246  22.683  0.00  0.00    +0.000 OA
ATOM      8  N   UNL     1      -1.378  13.041  22.523  0.00  0.00    +0.000 N 
ATOM      9  N   UNL     1      -1.869  12.579  20.093  0.00  0.00    +0.000 N 
ATOM     10  C   UNL     1      -2.445  13.707  20.733  0.00  0.00    +0.000 C 
ATOM     11  O   UNL     1      -3.567  14.157  20.488  0.00  0.00    +0.000 OA
ATOM     12  C   UNL     1      -2.410  11.755  19.104  0.00  0.00    +0.000 A 
ATOM     13  C   UNL     1      -3.656  11.818  18.510  0.00  0.00    +0.000 A 
ATOM     14  C   UNL     1      -3.944  10.921  17.476  0.00  0.00    +0.000 A 
ATOM     15  C   UNL     1      -2.988   9.987  17.045  0.00  0.00    +0.000 A 
ATOM     16  C   UNL     1      -1.754   9.904  17.680  0.00  0.00    +0.000 A 
ATOM     17  C   UNL     1      -1.483  10.771  18.731  0.00  0.00    +0.000 A 
ATOM     18  C   UNL     1      -0.253  10.772  19.629  0.00  0.00    +0.000 C 
ATOM     19  C   UNL     1       1.042  10.710  18.794  0.00  0.00    +0.000 C 
ATOM     20  C   UNL     1      -0.307   9.503  20.500  0.00  0.00    +0.000 C 
ENDROOT
BRANCH   8  21
ATOM     21  C   UNL     1      -2.134  12.793  23.745  0.00  0.00    +0.000 C 
BRANCH  21  22
ATOM     22  C   UNL     1      -3.524  13.395  23.699  0.00  0.00    +0.000 A 
ATOM     23  C   UNL     1      -4.590  12.632  23.205  0.00  0.00    +0.000 A 
ATOM     24  C   UNL     1      -5.857  13.194  23.046  0.00  0.00    +0.000 A 
ATOM     25  C   UNL     1      -6.077  14.525  23.388  0.00  0.00    +0.000 A 
ATOM     26  C   UNL     1      -5.037  15.288  23.915  0.00  0.00    +0.000 A 
ATOM     27  C   UNL     1      -3.766  14.727  24.075  0.00  0.00    +0.000 A 
ENDBRANCH  21  22
ENDBRANCH   8  21
TORSDOF 2
ENDMDL
MODEL 5
REMARK VINA RESULT:      -5.9      9.839     12.797
REMARK  Name = 
REMARK  5 active torsions:
REMARK  status: ('A' for Active; 'I' for Inactive)
REMARK    1  A    between atoms: C_1  and  C_2
REMARK    2  A    between atoms: N_8  and  C_9
REMARK    3  A    between atoms: C_9  and  C_10
REMARK    4  A    between atoms: C_25  and  C_26
REMARK    5  A    between atoms: C_25  and  C_27
REMARK                            x       y       z     vdW  Elec       q    Type
REMARK                         _______ _______ _______ _____ _____    ______ ____
ROOT
ATOM      1  C   UNL     1       0.578  15.895  20.827  0.00  0.00    +0.000 C 
ATOM      2  C   UNL     1      -0.123  15.066  21.927  0.00  0.00    +0.000 C 
ATOM      3  S   UNL     1      -1.336  16.695  22.044  0.00  0.00    +0.000 S 
ATOM      4  S   UNL     1      -2.774  16.171  20.721  0.00  0.00    +0.000 S 
ATOM      5  C   UNL     1      -2.820  14.371  21.075  0.00  0.00    +0.000 C 
ATOM      6  C   UNL     1      -1.585  13.725  20.330  0.00  0.00    +0.000 C 
ATOM      7  O   UNL     1      -1.622  13.222  19.217  0.00  0.00    +0.000 OA
ATOM      8  N   UNL     1      -0.395  13.887  21.038  0.00  0.00    +0.000 N 
ATOM      9  N   UNL     1      -2.446  14.076  22.493  0.00  0.00    +0.000 N 
ATOM     10  C   UNL     1      -1.171  14.419  23.012  0.00  0.00    +0.000 C 
ATOM     11  O   UNL     1      -0.818  14.239  24.181  0.00  0.00    +0.000 OA
ATOM     12  C   UNL     1      -3.530  13.477  23.139  0.00  0.00    +0.000 A 
ATOM     13  C   UNL     1      -3.629  13.047  24.448  0.00  0.00    +0.000 A 
ATOM     14  C   UNL     1      -4.857  12.544  24.890  0.00  0.00    +0.000 A 
ATOM     15  C   UNL     1      -5.964  12.487  24.029  0.00  0.00    +0.000 A 
ATOM     16  C   UNL     1      -5.841  12.881  22.701  0.00  0.00    +0.000 A 
ATOM     17  C   UNL     1      -4.611  13.346  22.254  0.00  0.00    +0.000 A 
ATOM     18  C   UNL     1      -4.231  13.715  20.825  0.00  0.00    +0.000 C 
ATOM     19  C   UNL     1      -5.284  14.648  20.196  0.00  0.00    +0.000 C 
ATOM     20  C   UNL     1      -4.205  12.416  19.997  0.00  0.00    +0.000 C 
ENDROOT
BRANCH   8  21
ATOM     21  C   UNL     1       0.653  12.878  20.939  0.00  0.00    +0.000 C 
BRANCH  21  22
ATOM     22  C   UNL     1       0.163  11.494  21.314  0.00  0.00    +0.000 A 
ATOM     23  C   UNL     1      -0.400  11.281  22.580  0.00  0.00    +0.000 A 
ATOM     24  C   UNL     1      -0.757   9.998  22.995  0.00  0.00    +0.000 A 
ATOM     25  C   UNL     1      -0.566   8.912  22.146  0.00  0.00    +0.000 A 
ATOM     26  C   UNL     1      -0.043   9.111  20.871  0.00  0.00    +0.000 A 
ATOM     27  C   UNL     1       0.317  10.395  20.452  0.00  0.00    +0.000 A 
ENDBRANCH  21  22
ENDBRANCH   8  21
TORSDOF 2
ENDMDL
MODEL 6
REMARK VINA RESULT:      -5.9      8.721     11.836
REMARK  Name = 
REMARK  5 active torsions:
REMARK  status: ('A' for Active; 'I' for Inactive)
REMARK    1  A    between atoms: C_1  and  C_2
REMARK    2  A    between atoms: N_8  and  C_9
REMARK    3  A    between atoms: C_9  and  C_10
REMARK    4  A    between atoms: C_25  and  C_26
REMARK    5  A    between atoms: C_25  and  C_27
REMARK                            x       y       z     vdW  Elec       q    Type
REMARK                         _______ _______ _______ _____ _____    ______ ____
ROOT
ATOM      1  C   UNL     1      -0.056  17.399  21.422  0.00  0.00    +0.000 C 
ATOM      2  C   UNL     1      -1.023  16.230  21.132  0.00  0.00    +0.000 C 
ATOM      3  S   UNL     1      -0.571  16.653  19.194  0.00  0.00    +0.000 S 
ATOM      4  S   UNL     1       1.012  15.424  18.915  0.00  0.00    +0.000 S 
ATOM      5  C   UNL     1       0.437  14.011  19.935  0.00  0.00    +0.000 C 
ATOM      6  C   UNL     1       0.713  14.392  21.443  0.00  0.00    +0.000 C 
ATOM      7  O   UNL     1       1.712  14.078  22.075  0.00  0.00    +0.000 OA
ATOM      8  N   UNL     1      -0.267  15.235  21.965  0.00  0.00    +0.000 N 
ATOM      9  N   UNL     1      -1.056  13.920  19.963  0.00  0.00    +0.000 N 
ATOM     10  C   UNL     1      -1.855  14.970  20.485  0.00  0.00    +0.000 C 
ATOM     11  O   UNL     1      -3.089  14.972  20.499  0.00  0.00    +0.000 OA
ATOM     12  C   UNL     1      -1.453  12.709  19.393  0.00  0.00    +0.000 A 
ATOM     13  C   UNL     1      -2.730  12.216  19.207  0.00  0.00    +0.000 A 
ATOM     14  C   UNL     1      -2.881  11.000  18.533  0.00  0.00    +0.000 A 
ATOM     15  C   UNL     1      -1.764  10.302  18.048  0.00  0.00    +0.000 A 
ATOM     16  C   UNL     1      -0.480  10.785  18.279  0.00  0.00    +0.000 A 
ATOM     17  C   UNL     1      -0.331  11.975  18.981  0.00  0.00    +0.000 A 
ATOM     18  C   UNL     1       0.973  12.615  19.439  0.00  0.00    +0.000 C 
ATOM     19  C   UNL     1       1.993  12.679  18.285  0.00  0.00    +0.000 C 
ATOM     20  C   UNL     1       1.572  11.721  20.541  0.00  0.00    +0.000 C 
ENDROOT
BRANCH   8  21
ATOM     21  C   UNL     1      -0.604  15.169  23.382  0.00  0.00    +0.000 C 
BRANCH  21  22
ATOM     22  C   UNL     1      -1.700  14.163  23.672  0.00  0.00    +0.000 A 
ATOM     23  C   UNL     1      -1.537  12.831  23.268  0.00  0.00    +0.000 A 
ATOM     24  C   UNL     1      -2.572  11.908  23.420  0.00  0.00    +0.000 A 
ATOM     25  C   UNL     1      -3.780  12.302  23.986  0.00  0.00    +0.000 A 
ATOM     26  C   UNL     1      -3.946  13.613  24.427  0.00  0.00    +0.000 A 
ATOM     27  C   UNL     1      -2.911  14.541  24.275  0.00  0.00    +0.000 A 
ENDBRANCH  21  22
ENDBRANCH   8  21
TORSDOF 2
ENDMDL
MODEL 7
REMARK VINA RESULT:      -5.9     10.097     13.461
REMARK  Name = 
REMARK  5 active torsions:
REMARK  status: ('A' for Active; 'I' for Inactive)
REMARK    1  A    between atoms: C_1  and  C_2
REMARK    2  A    between atoms: N_8  and  C_9
REMARK    3  A    between atoms: C_9  and  C_10
REMARK    4  A    between atoms: C_25  and  C_26
REMARK    5  A    between atoms: C_25  and  C_27
REMARK                            x       y       z     vdW  Elec       q    Type
REMARK                         _______ _______ _______ _____ _____    ______ ____
ROOT
ATOM      1  C   UNL     1      -1.446  15.531  22.876  0.00  0.00    +0.000 C 
ATOM      2  C   UNL     1      -2.377  14.712  21.953  0.00  0.00    +0.000 C 
ATOM      3  S   UNL     1      -1.161  15.432  20.490  0.00  0.00    +0.000 S 
ATOM      4  S   UNL     1       0.224  13.959  20.413  0.00  0.00    +0.000 S 
ATOM      5  C   UNL     1      -0.885  12.532  20.726  0.00  0.00    +0.000 C 
ATOM      6  C   UNL     1      -1.161  12.497  22.281  0.00  0.00    +0.000 C 
ATOM      7  O   UNL     1      -0.536  11.829  23.090  0.00  0.00    +0.000 OA
ATOM      8  N   UNL     1      -2.143  13.411  22.666  0.00  0.00    +0.000 N 
ATOM      9  N   UNL     1      -2.272  12.788  20.225  0.00  0.00    +0.000 N 
ATOM     10  C   UNL     1      -3.059  13.855  20.730  0.00  0.00    +0.000 C 
ATOM     11  O   UNL     1      -4.191  14.142  20.331  0.00  0.00    +0.000 OA
ATOM     12  C   UNL     1      -2.580  11.859  19.230  0.00  0.00    +0.000 A 
ATOM     13  C   UNL     1      -3.742  11.731  18.493  0.00  0.00    +0.000 A 
ATOM     14  C   UNL     1      -3.786  10.761  17.486  0.00  0.00    +0.000 A 
ATOM     15  C   UNL     1      -2.674   9.945  17.222  0.00  0.00    +0.000 A 
ATOM     16  C   UNL     1      -1.526  10.053  17.999  0.00  0.00    +0.000 A 
ATOM     17  C   UNL     1      -1.497  10.991  19.023  0.00  0.00    +0.000 A 
ATOM     18  C   UNL     1      -0.395  11.193  20.055  0.00  0.00    +0.000 C 
ATOM     19  C   UNL     1       0.989  11.268  19.380  0.00  0.00    +0.000 C 
ATOM     20  C   UNL     1      -0.394   9.964  20.985  0.00  0.00    +0.000 C 
ENDROOT
BRANCH   8  21
ATOM     21  C   UNL     1      -3.004  13.117  23.805  0.00  0.00    +0.000 C 
BRANCH  21  22
ATOM     22  C   UNL     1      -4.421  13.614  23.603  0.00  0.00    +0.000 A 
ATOM     23  C   UNL     1      -4.748  14.929  23.962  0.00  0.00    +0.000 A 
ATOM     24  C   UNL     1      -6.067  15.380  23.894  0.00  0.00    +0.000 A 
ATOM     25  C   UNL     1      -7.074  14.526  23.455  0.00  0.00    +0.000 A 
ATOM     26  C   UNL     1      -6.760  13.228  23.058  0.00  0.00    +0.000 A 
ATOM     27  C   UNL     1      -5.440  12.772  23.128  0.00  0.00    +0.000 A 
ENDBRANCH  21  22
ENDBRANCH   8  21
TORSDOF 2
ENDMDL
MODEL 8
REMARK VINA RESULT:      -5.8     11.453     13.631
REMARK  Name = 
REMARK  5 active torsions:
REMARK  status: ('A' for Active; 'I' for Inactive)
REMARK    1  A    between atoms: C_1  and  C_2
REMARK    2  A    between atoms: N_8  and  C_9
REMARK    3  A    between atoms: C_9  and  C_10
REMARK    4  A    between atoms: C_25  and  C_26
REMARK    5  A    between atoms: C_25  and  C_27
REMARK                            x       y       z     vdW  Elec       q    Type
REMARK                         _______ _______ _______ _____ _____    ______ ____
ROOT
ATOM      1  C   UNL     1      -6.644  14.618  21.804  0.00  0.00    +0.000 C 
ATOM      2  C   UNL     1      -5.525  13.861  22.554  0.00  0.00    +0.000 C 
ATOM      3  S   UNL     1      -6.066  12.333  21.324  0.00  0.00    +0.000 S 
ATOM      4  S   UNL     1      -4.814  12.659  19.769  0.00  0.00    +0.000 S 
ATOM      5  C   UNL     1      -3.352  13.234  20.717  0.00  0.00    +0.000 C 
ATOM      6  C   UNL     1      -3.622  14.741  21.107  0.00  0.00    +0.000 C 
ATOM      7  O   UNL     1      -3.238  15.711  20.469  0.00  0.00    +0.000 OA
ATOM      8  N   UNL     1      -4.455  14.860  22.219  0.00  0.00    +0.000 N 
ATOM      9  N   UNL     1      -3.302  12.622  22.081  0.00  0.00    +0.000 N 
ATOM     10  C   UNL     1      -4.336  12.832  23.029  0.00  0.00    +0.000 C 
ATOM     11  O   UNL     1      -4.372  12.325  24.153  0.00  0.00    +0.000 OA
ATOM     12  C   UNL     1      -2.144  11.850  22.196  0.00  0.00    +0.000 A 
ATOM     13  C   UNL     1      -1.702  11.106  23.273  0.00  0.00    +0.000 A 
ATOM     14  C   UNL     1      -0.538  10.344  23.120  0.00  0.00    +0.000 A 
ATOM     15  C   UNL     1       0.157  10.327  21.901  0.00  0.00    +0.000 A 
ATOM     16  C   UNL     1      -0.274  11.113  20.838  0.00  0.00    +0.000 A 
ATOM     17  C   UNL     1      -1.408  11.898  21.003  0.00  0.00    +0.000 A 
ATOM     18  C   UNL     1      -1.978  12.910  20.017  0.00  0.00    +0.000 C 
ATOM     19  C   UNL     1      -2.092  12.303  18.605  0.00  0.00    +0.000 C 
ATOM     20  C   UNL     1      -0.995  14.093  19.939  0.00  0.00    +0.000 C 
ENDROOT
BRANCH   8  21
ATOM     21  C   UNL     1      -4.303  15.993  23.124  0.00  0.00    +0.000 C 
BRANCH  21  22
ATOM     22  C   UNL     1      -3.011  15.934  23.915  0.00  0.00    +0.000 A 
ATOM     23  C   UNL     1      -3.006  15.339  25.183  0.00  0.00    +0.000 A 
ATOM     24  C   UNL     1      -1.862  15.368  25.980  0.00  0.00    +0.000 A 
ATOM     25  C   UNL     1      -0.704  15.984  25.515  0.00  0.00    +0.000 A 
ATOM     26  C   UNL     1      -0.680  16.549  24.242  0.00  0.00    +0.000 A 
ATOM     27  C   UNL     1      -1.826  16.522  23.441  0.00  0.00    +0.000 A 
ENDBRANCH  21  22
ENDBRANCH   8  21
TORSDOF 2
ENDMDL
MODEL 9
REMARK VINA RESULT:      -5.8      2.386      4.705
REMARK  Name = 
REMARK  5 active torsions:
REMARK  status: ('A' for Active; 'I' for Inactive)
REMARK    1  A    between atoms: C_1  and  C_2
REMARK    2  A    between atoms: N_8  and  C_9
REMARK    3  A    between atoms: C_9  and  C_10
REMARK    4  A    between atoms: C_25  and  C_26
REMARK    5  A    between atoms: C_25  and  C_27
REMARK                            x       y       z     vdW  Elec       q    Type
REMARK                         _______ _______ _______ _____ _____    ______ ____
ROOT
ATOM      1  C   UNL     1      11.152  17.217  18.623  0.00  0.00    +0.000 C 
ATOM      2  C   UNL     1      10.626  16.221  19.681  0.00  0.00    +0.000 C 
ATOM      3  S   UNL     1       9.933  17.911  20.577  0.00  0.00    +0.000 S 
ATOM      4  S   UNL     1       8.087  18.026  19.756  0.00  0.00    +0.000 S 
ATOM      5  C   UNL     1       7.712  16.231  19.687  0.00  0.00    +0.000 C 
ATOM      6  C   UNL     1       8.479  15.650  18.433  0.00  0.00    +0.000 C 
ATOM      7  O   UNL     1       7.997  15.507  17.319  0.00  0.00    +0.000 OA
ATOM      8  N   UNL     1       9.827  15.411  18.700  0.00  0.00    +0.000 N 
ATOM      9  N   UNL     1       8.403  15.478  20.780  0.00  0.00    +0.000 N 
ATOM     10  C   UNL     1       9.818  15.453  20.887  0.00  0.00    +0.000 C 
ATOM     11  O   UNL     1      10.444  14.886  21.786  0.00  0.00    +0.000 OA
ATOM     12  C   UNL     1       7.445  14.891  21.609  0.00  0.00    +0.000 A 
ATOM     13  C   UNL     1       7.634  14.116  22.737  0.00  0.00    +0.000 A 
ATOM     14  C   UNL     1       6.506  13.701  23.454  0.00  0.00    +0.000 A 
ATOM     15  C   UNL     1       5.216  14.071  23.043  0.00  0.00    +0.000 A 
ATOM     16  C   UNL     1       5.036  14.813  21.881  0.00  0.00    +0.000 A 
ATOM     17  C   UNL     1       6.154  15.193  21.151  0.00  0.00    +0.000 A 
ATOM     18  C   UNL     1       6.176  15.902  19.802  0.00  0.00    +0.000 C 
ATOM     19  C   UNL     1       5.243  17.129  19.808  0.00  0.00    +0.000 C 
ATOM     20  C   UNL     1       5.643  14.916  18.746  0.00  0.00    +0.000 C 
ENDROOT
BRANCH   8  21
ATOM     21  C   UNL     1      10.523  14.327  18.017  0.00  0.00    +0.000 C 
BRANCH  21  22
ATOM     22  C   UNL     1      10.060  12.960  18.478  0.00  0.00    +0.000 A 
ATOM     23  C   UNL     1      10.711  12.337  19.552  0.00  0.00    +0.000 A 
ATOM     24  C   UNL     1      10.383  11.035  19.927  0.00  0.00    +0.000 A 
ATOM     25  C   UNL     1       9.391  10.341  19.241  0.00  0.00    +0.000 A 
ATOM     26  C   UNL     1       8.708  10.957  18.195  0.00  0.00    +0.000 A 
ATOM     27  C   UNL     1       9.036  12.262  17.816  0.00  0.00    +0.000 A 
ENDBRANCH  21  22
ENDBRANCH   8  21
TORSDOF 2
ENDMDL
