MODEL 1
REMARK VINA RESULT:      -9.5      0.000      0.000
REMARK  Name = 
REMARK  7 active torsions:
REMARK  status: ('A' for Active; 'I' for Inactive)
REMARK    1  A    between atoms: C_1  and  O_2
REMARK    2  A    between atoms: O_2  and  C_3
REMARK    3  A    between atoms: C_6  and  C_7
REMARK    4  A    between atoms: C_7  and  C_8
REMARK    5  A    between atoms: C_13  and  C_14
REMARK    6  A    between atoms: C_17  and  C_18
REMARK    7  A    between atoms: C_21  and  C_22
REMARK                            x       y       z     vdW  Elec       q    Type
REMARK                         _______ _______ _______ _____ _____    ______ ____
ROOT
ATOM      1  C   UNL     1       5.940   4.995  17.893  0.00  0.00    +0.000 C 
ATOM      2  C   UNL     1       4.880   6.151  17.940  0.00  0.00    +0.000 C 
ATOM      3  C   UNL     1       3.625   5.871  18.716  0.00  0.00    +0.000 C 
ATOM      4  C   UNL     1       3.316   4.668  19.237  0.00  0.00    +0.000 C 
ATOM      5  C   UNL     1       4.254   3.536  19.164  0.00  0.00    +0.000 C 
ATOM      6  O   UNL     1       3.992   2.436  19.633  0.00  0.00    +0.000 OA
ATOM      7  N   UNL     1       5.451   3.765  18.578  0.00  0.00    +0.000 N 
ATOM      8  H   UNL     1       6.089   2.978  18.633  0.00  0.00    +0.000 HD
ENDROOT
BRANCH   3   9
ATOM      9  C   UNL     1       2.724   7.034  18.876  0.00  0.00    +0.000 A 
ATOM     10  C   UNL     1       2.404   7.827  17.768  0.00  0.00    +0.000 A 
ATOM     11  C   UNL     1       1.580   8.949  17.913  0.00  0.00    +0.000 A 
ATOM     12  C   UNL     1       1.066   9.296  19.170  0.00  0.00    +0.000 A 
ATOM     13  C   UNL     1       0.197  10.504  19.336  0.00  0.00    +0.000 C 
ATOM     14  C   UNL     1       1.389   8.500  20.273  0.00  0.00    +0.000 A 
ATOM     15  C   UNL     1       2.210   7.377  20.131  0.00  0.00    +0.000 A 
ENDBRANCH   3   9
BRANCH   1  19
ATOM     16  C   UNL     1       6.541   4.199  13.619  0.00  0.00    +0.000 A 
ATOM     17  C   UNL     1       5.513   3.566  14.311  0.00  0.00    +0.000 A 
ATOM     18  C   UNL     1       5.316   3.802  15.675  0.00  0.00    +0.000 A 
ATOM     19  C   UNL     1       6.168   4.660  16.392  0.00  0.00    +0.000 A 
ATOM     20  C   UNL     1       7.218   5.275  15.677  0.00  0.00    +0.000 A 
ATOM     21  C   UNL     1       7.401   5.049  14.306  0.00  0.00    +0.000 A 
BRANCH  16  23
ATOM     22  C   UNL     1       5.826   2.790  11.863  0.00  0.00    +0.000 C 
ATOM     23  O   UNL     1       6.626   3.885  12.293  0.00  0.00    +0.000 OA
ENDBRANCH  16  23
ENDBRANCH   1  19
BRANCH   1  24
ATOM     24  C   UNL     1       7.281   5.464  18.593  0.00  0.00    +0.000 C 
ATOM     25  F   UNL     1       8.320   4.622  18.392  0.00  0.00    +0.000 F 
ATOM     26  F   UNL     1       7.686   6.691  18.192  0.00  0.00    +0.000 F 
ATOM     27  F   UNL     1       7.115   5.544  19.941  0.00  0.00    +0.000 F 
ENDBRANCH   1  24
BRANCH   4  28
ATOM     28  C   UNL     1       1.994   4.473  19.962  0.00  0.00    +0.000 C 
ATOM     29  N   UNL     1       0.898   4.312  20.563  0.00  0.00    +0.000 NA
ENDBRANCH   4  28
TORSDOF 5
ENDMDL
MODEL 2
REMARK VINA RESULT:      -9.4      0.062      1.153
REMARK  Name = 
REMARK  7 active torsions:
REMARK  status: ('A' for Active; 'I' for Inactive)
REMARK    1  A    between atoms: C_1  and  O_2
REMARK    2  A    between atoms: O_2  and  C_3
REMARK    3  A    between atoms: C_6  and  C_7
REMARK    4  A    between atoms: C_7  and  C_8
REMARK    5  A    between atoms: C_13  and  C_14
REMARK    6  A    between atoms: C_17  and  C_18
REMARK    7  A    between atoms: C_21  and  C_22
REMARK                            x       y       z     vdW  Elec       q    Type
REMARK                         _______ _______ _______ _____ _____    ______ ____
ROOT
ATOM      1  C   UNL     1       5.965   5.016  17.880  0.00  0.00    +0.000 C 
ATOM      2  C   UNL     1       4.917   6.182  17.919  0.00  0.00    +0.000 C 
ATOM      3  C   UNL     1       3.660   5.922  18.699  0.00  0.00    +0.000 C 
ATOM      4  C   UNL     1       3.339   4.726  19.229  0.00  0.00    +0.000 C 
ATOM      5  C   UNL     1       4.264   3.584  19.164  0.00  0.00    +0.000 C 
ATOM      6  O   UNL     1       3.991   2.490  19.641  0.00  0.00    +0.000 OA
ATOM      7  N   UNL     1       5.464   3.796  18.575  0.00  0.00    +0.000 N 
ATOM      8  H   UNL     1       6.093   3.002  18.636  0.00  0.00    +0.000 HD
ENDROOT
BRANCH   3   9
ATOM      9  C   UNL     1       2.771   7.095  18.850  0.00  0.00    +0.000 A 
ATOM     10  C   UNL     1       2.234   7.408  20.105  0.00  0.00    +0.000 A 
ATOM     11  C   UNL     1       1.366   8.495  20.253  0.00  0.00    +0.000 A 
ATOM     12  C   UNL     1       1.020   9.285  19.149  0.00  0.00    +0.000 A 
ATOM     13  C   UNL     1       0.080  10.441  19.297  0.00  0.00    +0.000 C 
ATOM     14  C   UNL     1       1.560   8.968  17.899  0.00  0.00    +0.000 A 
ATOM     15  C   UNL     1       2.429   7.884  17.747  0.00  0.00    +0.000 A 
ENDBRANCH   3   9
BRANCH   1  19
ATOM     16  C   UNL     1       6.553   4.181  13.612  0.00  0.00    +0.000 A 
ATOM     17  C   UNL     1       5.529   3.552  14.314  0.00  0.00    +0.000 A 
ATOM     18  C   UNL     1       5.336   3.801  15.676  0.00  0.00    +0.000 A 
ATOM     19  C   UNL     1       6.188   4.667  16.382  0.00  0.00    +0.000 A 
ATOM     20  C   UNL     1       7.235   5.277  15.658  0.00  0.00    +0.000 A 
ATOM     21  C   UNL     1       7.413   5.039  14.288  0.00  0.00    +0.000 A 
BRANCH  16  23
ATOM     22  C   UNL     1       5.757   2.823  11.850  0.00  0.00    +0.000 C 
ATOM     23  O   UNL     1       6.633   3.855  12.289  0.00  0.00    +0.000 OA
ENDBRANCH  16  23
ENDBRANCH   1  19
BRANCH   1  24
ATOM     24  C   UNL     1       7.311   5.476  18.577  0.00  0.00    +0.000 C 
ATOM     25  F   UNL     1       7.772   6.666  18.130  0.00  0.00    +0.000 F 
ATOM     26  F   UNL     1       7.204   5.577  19.922  0.00  0.00    +0.000 F 
ATOM     27  F   UNL     1       8.303   4.575  18.344  0.00  0.00    +0.000 F 
ENDBRANCH   1  24
BRANCH   4  28
ATOM     28  C   UNL     1       2.016   4.550  19.956  0.00  0.00    +0.000 C 
ATOM     29  N   UNL     1       0.918   4.404  20.560  0.00  0.00    +0.000 NA
ENDBRANCH   4  28
TORSDOF 5
ENDMDL
MODEL 3
REMARK VINA RESULT:      -9.3      0.167      1.294
REMARK  Name = 
REMARK  7 active torsions:
REMARK  status: ('A' for Active; 'I' for Inactive)
REMARK    1  A    between atoms: C_1  and  O_2
REMARK    2  A    between atoms: O_2  and  C_3
REMARK    3  A    between atoms: C_6  and  C_7
REMARK    4  A    between atoms: C_7  and  C_8
REMARK    5  A    between atoms: C_13  and  C_14
REMARK    6  A    between atoms: C_17  and  C_18
REMARK    7  A    between atoms: C_21  and  C_22
REMARK                            x       y       z     vdW  Elec       q    Type
REMARK                         _______ _______ _______ _____ _____    ______ ____
ROOT
ATOM      1  C   UNL     1       5.862   5.071  17.825  0.00  0.00    +0.000 C 
ATOM      2  C   UNL     1       4.814   6.233  17.926  0.00  0.00    +0.000 C 
ATOM      3  C   UNL     1       3.573   5.944  18.720  0.00  0.00    +0.000 C 
ATOM      4  C   UNL     1       3.263   4.730  19.213  0.00  0.00    +0.000 C 
ATOM      5  C   UNL     1       4.188   3.592  19.091  0.00  0.00    +0.000 C 
ATOM      6  O   UNL     1       3.926   2.481  19.535  0.00  0.00    +0.000 OA
ATOM      7  N   UNL     1       5.376   3.827  18.486  0.00  0.00    +0.000 N 
ATOM      8  H   UNL     1       6.007   3.032  18.508  0.00  0.00    +0.000 HD
ENDROOT
BRANCH   3   9
ATOM      9  C   UNL     1       2.686   7.110  18.929  0.00  0.00    +0.000 A 
ATOM     10  C   UNL     1       2.197   7.395  20.209  0.00  0.00    +0.000 A 
ATOM     11  C   UNL     1       1.331   8.475  20.413  0.00  0.00    +0.000 A 
ATOM     12  C   UNL     1       0.939   9.285  19.339  0.00  0.00    +0.000 A 
ATOM     13  C   UNL     1       0.001  10.433  19.547  0.00  0.00    +0.000 C 
ATOM     14  C   UNL     1       1.431   8.996  18.063  0.00  0.00    +0.000 A 
ATOM     15  C   UNL     1       2.298   7.918  17.856  0.00  0.00    +0.000 A 
ENDBRANCH   3   9
BRANCH   1  19
ATOM     16  C   UNL     1       6.433   4.084  13.588  0.00  0.00    +0.000 A 
ATOM     17  C   UNL     1       7.371   4.864  14.257  0.00  0.00    +0.000 A 
ATOM     18  C   UNL     1       7.197   5.195  15.605  0.00  0.00    +0.000 A 
ATOM     19  C   UNL     1       6.057   4.775  16.312  0.00  0.00    +0.000 A 
ATOM     20  C   UNL     1       5.106   4.005  15.608  0.00  0.00    +0.000 A 
ATOM     21  C   UNL     1       5.294   3.660  14.263  0.00  0.00    +0.000 A 
BRANCH  16  23
ATOM     22  C   UNL     1       6.106   2.676  11.719  0.00  0.00    +0.000 C 
ATOM     23  O   UNL     1       6.721   3.830  12.277  0.00  0.00    +0.000 OA
ENDBRANCH  16  23
ENDBRANCH   1  19
BRANCH   1  24
ATOM     24  C   UNL     1       7.221   5.509  18.512  0.00  0.00    +0.000 C 
ATOM     25  F   UNL     1       8.232   4.631  18.319  0.00  0.00    +0.000 F 
ATOM     26  F   UNL     1       7.663   6.715  18.087  0.00  0.00    +0.000 F 
ATOM     27  F   UNL     1       7.065   5.616  19.859  0.00  0.00    +0.000 F 
ENDBRANCH   1  24
BRANCH   4  28
ATOM     28  C   UNL     1       1.954   4.526  19.959  0.00  0.00    +0.000 C 
ATOM     29  N   UNL     1       0.869   4.358  20.578  0.00  0.00    +0.000 NA
ENDBRANCH   4  28
TORSDOF 5
ENDMDL
MODEL 4
REMARK VINA RESULT:      -8.2      2.895      7.092
REMARK  Name = 
REMARK  7 active torsions:
REMARK  status: ('A' for Active; 'I' for Inactive)
REMARK    1  A    between atoms: C_1  and  O_2
REMARK    2  A    between atoms: O_2  and  C_3
REMARK    3  A    between atoms: C_6  and  C_7
REMARK    4  A    between atoms: C_7  and  C_8
REMARK    5  A    between atoms: C_13  and  C_14
REMARK    6  A    between atoms: C_17  and  C_18
REMARK    7  A    between atoms: C_21  and  C_22
REMARK                            x       y       z     vdW  Elec       q    Type
REMARK                         _______ _______ _______ _____ _____    ______ ____
ROOT
ATOM      1  C   UNL     1       3.088   5.390  18.403  0.00  0.00    +0.000 C 
ATOM      2  C   UNL     1       3.741   5.357  16.977  0.00  0.00    +0.000 C 
ATOM      3  C   UNL     1       5.187   4.956  16.917  0.00  0.00    +0.000 C 
ATOM      4  C   UNL     1       5.960   4.767  18.003  0.00  0.00    +0.000 C 
ATOM      5  C   UNL     1       5.405   4.848  19.364  0.00  0.00    +0.000 C 
ATOM      6  O   UNL     1       6.091   4.677  20.364  0.00  0.00    +0.000 OA
ATOM      7  N   UNL     1       4.078   5.091  19.475  0.00  0.00    +0.000 N 
ATOM      8  H   UNL     1       3.735   5.048  20.429  0.00  0.00    +0.000 HD
ENDROOT
BRANCH   3   9
ATOM      9  C   UNL     1       5.723   4.779  15.549  0.00  0.00    +0.000 A 
ATOM     10  C   UNL     1       5.124   3.862  14.677  0.00  0.00    +0.000 A 
ATOM     11  C   UNL     1       5.643   3.662  13.394  0.00  0.00    +0.000 A 
ATOM     12  C   UNL     1       6.771   4.373  12.963  0.00  0.00    +0.000 A 
ATOM     13  C   UNL     1       7.342   4.152  11.597  0.00  0.00    +0.000 C 
ATOM     14  C   UNL     1       7.365   5.287  13.838  0.00  0.00    +0.000 A 
ATOM     15  C   UNL     1       6.848   5.491  15.121  0.00  0.00    +0.000 A 
ENDBRANCH   3   9
BRANCH   1  19
ATOM     16  C   UNL     1       1.448   9.412  19.036  0.00  0.00    +0.000 A 
ATOM     17  C   UNL     1       1.895   9.029  17.775  0.00  0.00    +0.000 A 
ATOM     18  C   UNL     1       2.429   7.754  17.561  0.00  0.00    +0.000 A 
ATOM     19  C   UNL     1       2.558   6.836  18.617  0.00  0.00    +0.000 A 
ATOM     20  C   UNL     1       2.121   7.253  19.893  0.00  0.00    +0.000 A 
ATOM     21  C   UNL     1       1.569   8.524  20.099  0.00  0.00    +0.000 A 
BRANCH  16  23
ATOM     22  C   UNL     1      -0.443  10.815  18.843  0.00  0.00    +0.000 C 
ATOM     23  O   UNL     1       0.948  10.680  19.111  0.00  0.00    +0.000 OA
ENDBRANCH  16  23
ENDBRANCH   1  19
BRANCH   1  24
ATOM     24  C   UNL     1       1.917   4.325  18.485  0.00  0.00    +0.000 C 
ATOM     25  F   UNL     1       1.223   4.373  19.644  0.00  0.00    +0.000 F 
ATOM     26  F   UNL     1       1.017   4.450  17.483  0.00  0.00    +0.000 F 
ATOM     27  F   UNL     1       2.413   3.062  18.393  0.00  0.00    +0.000 F 
ENDBRANCH   1  24
BRANCH   4  28
ATOM     28  C   UNL     1       7.429   4.414  17.836  0.00  0.00    +0.000 C 
ATOM     29  N   UNL     1       8.647   4.121  17.697  0.00  0.00    +0.000 NA
ENDBRANCH   4  28
TORSDOF 5
ENDMDL
MODEL 5
REMARK VINA RESULT:      -8.0      2.900      7.111
REMARK  Name = 
REMARK  7 active torsions:
REMARK  status: ('A' for Active; 'I' for Inactive)
REMARK    1  A    between atoms: C_1  and  O_2
REMARK    2  A    between atoms: O_2  and  C_3
REMARK    3  A    between atoms: C_6  and  C_7
REMARK    4  A    between atoms: C_7  and  C_8
REMARK    5  A    between atoms: C_13  and  C_14
REMARK    6  A    between atoms: C_17  and  C_18
REMARK    7  A    between atoms: C_21  and  C_22
REMARK                            x       y       z     vdW  Elec       q    Type
REMARK                         _______ _______ _______ _____ _____    ______ ____
ROOT
ATOM      1  C   UNL     1       3.131   5.359  18.383  0.00  0.00    +0.000 C 
ATOM      2  C   UNL     1       3.794   5.314  16.962  0.00  0.00    +0.000 C 
ATOM      3  C   UNL     1       5.240   4.914  16.915  0.00  0.00    +0.000 C 
ATOM      4  C   UNL     1       6.006   4.734  18.008  0.00  0.00    +0.000 C 
ATOM      5  C   UNL     1       5.442   4.826  19.364  0.00  0.00    +0.000 C 
ATOM      6  O   UNL     1       6.121   4.664  20.370  0.00  0.00    +0.000 OA
ATOM      7  N   UNL     1       4.114   5.069  19.464  0.00  0.00    +0.000 N 
ATOM      8  H   UNL     1       3.765   5.034  20.416  0.00  0.00    +0.000 HD
ENDROOT
BRANCH   3   9
ATOM      9  C   UNL     1       5.786   4.725  15.553  0.00  0.00    +0.000 A 
ATOM     10  C   UNL     1       6.886   5.480  15.129  0.00  0.00    +0.000 A 
ATOM     11  C   UNL     1       7.389   5.334  13.832  0.00  0.00    +0.000 A 
ATOM     12  C   UNL     1       6.799   4.432  12.937  0.00  0.00    +0.000 A 
ATOM     13  C   UNL     1       7.322   4.282  11.542  0.00  0.00    +0.000 C 
ATOM     14  C   UNL     1       5.701   3.680  13.366  0.00  0.00    +0.000 A 
ATOM     15  C   UNL     1       5.196   3.822  14.662  0.00  0.00    +0.000 A 
ENDBRANCH   3   9
BRANCH   1  19
ATOM     16  C   UNL     1       1.485   9.385  18.969  0.00  0.00    +0.000 A 
ATOM     17  C   UNL     1       1.955   8.996  17.718  0.00  0.00    +0.000 A 
ATOM     18  C   UNL     1       2.491   7.720  17.519  0.00  0.00    +0.000 A 
ATOM     19  C   UNL     1       2.599   6.806  18.582  0.00  0.00    +0.000 A 
ATOM     20  C   UNL     1       2.139   7.228  19.847  0.00  0.00    +0.000 A 
ATOM     21  C   UNL     1       1.585   8.501  20.038  0.00  0.00    +0.000 A 
BRANCH  16  23
ATOM     22  C   UNL     1       0.831  11.198  20.335  0.00  0.00    +0.000 C 
ATOM     23  O   UNL     1       0.984  10.654  19.030  0.00  0.00    +0.000 OA
ENDBRANCH  16  23
ENDBRANCH   1  19
BRANCH   1  24
ATOM     24  C   UNL     1       1.961   4.294  18.466  0.00  0.00    +0.000 C 
ATOM     25  F   UNL     1       2.385   3.014  18.357  0.00  0.00    +0.000 F 
ATOM     26  F   UNL     1       1.251   4.376  19.615  0.00  0.00    +0.000 F 
ATOM     27  F   UNL     1       1.068   4.483  17.457  0.00  0.00    +0.000 F 
ENDBRANCH   1  24
BRANCH   4  28
ATOM     28  C   UNL     1       7.476   4.380  17.854  0.00  0.00    +0.000 C 
ATOM     29  N   UNL     1       8.696   4.086  17.725  0.00  0.00    +0.000 NA
ENDBRANCH   4  28
TORSDOF 5
ENDMDL
MODEL 6
REMARK VINA RESULT:      -8.0      2.893      7.080
REMARK  Name = 
REMARK  7 active torsions:
REMARK  status: ('A' for Active; 'I' for Inactive)
REMARK    1  A    between atoms: C_1  and  O_2
REMARK    2  A    between atoms: O_2  and  C_3
REMARK    3  A    between atoms: C_6  and  C_7
REMARK    4  A    between atoms: C_7  and  C_8
REMARK    5  A    between atoms: C_13  and  C_14
REMARK    6  A    between atoms: C_17  and  C_18
REMARK    7  A    between atoms: C_21  and  C_22
REMARK                            x       y       z     vdW  Elec       q    Type
REMARK                         _______ _______ _______ _____ _____    ______ ____
ROOT
ATOM      1  C   UNL     1       3.042   5.242  18.433  0.00  0.00    +0.000 C 
ATOM      2  C   UNL     1       3.699   5.243  17.009  0.00  0.00    +0.000 C 
ATOM      3  C   UNL     1       5.157   4.887  16.948  0.00  0.00    +0.000 C 
ATOM      4  C   UNL     1       5.933   4.712  18.035  0.00  0.00    +0.000 C 
ATOM      5  C   UNL     1       5.373   4.762  19.395  0.00  0.00    +0.000 C 
ATOM      6  O   UNL     1       6.062   4.604  20.395  0.00  0.00    +0.000 OA
ATOM      7  N   UNL     1       4.039   4.963  19.505  0.00  0.00    +0.000 N 
ATOM      8  H   UNL     1       3.696   4.901  20.458  0.00  0.00    +0.000 HD
ENDROOT
BRANCH   3   9
ATOM      9  C   UNL     1       5.702   4.739  15.581  0.00  0.00    +0.000 A 
ATOM     10  C   UNL     1       5.148   3.797  14.706  0.00  0.00    +0.000 A 
ATOM     11  C   UNL     1       5.676   3.625  13.422  0.00  0.00    +0.000 A 
ATOM     12  C   UNL     1       6.770   4.390  12.994  0.00  0.00    +0.000 A 
ATOM     13  C   UNL     1       7.351   4.201  11.627  0.00  0.00    +0.000 C 
ATOM     14  C   UNL     1       7.319   5.329  13.872  0.00  0.00    +0.000 A 
ATOM     15  C   UNL     1       6.792   5.506  15.155  0.00  0.00    +0.000 A 
ENDBRANCH   3   9
BRANCH   1  19
ATOM     16  C   UNL     1       1.565   9.330  19.041  0.00  0.00    +0.000 A 
ATOM     17  C   UNL     1       1.638   8.445  20.113  0.00  0.00    +0.000 A 
ATOM     18  C   UNL     1       2.097   7.136  19.932  0.00  0.00    +0.000 A 
ATOM     19  C   UNL     1       2.468   6.669  18.659  0.00  0.00    +0.000 A 
ATOM     20  C   UNL     1       2.365   7.574  17.582  0.00  0.00    +0.000 A 
ATOM     21  C   UNL     1       1.922   8.890  17.771  0.00  0.00    +0.000 A 
BRANCH  16  23
ATOM     22  C   UNL     1      -0.277  10.661  19.687  0.00  0.00    +0.000 C 
ATOM     23  O   UNL     1       1.102  10.577  19.351  0.00  0.00    +0.000 OA
ENDBRANCH  16  23
ENDBRANCH   1  19
BRANCH   1  24
ATOM     24  C   UNL     1       1.905   4.141  18.502  0.00  0.00    +0.000 C 
ATOM     25  F   UNL     1       2.364   2.879  18.337  0.00  0.00    +0.000 F 
ATOM     26  F   UNL     1       1.221   4.160  19.669  0.00  0.00    +0.000 F 
ATOM     27  F   UNL     1       0.985   4.340  17.521  0.00  0.00    +0.000 F 
ENDBRANCH   1  24
BRANCH   4  28
ATOM     28  C   UNL     1       7.413   4.406  17.868  0.00  0.00    +0.000 C 
ATOM     29  N   UNL     1       8.640   4.152  17.729  0.00  0.00    +0.000 NA
ENDBRANCH   4  28
TORSDOF 5
ENDMDL
MODEL 7
REMARK VINA RESULT:      -7.3      4.783      8.223
REMARK  Name = 
REMARK  7 active torsions:
REMARK  status: ('A' for Active; 'I' for Inactive)
REMARK    1  A    between atoms: C_1  and  O_2
REMARK    2  A    between atoms: O_2  and  C_3
REMARK    3  A    between atoms: C_6  and  C_7
REMARK    4  A    between atoms: C_7  and  C_8
REMARK    5  A    between atoms: C_13  and  C_14
REMARK    6  A    between atoms: C_17  and  C_18
REMARK    7  A    between atoms: C_21  and  C_22
REMARK                            x       y       z     vdW  Elec       q    Type
REMARK                         _______ _______ _______ _____ _____    ______ ____
ROOT
ATOM      1  C   UNL     1       0.688  10.058  18.980  0.00  0.00    +0.000 C 
ATOM      2  C   UNL     1       1.677   9.096  18.233  0.00  0.00    +0.000 C 
ATOM      3  C   UNL     1       2.016   7.814  18.938  0.00  0.00    +0.000 C 
ATOM      4  C   UNL     1       1.637   7.525  20.197  0.00  0.00    +0.000 C 
ATOM      5  C   UNL     1       0.758   8.427  20.960  0.00  0.00    +0.000 C 
ATOM      6  O   UNL     1       0.400   8.181  22.105  0.00  0.00    +0.000 OA
ATOM      7  N   UNL     1       0.325   9.543  20.330  0.00  0.00    +0.000 N 
ATOM      8  H   UNL     1      -0.346  10.081  20.870  0.00  0.00    +0.000 HD
ENDROOT
BRANCH   3   9
ATOM      9  C   UNL     1       2.818   6.862  18.138  0.00  0.00    +0.000 A 
ATOM     10  C   UNL     1       2.402   5.532  18.010  0.00  0.00    +0.000 A 
ATOM     11  C   UNL     1       3.170   4.615  17.284  0.00  0.00    +0.000 A 
ATOM     12  C   UNL     1       4.367   5.014  16.676  0.00  0.00    +0.000 A 
ATOM     13  C   UNL     1       5.202   4.035  15.910  0.00  0.00    +0.000 C 
ATOM     14  C   UNL     1       4.778   6.344  16.806  0.00  0.00    +0.000 A 
ATOM     15  C   UNL     1       4.012   7.264  17.529  0.00  0.00    +0.000 A 
ENDBRANCH   3   9
BRANCH   1  19
ATOM     16  C   UNL     1       2.647  13.954  19.471  0.00  0.00    +0.000 A 
ATOM     17  C   UNL     1       2.868  13.200  18.323  0.00  0.00    +0.000 A 
ATOM     18  C   UNL     1       2.259  11.952  18.158  0.00  0.00    +0.000 A 
ATOM     19  C   UNL     1       1.431  11.412  19.157  0.00  0.00    +0.000 A 
ATOM     20  C   UNL     1       1.239  12.182  20.324  0.00  0.00    +0.000 A 
ATOM     21  C   UNL     1       1.837  13.441  20.477  0.00  0.00    +0.000 A 
BRANCH  16  23
ATOM     22  C   UNL     1       3.640  15.715  18.248  0.00  0.00    +0.000 C 
ATOM     23  O   UNL     1       3.299  15.154  19.509  0.00  0.00    +0.000 OA
ENDBRANCH  16  23
ENDBRANCH   1  19
BRANCH   1  24
ATOM     24  C   UNL     1      -0.639  10.231  18.132  0.00  0.00    +0.000 C 
ATOM     25  F   UNL     1      -0.873  11.507  17.747  0.00  0.00    +0.000 F 
ATOM     26  F   UNL     1      -0.653   9.474  17.011  0.00  0.00    +0.000 F 
ATOM     27  F   UNL     1      -1.725   9.851  18.858  0.00  0.00    +0.000 F 
ENDBRANCH   1  24
BRANCH   4  28
ATOM     28  C   UNL     1       2.077   6.221  20.841  0.00  0.00    +0.000 C 
ATOM     29  N   UNL     1       2.442   5.138  21.375  0.00  0.00    +0.000 NA
ENDBRANCH   4  28
TORSDOF 5
ENDMDL
MODEL 8
REMARK VINA RESULT:      -7.2      4.777      8.235
REMARK  Name = 
REMARK  7 active torsions:
REMARK  status: ('A' for Active; 'I' for Inactive)
REMARK    1  A    between atoms: C_1  and  O_2
REMARK    2  A    between atoms: O_2  and  C_3
REMARK    3  A    between atoms: C_6  and  C_7
REMARK    4  A    between atoms: C_7  and  C_8
REMARK    5  A    between atoms: C_13  and  C_14
REMARK    6  A    between atoms: C_17  and  C_18
REMARK    7  A    between atoms: C_21  and  C_22
REMARK                            x       y       z     vdW  Elec       q    Type
REMARK                         _______ _______ _______ _____ _____    ______ ____
ROOT
ATOM      1  C   UNL     1       0.634  10.067  18.984  0.00  0.00    +0.000 C 
ATOM      2  C   UNL     1       1.656   9.126  18.256  0.00  0.00    +0.000 C 
ATOM      3  C   UNL     1       2.003   7.847  18.963  0.00  0.00    +0.000 C 
ATOM      4  C   UNL     1       1.600   7.546  20.212  0.00  0.00    +0.000 C 
ATOM      5  C   UNL     1       0.689   8.428  20.959  0.00  0.00    +0.000 C 
ATOM      6  O   UNL     1       0.310   8.171  22.095  0.00  0.00    +0.000 OA
ATOM      7  N   UNL     1       0.250   9.540  20.324  0.00  0.00    +0.000 N 
ATOM      8  H   UNL     1      -0.442  10.063  20.851  0.00  0.00    +0.000 HD
ENDROOT
BRANCH   3   9
ATOM      9  C   UNL     1       2.839   6.913  18.177  0.00  0.00    +0.000 A 
ATOM     10  C   UNL     1       3.988   7.381  17.528  0.00  0.00    +0.000 A 
ATOM     11  C   UNL     1       4.768   6.514  16.755  0.00  0.00    +0.000 A 
ATOM     12  C   UNL     1       4.409   5.166  16.616  0.00  0.00    +0.000 A 
ATOM     13  C   UNL     1       5.230   4.236  15.778  0.00  0.00    +0.000 C 
ATOM     14  C   UNL     1       3.261   4.705  17.267  0.00  0.00    +0.000 A 
ATOM     15  C   UNL     1       2.480   5.568  18.042  0.00  0.00    +0.000 A 
ENDBRANCH   3   9
BRANCH   1  19
ATOM     16  C   UNL     1       2.792  13.846  19.554  0.00  0.00    +0.000 A 
ATOM     17  C   UNL     1       1.942  13.369  20.547  0.00  0.00    +0.000 A 
ATOM     18  C   UNL     1       1.240  12.172  20.375  0.00  0.00    +0.000 A 
ATOM     19  C   UNL     1       1.349  11.433  19.184  0.00  0.00    +0.000 A 
ATOM     20  C   UNL     1       2.199  11.946  18.181  0.00  0.00    +0.000 A 
ATOM     21  C   UNL     1       2.915  13.136  18.365  0.00  0.00    +0.000 A 
BRANCH  16  23
ATOM     22  C   UNL     1       3.214  16.082  18.918  0.00  0.00    +0.000 C 
ATOM     23  O   UNL     1       3.419  15.023  19.846  0.00  0.00    +0.000 OA
ENDBRANCH  16  23
ENDBRANCH   1  19
BRANCH   1  24
ATOM     24  C   UNL     1      -0.677  10.221  18.108  0.00  0.00    +0.000 C 
ATOM     25  F   UNL     1      -0.916  11.491  17.711  0.00  0.00    +0.000 F 
ATOM     26  F   UNL     1      -0.658   9.458  16.990  0.00  0.00    +0.000 F 
ATOM     27  F   UNL     1      -1.773   9.832  18.813  0.00  0.00    +0.000 F 
ENDBRANCH   1  24
BRANCH   4  28
ATOM     28  C   UNL     1       2.049   6.246  20.860  0.00  0.00    +0.000 C 
ATOM     29  N   UNL     1       2.421   5.168  21.399  0.00  0.00    +0.000 NA
ENDBRANCH   4  28
TORSDOF 5
ENDMDL
MODEL 9
REMARK VINA RESULT:      -7.1      0.916      1.348
REMARK  Name = 
REMARK  7 active torsions:
REMARK  status: ('A' for Active; 'I' for Inactive)
REMARK    1  A    between atoms: C_1  and  O_2
REMARK    2  A    between atoms: O_2  and  C_3
REMARK    3  A    between atoms: C_6  and  C_7
REMARK    4  A    between atoms: C_7  and  C_8
REMARK    5  A    between atoms: C_13  and  C_14
REMARK    6  A    between atoms: C_17  and  C_18
REMARK    7  A    between atoms: C_21  and  C_22
REMARK                            x       y       z     vdW  Elec       q    Type
REMARK                         _______ _______ _______ _____ _____    ______ ____
ROOT
ATOM      1  C   UNL     1       5.818   5.456  17.460  0.00  0.00    +0.000 C 
ATOM      2  C   UNL     1       4.634   6.474  17.615  0.00  0.00    +0.000 C 
ATOM      3  C   UNL     1       3.638   6.175  18.698  0.00  0.00    +0.000 C 
ATOM      4  C   UNL     1       3.635   5.041  19.424  0.00  0.00    +0.000 C 
ATOM      5  C   UNL     1       4.692   4.028  19.271  0.00  0.00    +0.000 C 
ATOM      6  O   UNL     1       4.707   2.991  19.922  0.00  0.00    +0.000 OA
ATOM      7  N   UNL     1       5.682   4.300  18.390  0.00  0.00    +0.000 N 
ATOM      8  H   UNL     1       6.427   3.610  18.389  0.00  0.00    +0.000 HD
ENDROOT
BRANCH   3   9
ATOM      9  C   UNL     1       2.631   7.236  18.923  0.00  0.00    +0.000 A 
ATOM     10  C   UNL     1       2.197   8.026  17.852  0.00  0.00    +0.000 A 
ATOM     11  C   UNL     1       1.271   9.054  18.058  0.00  0.00    +0.000 A 
ATOM     12  C   UNL     1       0.766   9.309  19.340  0.00  0.00    +0.000 A 
ATOM     13  C   UNL     1      -0.213  10.418  19.572  0.00  0.00    +0.000 C 
ATOM     14  C   UNL     1       1.203   8.517  20.406  0.00  0.00    +0.000 A 
ATOM     15  C   UNL     1       2.127   7.488  20.203  0.00  0.00    +0.000 A 
ENDBRANCH   3   9
BRANCH   1  19
ATOM     16  C   UNL     1       5.804   3.936  13.343  0.00  0.00    +0.000 A 
ATOM     17  C   UNL     1       5.376   5.233  13.612  0.00  0.00    +0.000 A 
ATOM     18  C   UNL     1       5.365   5.727  14.920  0.00  0.00    +0.000 A 
ATOM     19  C   UNL     1       5.756   4.920  16.002  0.00  0.00    +0.000 A 
ATOM     20  C   UNL     1       6.164   3.601  15.711  0.00  0.00    +0.000 A 
ATOM     21  C   UNL     1       6.191   3.116  14.396  0.00  0.00    +0.000 A 
BRANCH  16  23
ATOM     22  C   UNL     1       4.481   3.266  11.503  0.00  0.00    +0.000 C 
ATOM     23  O   UNL     1       5.767   3.577  12.026  0.00  0.00    +0.000 OA
ENDBRANCH  16  23
ENDBRANCH   1  19
BRANCH   1  24
ATOM     24  C   UNL     1       7.195   6.182  17.754  0.00  0.00    +0.000 C 
ATOM     25  F   UNL     1       7.057   7.474  18.128  0.00  0.00    +0.000 F 
ATOM     26  F   UNL     1       7.920   5.570  18.719  0.00  0.00    +0.000 F 
ATOM     27  F   UNL     1       7.979   6.192  16.642  0.00  0.00    +0.000 F 
ENDBRANCH   1  24
BRANCH   4  28
ATOM     28  C   UNL     1       2.550   4.809  20.463  0.00  0.00    +0.000 C 
ATOM     29  N   UNL     1       1.650   4.617  21.326  0.00  0.00    +0.000 NA
ENDBRANCH   4  28
TORSDOF 5
ENDMDL
