MODEL 1
REMARK VINA RESULT:      -6.3      0.000      0.000
REMARK  Name = 
REMARK  5 active torsions:
REMARK  status: ('A' for Active; 'I' for Inactive)
REMARK    1  A    between atoms: C_1  and  C_2
REMARK    2  A    between atoms: C_4  and  C_5
REMARK    3  A    between atoms: N_7  and  C_8
REMARK    4  A    between atoms: C_8  and  C_9
REMARK    5  A    between atoms: C_9  and  C_10
REMARK                            x       y       z     vdW  Elec       q    Type
REMARK                         _______ _______ _______ _____ _____    ______ ____
ROOT
ATOM      1  C   UNL     1       4.289   4.722  17.265  0.00  0.00    +0.000 C 
ATOM      2  O   UNL     1       4.237   3.982  16.285  0.00  0.00    +0.000 OA
ATOM      3  N   UNL     1       3.183   5.038  18.022  0.00  0.00    +0.000 N 
ATOM      4  H   UNL     1       3.346   5.558  18.881  0.00  0.00    +0.000 HD
ENDROOT
BRANCH   1   8
ATOM      5  C   UNL     1       7.905   8.135  17.589  0.00  0.00    +0.000 C 
ATOM      6  C   UNL     1       7.128   6.888  17.832  0.00  0.00    +0.000 A 
ATOM      7  N   UNL     1       5.973   6.592  17.269  0.00  0.00    +0.000 NA
ATOM      8  C   UNL     1       5.538   5.339  17.719  0.00  0.00    +0.000 A 
ATOM      9  C   UNL     1       6.387   4.730  18.626  0.00  0.00    +0.000 A 
ATOM     10  S   UNL     1       7.752   5.712  18.921  0.00  0.00    +0.000 S 
ENDBRANCH   1   8
BRANCH   3  11
ATOM     11  C   UNL     1       1.905   4.418  17.739  0.00  0.00    +0.000 C 
BRANCH  11  12
ATOM     12  C   UNL     1       1.755   3.001  18.289  0.00  0.00    +0.000 C 
BRANCH  12  13
ATOM     13  C   UNL     1       1.946   2.907  19.765  0.00  0.00    +0.000 A 
ATOM     14  C   UNL     1       3.124   2.568  20.474  0.00  0.00    +0.000 A 
ATOM     15  N   UNL     1       2.944   2.567  21.796  0.00  0.00    +0.000 NA
ATOM     16  N   UNL     1       1.654   2.900  21.943  0.00  0.00    +0.000 N 
ATOM     17  C   UNL     1       1.011   3.108  20.758  0.00  0.00    +0.000 A 
ATOM     18  H   UNL     1       1.276   2.960  22.883  0.00  0.00    +0.000 HD
ENDBRANCH  12  13
ENDBRANCH  11  12
ENDBRANCH   3  11
TORSDOF 4
ENDMDL
MODEL 2
REMARK VINA RESULT:      -6.3      3.013      3.351
REMARK  Name = 
REMARK  5 active torsions:
REMARK  status: ('A' for Active; 'I' for Inactive)
REMARK    1  A    between atoms: C_1  and  C_2
REMARK    2  A    between atoms: C_4  and  C_5
REMARK    3  A    between atoms: N_7  and  C_8
REMARK    4  A    between atoms: C_8  and  C_9
REMARK    5  A    between atoms: C_9  and  C_10
REMARK                            x       y       z     vdW  Elec       q    Type
REMARK                         _______ _______ _______ _____ _____    ______ ____
ROOT
ATOM      1  C   UNL     1       6.494   4.327  17.364  0.00  0.00    +0.000 C 
ATOM      2  O   UNL     1       7.426   4.627  18.106  0.00  0.00    +0.000 OA
ATOM      3  N   UNL     1       5.262   3.931  17.835  0.00  0.00    +0.000 N 
ATOM      4  H   UNL     1       4.520   3.821  17.148  0.00  0.00    +0.000 HD
ENDROOT
BRANCH   1   8
ATOM      5  C   UNL     1       8.231   5.689  12.897  0.00  0.00    +0.000 C 
ATOM      6  C   UNL     1       7.413   4.999  13.933  0.00  0.00    +0.000 A 
ATOM      7  N   UNL     1       7.549   5.156  15.235  0.00  0.00    +0.000 NA
ATOM      8  C   UNL     1       6.608   4.362  15.904  0.00  0.00    +0.000 A 
ATOM      9  C   UNL     1       5.791   3.618  15.072  0.00  0.00    +0.000 A 
ATOM     10  S   UNL     1       6.181   3.909  13.435  0.00  0.00    +0.000 S 
ENDBRANCH   1   8
BRANCH   3  11
ATOM     11  C   UNL     1       4.986   3.945  19.257  0.00  0.00    +0.000 C 
BRANCH  11  12
ATOM     12  C   UNL     1       4.312   2.678  19.782  0.00  0.00    +0.000 C 
BRANCH  12  13
ATOM     13  C   UNL     1       2.822   2.732  19.744  0.00  0.00    +0.000 A 
ATOM     14  C   UNL     1       1.960   2.339  18.692  0.00  0.00    +0.000 A 
ATOM     15  N   UNL     1       0.673   2.532  18.985  0.00  0.00    +0.000 NA
ATOM     16  N   UNL     1       0.701   3.052  20.221  0.00  0.00    +0.000 N 
ATOM     17  C   UNL     1       1.964   3.197  20.717  0.00  0.00    +0.000 A 
ATOM     18  H   UNL     1      -0.180   3.290  20.663  0.00  0.00    +0.000 HD
ENDBRANCH  12  13
ENDBRANCH  11  12
ENDBRANCH   3  11
TORSDOF 4
ENDMDL
MODEL 3
REMARK VINA RESULT:      -6.3      3.160      3.646
REMARK  Name = 
REMARK  5 active torsions:
REMARK  status: ('A' for Active; 'I' for Inactive)
REMARK    1  A    between atoms: C_1  and  C_2
REMARK    2  A    between atoms: C_4  and  C_5
REMARK    3  A    between atoms: N_7  and  C_8
REMARK    4  A    between atoms: C_8  and  C_9
REMARK    5  A    between atoms: C_9  and  C_10
REMARK                            x       y       z     vdW  Elec       q    Type
REMARK                         _______ _______ _______ _____ _____    ______ ____
ROOT
ATOM      1  C   UNL     1       6.632   4.644  17.315  0.00  0.00    +0.000 C 
ATOM      2  O   UNL     1       7.598   4.429  18.042  0.00  0.00    +0.000 OA
ATOM      3  N   UNL     1       5.392   4.991  17.804  0.00  0.00    +0.000 N 
ATOM      4  H   UNL     1       4.689   5.268  17.122  0.00  0.00    +0.000 HD
ENDROOT
BRANCH   1   8
ATOM      5  C   UNL     1       8.205   5.659  12.698  0.00  0.00    +0.000 C 
ATOM      6  C   UNL     1       7.440   5.035  13.813  0.00  0.00    +0.000 A 
ATOM      7  N   UNL     1       7.600   5.315  15.092  0.00  0.00    +0.000 NA
ATOM      8  C   UNL     1       6.709   4.551  15.855  0.00  0.00    +0.000 A 
ATOM      9  C   UNL     1       5.904   3.702  15.116  0.00  0.00    +0.000 A 
ATOM     10  S   UNL     1       6.242   3.857  13.450  0.00  0.00    +0.000 S 
ENDBRANCH   1   8
BRANCH   3  11
ATOM     11  C   UNL     1       5.203   5.213  19.223  0.00  0.00    +0.000 C 
BRANCH  11  12
ATOM     12  C   UNL     1       3.793   4.908  19.727  0.00  0.00    +0.000 C 
BRANCH  12  13
ATOM     13  C   UNL     1       3.180   3.702  19.100  0.00  0.00    +0.000 A 
ATOM     14  C   UNL     1       2.089   3.643  18.201  0.00  0.00    +0.000 A 
ATOM     15  N   UNL     1       1.788   2.395  17.840  0.00  0.00    +0.000 NA
ATOM     16  N   UNL     1       2.679   1.647  18.507  0.00  0.00    +0.000 N 
ATOM     17  C   UNL     1       3.531   2.380  19.279  0.00  0.00    +0.000 A 
ATOM     18  H   UNL     1       2.643   0.639  18.391  0.00  0.00    +0.000 HD
ENDBRANCH  12  13
ENDBRANCH  11  12
ENDBRANCH   3  11
TORSDOF 4
ENDMDL
MODEL 4
REMARK VINA RESULT:      -6.2      2.988      3.250
REMARK  Name = 
REMARK  5 active torsions:
REMARK  status: ('A' for Active; 'I' for Inactive)
REMARK    1  A    between atoms: C_1  and  C_2
REMARK    2  A    between atoms: C_4  and  C_5
REMARK    3  A    between atoms: N_7  and  C_8
REMARK    4  A    between atoms: C_8  and  C_9
REMARK    5  A    between atoms: C_9  and  C_10
REMARK                            x       y       z     vdW  Elec       q    Type
REMARK                         _______ _______ _______ _____ _____    ______ ____
ROOT
ATOM      1  C   UNL     1       6.512   4.490  17.332  0.00  0.00    +0.000 C 
ATOM      2  O   UNL     1       7.426   4.888  18.049  0.00  0.00    +0.000 OA
ATOM      3  N   UNL     1       5.308   4.046  17.833  0.00  0.00    +0.000 N 
ATOM      4  H   UNL     1       4.572   3.853  17.158  0.00  0.00    +0.000 HD
ENDROOT
BRANCH   1   8
ATOM      5  C   UNL     1       8.203   5.647  12.790  0.00  0.00    +0.000 C 
ATOM      6  C   UNL     1       7.401   4.997  13.865  0.00  0.00    +0.000 A 
ATOM      7  N   UNL     1       7.541   5.224  15.156  0.00  0.00    +0.000 NA
ATOM      8  C   UNL     1       6.617   4.452  15.871  0.00  0.00    +0.000 A 
ATOM      9  C   UNL     1       5.809   3.651  15.084  0.00  0.00    +0.000 A 
ATOM     10  S   UNL     1       6.185   3.863  13.432  0.00  0.00    +0.000 S 
ENDBRANCH   1   8
BRANCH   3  11
ATOM     11  C   UNL     1       5.037   4.123  19.254  0.00  0.00    +0.000 C 
BRANCH  11  12
ATOM     12  C   UNL     1       3.794   4.933  19.616  0.00  0.00    +0.000 C 
BRANCH  12  13
ATOM     13  C   UNL     1       2.680   4.108  20.168  0.00  0.00    +0.000 A 
ATOM     14  C   UNL     1       2.764   3.006  21.052  0.00  0.00    +0.000 A 
ATOM     15  N   UNL     1       1.569   2.487  21.339  0.00  0.00    +0.000 NA
ATOM     16  N   UNL     1       0.715   3.248  20.640  0.00  0.00    +0.000 N 
ATOM     17  C   UNL     1       1.330   4.229  19.919  0.00  0.00    +0.000 A 
ATOM     18  H   UNL     1      -0.276   3.036  20.698  0.00  0.00    +0.000 HD
ENDBRANCH  12  13
ENDBRANCH  11  12
ENDBRANCH   3  11
TORSDOF 4
ENDMDL
MODEL 5
REMARK VINA RESULT:      -6.2      2.508      5.708
REMARK  Name = 
REMARK  5 active torsions:
REMARK  status: ('A' for Active; 'I' for Inactive)
REMARK    1  A    between atoms: C_1  and  C_2
REMARK    2  A    between atoms: C_4  and  C_5
REMARK    3  A    between atoms: N_7  and  C_8
REMARK    4  A    between atoms: C_8  and  C_9
REMARK    5  A    between atoms: C_9  and  C_10
REMARK                            x       y       z     vdW  Elec       q    Type
REMARK                         _______ _______ _______ _____ _____    ______ ____
ROOT
ATOM      1  C   UNL     1       3.861   4.934  17.299  0.00  0.00    +0.000 C 
ATOM      2  O   UNL     1       3.891   6.153  17.442  0.00  0.00    +0.000 OA
ATOM      3  N   UNL     1       4.519   4.285  16.278  0.00  0.00    +0.000 N 
ATOM      4  H   UNL     1       4.535   3.268  16.314  0.00  0.00    +0.000 HD
ENDROOT
BRANCH   1   8
ATOM      5  C   UNL     1       2.101   3.169  21.614  0.00  0.00    +0.000 C 
ATOM      6  C   UNL     1       2.357   3.300  20.152  0.00  0.00    +0.000 A 
ATOM      7  N   UNL     1       3.085   4.246  19.592  0.00  0.00    +0.000 NA
ATOM      8  C   UNL     1       3.119   4.053  18.206  0.00  0.00    +0.000 A 
ATOM      9  C   UNL     1       2.398   2.959  17.762  0.00  0.00    +0.000 A 
ATOM     10  S   UNL     1       1.674   2.146  19.077  0.00  0.00    +0.000 S 
ENDBRANCH   1   8
BRANCH   3  11
ATOM     11  C   UNL     1       5.368   5.027  15.369  0.00  0.00    +0.000 C 
BRANCH  11  12
ATOM     12  C   UNL     1       6.865   4.860  15.625  0.00  0.00    +0.000 C 
BRANCH  12  13
ATOM     13  C   UNL     1       7.306   5.371  16.955  0.00  0.00    +0.000 A 
ATOM     14  C   UNL     1       7.670   4.624  18.101  0.00  0.00    +0.000 A 
ATOM     15  N   UNL     1       8.007   5.400  19.133  0.00  0.00    +0.000 NA
ATOM     16  N   UNL     1       7.857   6.645  18.658  0.00  0.00    +0.000 N 
ATOM     17  C   UNL     1       7.434   6.682  17.361  0.00  0.00    +0.000 A 
ATOM     18  H   UNL     1       8.055   7.424  19.278  0.00  0.00    +0.000 HD
ENDBRANCH  12  13
ENDBRANCH  11  12
ENDBRANCH   3  11
TORSDOF 4
ENDMDL
MODEL 6
REMARK VINA RESULT:      -6.1      3.639      6.840
REMARK  Name = 
REMARK  5 active torsions:
REMARK  status: ('A' for Active; 'I' for Inactive)
REMARK    1  A    between atoms: C_1  and  C_2
REMARK    2  A    between atoms: C_4  and  C_5
REMARK    3  A    between atoms: N_7  and  C_8
REMARK    4  A    between atoms: C_8  and  C_9
REMARK    5  A    between atoms: C_9  and  C_10
REMARK                            x       y       z     vdW  Elec       q    Type
REMARK                         _______ _______ _______ _____ _____    ______ ____
ROOT
ATOM      1  C   UNL     1       5.269   4.090  18.569  0.00  0.00    +0.000 C 
ATOM      2  O   UNL     1       5.983   4.661  19.389  0.00  0.00    +0.000 OA
ATOM      3  N   UNL     1       5.619   3.945  17.245  0.00  0.00    +0.000 N 
ATOM      4  H   UNL     1       5.022   3.353  16.672  0.00  0.00    +0.000 HD
ENDROOT
BRANCH   1   8
ATOM      5  C   UNL     1       1.439   2.766  21.469  0.00  0.00    +0.000 C 
ATOM      6  C   UNL     1       2.288   2.934  20.256  0.00  0.00    +0.000 A 
ATOM      7  N   UNL     1       3.455   3.546  20.226  0.00  0.00    +0.000 NA
ATOM      8  C   UNL     1       3.974   3.505  18.926  0.00  0.00    +0.000 A 
ATOM      9  C   UNL     1       3.164   2.864  18.006  0.00  0.00    +0.000 A 
ATOM     10  S   UNL     1       1.742   2.289  18.759  0.00  0.00    +0.000 S 
ENDBRANCH   1   8
BRANCH   3  11
ATOM     11  C   UNL     1       6.916   4.392  16.781  0.00  0.00    +0.000 C 
BRANCH  11  12
ATOM     12  C   UNL     1       6.865   5.372  15.610  0.00  0.00    +0.000 C 
BRANCH  12  13
ATOM     13  C   UNL     1       6.814   4.709  14.275  0.00  0.00    +0.000 A 
ATOM     14  C   UNL     1       7.557   5.026  13.113  0.00  0.00    +0.000 A 
ATOM     15  N   UNL     1       7.258   4.236  12.081  0.00  0.00    +0.000 NA
ATOM     16  N   UNL     1       6.320   3.413  12.572  0.00  0.00    +0.000 N 
ATOM     17  C   UNL     1       6.015   3.658  13.878  0.00  0.00    +0.000 A 
ATOM     18  H   UNL     1       5.927   2.709  11.955  0.00  0.00    +0.000 HD
ENDBRANCH  12  13
ENDBRANCH  11  12
ENDBRANCH   3  11
TORSDOF 4
ENDMDL
MODEL 7
REMARK VINA RESULT:      -6.1      2.718      5.814
REMARK  Name = 
REMARK  5 active torsions:
REMARK  status: ('A' for Active; 'I' for Inactive)
REMARK    1  A    between atoms: C_1  and  C_2
REMARK    2  A    between atoms: C_4  and  C_5
REMARK    3  A    between atoms: N_7  and  C_8
REMARK    4  A    between atoms: C_8  and  C_9
REMARK    5  A    between atoms: C_9  and  C_10
REMARK                            x       y       z     vdW  Elec       q    Type
REMARK                         _______ _______ _______ _____ _____    ______ ____
ROOT
ATOM      1  C   UNL     1       3.047   5.971  17.944  0.00  0.00    +0.000 C 
ATOM      2  O   UNL     1       2.648   7.125  18.076  0.00  0.00    +0.000 OA
ATOM      3  N   UNL     1       4.091   5.632  17.114  0.00  0.00    +0.000 N 
ATOM      4  H   UNL     1       4.427   4.672  17.163  0.00  0.00    +0.000 HD
ENDROOT
BRANCH   1   8
ATOM      5  C   UNL     1       2.056   2.919  21.756  0.00  0.00    +0.000 C 
ATOM      6  C   UNL     1       2.031   3.508  20.388  0.00  0.00    +0.000 A 
ATOM      7  N   UNL     1       2.691   4.587  20.015  0.00  0.00    +0.000 NA
ATOM      8  C   UNL     1       2.445   4.844  18.661  0.00  0.00    +0.000 A 
ATOM      9  C   UNL     1       1.589   3.942  18.053  0.00  0.00    +0.000 A 
ATOM     10  S   UNL     1       1.088   2.749  19.167  0.00  0.00    +0.000 S 
ENDBRANCH   1   8
BRANCH   3  11
ATOM     11  C   UNL     1       4.837   6.663  16.421  0.00  0.00    +0.000 C 
BRANCH  11  12
ATOM     12  C   UNL     1       6.078   7.152  17.165  0.00  0.00    +0.000 C 
BRANCH  12  13
ATOM     13  C   UNL     1       6.959   6.051  17.651  0.00  0.00    +0.000 A 
ATOM     14  C   UNL     1       7.601   5.936  18.907  0.00  0.00    +0.000 A 
ATOM     15  N   UNL     1       8.329   4.822  19.010  0.00  0.00    +0.000 NA
ATOM     16  N   UNL     1       8.161   4.221  17.824  0.00  0.00    +0.000 N 
ATOM     17  C   UNL     1       7.355   4.918  16.973  0.00  0.00    +0.000 A 
ATOM     18  H   UNL     1       8.634   3.337  17.661  0.00  0.00    +0.000 HD
ENDBRANCH  12  13
ENDBRANCH  11  12
ENDBRANCH   3  11
TORSDOF 4
ENDMDL
MODEL 8
REMARK VINA RESULT:      -6.1      2.546      5.743
REMARK  Name = 
REMARK  5 active torsions:
REMARK  status: ('A' for Active; 'I' for Inactive)
REMARK    1  A    between atoms: C_1  and  C_2
REMARK    2  A    between atoms: C_4  and  C_5
REMARK    3  A    between atoms: N_7  and  C_8
REMARK    4  A    between atoms: C_8  and  C_9
REMARK    5  A    between atoms: C_9  and  C_10
REMARK                            x       y       z     vdW  Elec       q    Type
REMARK                         _______ _______ _______ _____ _____    ______ ____
ROOT
ATOM      1  C   UNL     1       3.773   4.493  17.379  0.00  0.00    +0.000 C 
ATOM      2  O   UNL     1       4.359   3.787  16.561  0.00  0.00    +0.000 OA
ATOM      3  N   UNL     1       3.948   5.856  17.450  0.00  0.00    +0.000 N 
ATOM      4  H   UNL     1       3.330   6.368  18.076  0.00  0.00    +0.000 HD
ENDROOT
BRANCH   1   8
ATOM      5  C   UNL     1       2.175   2.650  21.724  0.00  0.00    +0.000 C 
ATOM      6  C   UNL     1       2.161   3.127  20.313  0.00  0.00    +0.000 A 
ATOM      7  N   UNL     1       3.205   3.606  19.664  0.00  0.00    +0.000 NA
ATOM      8  C   UNL     1       2.831   3.945  18.358  0.00  0.00    +0.000 A 
ATOM      9  C   UNL     1       1.498   3.716  18.067  0.00  0.00    +0.000 A 
ATOM     10  S   UNL     1       0.693   3.060  19.422  0.00  0.00    +0.000 S 
ENDBRANCH   1   8
BRANCH   3  11
ATOM     11  C   UNL     1       4.777   6.537  16.478  0.00  0.00    +0.000 C 
BRANCH  11  12
ATOM     12  C   UNL     1       6.094   7.075  17.036  0.00  0.00    +0.000 C 
BRANCH  12  13
ATOM     13  C   UNL     1       6.980   6.019  17.605  0.00  0.00    +0.000 A 
ATOM     14  C   UNL     1       7.552   5.962  18.898  0.00  0.00    +0.000 A 
ATOM     15  N   UNL     1       8.308   4.877  19.077  0.00  0.00    +0.000 NA
ATOM     16  N   UNL     1       8.229   4.236  17.901  0.00  0.00    +0.000 N 
ATOM     17  C   UNL     1       7.451   4.881  16.986  0.00  0.00    +0.000 A 
ATOM     18  H   UNL     1       8.738   3.365  17.793  0.00  0.00    +0.000 HD
ENDBRANCH  12  13
ENDBRANCH  11  12
ENDBRANCH   3  11
TORSDOF 4
ENDMDL
MODEL 9
REMARK VINA RESULT:      -6.1      2.791      6.083
REMARK  Name = 
REMARK  5 active torsions:
REMARK  status: ('A' for Active; 'I' for Inactive)
REMARK    1  A    between atoms: C_1  and  C_2
REMARK    2  A    between atoms: C_4  and  C_5
REMARK    3  A    between atoms: N_7  and  C_8
REMARK    4  A    between atoms: C_8  and  C_9
REMARK    5  A    between atoms: C_9  and  C_10
REMARK                            x       y       z     vdW  Elec       q    Type
REMARK                         _______ _______ _______ _____ _____    ______ ____
ROOT
ATOM      1  C   UNL     1       2.775   6.098  18.531  0.00  0.00    +0.000 C 
ATOM      2  O   UNL     1       2.469   7.185  19.015  0.00  0.00    +0.000 OA
ATOM      3  N   UNL     1       3.689   5.965  17.510  0.00  0.00    +0.000 N 
ATOM      4  H   UNL     1       3.966   5.018  17.261  0.00  0.00    +0.000 HD
ENDROOT
BRANCH   1   8
ATOM      5  C   UNL     1       1.490   2.513  21.745  0.00  0.00    +0.000 C 
ATOM      6  C   UNL     1       1.639   3.263  20.467  0.00  0.00    +0.000 A 
ATOM      7  N   UNL     1       2.223   4.439  20.341  0.00  0.00    +0.000 NA
ATOM      8  C   UNL     1       2.192   4.838  18.999  0.00  0.00    +0.000 A 
ATOM      9  C   UNL     1       1.569   3.941  18.150  0.00  0.00    +0.000 A 
ATOM     10  S   UNL     1       1.022   2.575  19.017  0.00  0.00    +0.000 S 
ENDBRANCH   1   8
BRANCH   3  11
ATOM     11  C   UNL     1       4.410   7.121  17.021  0.00  0.00    +0.000 C 
BRANCH  11  12
ATOM     12  C   UNL     1       5.846   7.231  17.531  0.00  0.00    +0.000 C 
BRANCH  12  13
ATOM     13  C   UNL     1       6.680   6.029  17.239  0.00  0.00    +0.000 A 
ATOM     14  C   UNL     1       6.897   5.398  15.991  0.00  0.00    +0.000 A 
ATOM     15  N   UNL     1       7.693   4.332  16.087  0.00  0.00    +0.000 NA
ATOM     16  N   UNL     1       7.987   4.270  17.395  0.00  0.00    +0.000 N 
ATOM     17  C   UNL     1       7.400   5.260  18.128  0.00  0.00    +0.000 A 
ATOM     18  H   UNL     1       8.590   3.521  17.717  0.00  0.00    +0.000 HD
ENDBRANCH  12  13
ENDBRANCH  11  12
ENDBRANCH   3  11
TORSDOF 4
ENDMDL
