MODEL 1
REMARK VINA RESULT:      -7.4      0.000      0.000
REMARK  Name = 
REMARK  5 active torsions:
REMARK  status: ('A' for Active; 'I' for Inactive)
REMARK    1  A    between atoms: C_1  and  N_2
REMARK    2  A    between atoms: N_2  and  C_3
REMARK    3  A    between atoms: C_3  and  C_4
REMARK    4  A    between atoms: C_8  and  C_10
REMARK    5  A    between atoms: C_10  and  N_11
REMARK                            x       y       z     vdW  Elec       q    Type
REMARK                         _______ _______ _______ _____ _____    ______ ____
ROOT
ATOM      1  C   UNL     1       2.345   5.258  17.980  0.00  0.00    +0.000 C 
ENDROOT
BRANCH   1   2
ATOM      2  N   UNL     1       3.786   5.346  18.165  0.00  0.00    +0.000 N 
ATOM      3  C   UNL     1       4.437   4.444  18.989  0.00  0.00    +0.000 A 
ATOM      4  N   UNL     1       5.694   4.488  19.301  0.00  0.00    +0.000 NA
ATOM      5  C   UNL     1       6.390   5.527  18.761  0.00  0.00    +0.000 A 
ATOM      6  C   UNL     1       5.890   6.459  17.961  0.00  0.00    +0.000 A 
ATOM      7  C   UNL     1       4.470   6.422  17.627  0.00  0.00    +0.000 A 
ATOM      8  O   UNL     1       3.968   7.302  16.930  0.00  0.00    +0.000 OA
ATOM      9  C   UNL     1       6.870   7.480  17.535  0.00  0.00    +0.000 C 
ATOM     10  C   UNL     1       8.152   7.042  18.258  0.00  0.00    +0.000 C 
ATOM     11  C   UNL     1       7.834   5.760  19.046  0.00  0.00    +0.000 C 
ENDBRANCH   1   2
BRANCH   1  14
ATOM     12  C   UNL     1       0.809   1.824  18.730  0.00  0.00    +0.000 C 
ATOM     13  N   UNL     1       1.243   3.198  18.930  0.00  0.00    +0.000 N 
ATOM     14  C   UNL     1       1.916   3.793  17.874  0.00  0.00    +0.000 C 
ATOM     15  O   UNL     1       2.093   3.196  16.809  0.00  0.00    +0.000 OA
BRANCH  13  16
ATOM     16  C   UNL     1       1.004   3.814  20.254  0.00  0.00    +0.000 C 
BRANCH  16  17
ATOM     17  C   UNL     1       1.810   3.261  21.439  0.00  0.00    +0.000 C 
ATOM     18  F   UNL     1       2.790   2.418  21.049  0.00  0.00    +0.000 F 
ATOM     19  F   UNL     1       2.395   4.259  22.138  0.00  0.00    +0.000 F 
ATOM     20  F   UNL     1       1.006   2.586  22.292  0.00  0.00    +0.000 F 
ENDBRANCH  16  17
ENDBRANCH  13  16
ENDBRANCH   1  14
TORSDOF 4
ENDMDL
MODEL 2
REMARK VINA RESULT:      -7.2      3.367      3.976
REMARK  Name = 
REMARK  5 active torsions:
REMARK  status: ('A' for Active; 'I' for Inactive)
REMARK    1  A    between atoms: C_1  and  N_2
REMARK    2  A    between atoms: N_2  and  C_3
REMARK    3  A    between atoms: C_3  and  C_4
REMARK    4  A    between atoms: C_8  and  C_10
REMARK    5  A    between atoms: C_10  and  N_11
REMARK                            x       y       z     vdW  Elec       q    Type
REMARK                         _______ _______ _______ _____ _____    ______ ____
ROOT
ATOM      1  C   UNL     1       4.697   5.517  18.141  0.00  0.00    +0.000 C 
ENDROOT
BRANCH   1   2
ATOM      2  N   UNL     1       5.512   5.300  16.954  0.00  0.00    +0.000 N 
ATOM      3  C   UNL     1       6.687   6.010  16.780  0.00  0.00    +0.000 A 
ATOM      4  N   UNL     1       7.436   5.969  15.723  0.00  0.00    +0.000 NA
ATOM      5  C   UNL     1       6.988   5.158  14.725  0.00  0.00    +0.000 A 
ATOM      6  C   UNL     1       5.882   4.427  14.761  0.00  0.00    +0.000 A 
ATOM      7  C   UNL     1       5.027   4.489  15.942  0.00  0.00    +0.000 A 
ATOM      8  O   UNL     1       3.969   3.864  15.984  0.00  0.00    +0.000 OA
ATOM      9  C   UNL     1       5.628   3.650  13.530  0.00  0.00    +0.000 C 
ATOM     10  C   UNL     1       6.808   4.047  12.630  0.00  0.00    +0.000 C 
ATOM     11  C   UNL     1       7.698   5.021  13.421  0.00  0.00    +0.000 C 
ENDBRANCH   1   2
BRANCH   1  14
ATOM     12  C   UNL     1       3.874   2.545  20.423  0.00  0.00    +0.000 C 
ATOM     13  N   UNL     1       3.677   3.715  19.580  0.00  0.00    +0.000 N 
ATOM     14  C   UNL     1       4.822   4.324  19.091  0.00  0.00    +0.000 C 
ATOM     15  O   UNL     1       5.943   3.865  19.328  0.00  0.00    +0.000 OA
BRANCH  13  16
ATOM     16  C   UNL     1       2.293   4.198  19.378  0.00  0.00    +0.000 C 
BRANCH  16  17
ATOM     17  C   UNL     1       1.430   3.443  18.356  0.00  0.00    +0.000 C 
ATOM     18  F   UNL     1       2.104   2.442  17.750  0.00  0.00    +0.000 F 
ATOM     19  F   UNL     1       0.344   2.896  18.945  0.00  0.00    +0.000 F 
ATOM     20  F   UNL     1       0.989   4.280  17.390  0.00  0.00    +0.000 F 
ENDBRANCH  16  17
ENDBRANCH  13  16
ENDBRANCH   1  14
TORSDOF 4
ENDMDL
MODEL 3
REMARK VINA RESULT:      -7.0      3.079      5.859
REMARK  Name = 
REMARK  5 active torsions:
REMARK  status: ('A' for Active; 'I' for Inactive)
REMARK    1  A    between atoms: C_1  and  N_2
REMARK    2  A    between atoms: N_2  and  C_3
REMARK    3  A    between atoms: C_3  and  C_4
REMARK    4  A    between atoms: C_8  and  C_10
REMARK    5  A    between atoms: C_10  and  N_11
REMARK                            x       y       z     vdW  Elec       q    Type
REMARK                         _______ _______ _______ _____ _____    ______ ____
ROOT
ATOM      1  C   UNL     1       5.263   3.638  17.074  0.00  0.00    +0.000 C 
ENDROOT
BRANCH   1   2
ATOM      2  N   UNL     1       4.066   3.447  17.880  0.00  0.00    +0.000 N 
ATOM      3  C   UNL     1       2.827   3.801  17.376  0.00  0.00    +0.000 A 
ATOM      4  N   UNL     1       1.712   3.766  18.037  0.00  0.00    +0.000 NA
ATOM      5  C   UNL     1       1.817   3.352  19.330  0.00  0.00    +0.000 A 
ATOM      6  C   UNL     1       2.939   2.988  19.936  0.00  0.00    +0.000 A 
ATOM      7  C   UNL     1       4.197   3.047  19.199  0.00  0.00    +0.000 A 
ATOM      8  O   UNL     1       5.260   2.766  19.749  0.00  0.00    +0.000 OA
ATOM      9  C   UNL     1       2.765   2.598  21.351  0.00  0.00    +0.000 C 
ATOM     10  C   UNL     1       1.261   2.812  21.578  0.00  0.00    +0.000 C 
ATOM     11  C   UNL     1       0.647   3.292  20.252  0.00  0.00    +0.000 C 
ENDBRANCH   1   2
BRANCH   1  14
ATOM     12  C   UNL     1       6.013   7.396  16.906  0.00  0.00    +0.000 C 
ATOM     13  N   UNL     1       5.896   6.050  17.447  0.00  0.00    +0.000 N 
ATOM     14  C   UNL     1       5.356   5.091  16.605  0.00  0.00    +0.000 C 
ATOM     15  O   UNL     1       5.035   5.364  15.445  0.00  0.00    +0.000 OA
BRANCH  13  16
ATOM     16  C   UNL     1       6.285   5.834  18.858  0.00  0.00    +0.000 C 
BRANCH  16  17
ATOM     17  C   UNL     1       7.785   5.687  19.155  0.00  0.00    +0.000 C 
ATOM     18  F   UNL     1       8.361   4.705  18.428  0.00  0.00    +0.000 F 
ATOM     19  F   UNL     1       8.451   6.831  18.882  0.00  0.00    +0.000 F 
ATOM     20  F   UNL     1       7.989   5.400  20.461  0.00  0.00    +0.000 F 
ENDBRANCH  16  17
ENDBRANCH  13  16
ENDBRANCH   1  14
TORSDOF 4
ENDMDL
MODEL 4
REMARK VINA RESULT:      -7.0      3.124      3.694
REMARK  Name = 
REMARK  5 active torsions:
REMARK  status: ('A' for Active; 'I' for Inactive)
REMARK    1  A    between atoms: C_1  and  N_2
REMARK    2  A    between atoms: N_2  and  C_3
REMARK    3  A    between atoms: C_3  and  C_4
REMARK    4  A    between atoms: C_8  and  C_10
REMARK    5  A    between atoms: C_10  and  N_11
REMARK                            x       y       z     vdW  Elec       q    Type
REMARK                         _______ _______ _______ _____ _____    ______ ____
ROOT
ATOM      1  C   UNL     1       4.708   5.389  18.190  0.00  0.00    +0.000 C 
ENDROOT
BRANCH   1   2
ATOM      2  N   UNL     1       5.505   5.217  16.984  0.00  0.00    +0.000 N 
ATOM      3  C   UNL     1       6.651   5.969  16.796  0.00  0.00    +0.000 A 
ATOM      4  N   UNL     1       7.379   5.969  15.724  0.00  0.00    +0.000 NA
ATOM      5  C   UNL     1       6.938   5.157  14.723  0.00  0.00    +0.000 A 
ATOM      6  C   UNL     1       5.858   4.389  14.771  0.00  0.00    +0.000 A 
ATOM      7  C   UNL     1       5.027   4.405  15.970  0.00  0.00    +0.000 A 
ATOM      8  O   UNL     1       3.991   3.743  16.024  0.00  0.00    +0.000 OA
ATOM      9  C   UNL     1       5.605   3.622  13.534  0.00  0.00    +0.000 C 
ATOM     10  C   UNL     1       6.751   4.072  12.615  0.00  0.00    +0.000 C 
ATOM     11  C   UNL     1       7.624   5.064  13.403  0.00  0.00    +0.000 C 
ENDBRANCH   1   2
BRANCH   1  14
ATOM     12  C   UNL     1       4.215   2.361  20.494  0.00  0.00    +0.000 C 
ATOM     13  N   UNL     1       3.891   3.488  19.631  0.00  0.00    +0.000 N 
ATOM     14  C   UNL     1       4.961   4.231  19.158  0.00  0.00    +0.000 C 
ATOM     15  O   UNL     1       6.125   3.919  19.423  0.00  0.00    +0.000 OA
BRANCH  13  16
ATOM     16  C   UNL     1       2.462   3.792  19.396  0.00  0.00    +0.000 C 
BRANCH  16  17
ATOM     17  C   UNL     1       1.583   4.025  20.635  0.00  0.00    +0.000 C 
ATOM     18  F   UNL     1       1.172   2.870  21.200  0.00  0.00    +0.000 F 
ATOM     19  F   UNL     1       2.251   4.720  21.582  0.00  0.00    +0.000 F 
ATOM     20  F   UNL     1       0.480   4.737  20.312  0.00  0.00    +0.000 F 
ENDBRANCH  16  17
ENDBRANCH  13  16
ENDBRANCH   1  14
TORSDOF 4
ENDMDL
MODEL 5
REMARK VINA RESULT:      -7.0      3.171      5.879
REMARK  Name = 
REMARK  5 active torsions:
REMARK  status: ('A' for Active; 'I' for Inactive)
REMARK    1  A    between atoms: C_1  and  N_2
REMARK    2  A    between atoms: N_2  and  C_3
REMARK    3  A    between atoms: C_3  and  C_4
REMARK    4  A    between atoms: C_8  and  C_10
REMARK    5  A    between atoms: C_10  and  N_11
REMARK                            x       y       z     vdW  Elec       q    Type
REMARK                         _______ _______ _______ _____ _____    ______ ____
ROOT
ATOM      1  C   UNL     1       5.252   3.197  16.991  0.00  0.00    +0.000 C 
ENDROOT
BRANCH   1   2
ATOM      2  N   UNL     1       4.047   3.074  17.799  0.00  0.00    +0.000 N 
ATOM      3  C   UNL     1       2.804   3.278  17.226  0.00  0.00    +0.000 A 
ATOM      4  N   UNL     1       1.678   3.290  17.867  0.00  0.00    +0.000 NA
ATOM      5  C   UNL     1       1.773   3.093  19.211  0.00  0.00    +0.000 A 
ATOM      6  C   UNL     1       2.897   2.890  19.885  0.00  0.00    +0.000 A 
ATOM      7  C   UNL     1       4.167   2.897  19.166  0.00  0.00    +0.000 A 
ATOM      8  O   UNL     1       5.230   2.763  19.770  0.00  0.00    +0.000 OA
ATOM      9  C   UNL     1       2.710   2.722  21.341  0.00  0.00    +0.000 C 
ATOM     10  C   UNL     1       1.192   2.890  21.508  0.00  0.00    +0.000 C 
ATOM     11  C   UNL     1       0.586   3.119  20.113  0.00  0.00    +0.000 C 
ENDBRANCH   1   2
BRANCH   1  14
ATOM     12  C   UNL     1       5.597   6.873  15.951  0.00  0.00    +0.000 C 
ATOM     13  N   UNL     1       5.591   5.688  16.795  0.00  0.00    +0.000 N 
ATOM     14  C   UNL     1       5.218   4.499  16.189  0.00  0.00    +0.000 C 
ATOM     15  O   UNL     1       4.950   4.450  14.985  0.00  0.00    +0.000 OA
BRANCH  13  16
ATOM     16  C   UNL     1       5.904   5.859  18.231  0.00  0.00    +0.000 C 
BRANCH  16  17
ATOM     17  C   UNL     1       7.379   5.751  18.644  0.00  0.00    +0.000 C 
ATOM     18  F   UNL     1       7.529   5.517  19.966  0.00  0.00    +0.000 F 
ATOM     19  F   UNL     1       7.997   4.744  17.987  0.00  0.00    +0.000 F 
ATOM     20  F   UNL     1       8.044   6.893  18.354  0.00  0.00    +0.000 F 
ENDBRANCH  16  17
ENDBRANCH  13  16
ENDBRANCH   1  14
TORSDOF 4
ENDMDL
MODEL 6
REMARK VINA RESULT:      -6.8      4.096      5.973
REMARK  Name = 
REMARK  5 active torsions:
REMARK  status: ('A' for Active; 'I' for Inactive)
REMARK    1  A    between atoms: C_1  and  N_2
REMARK    2  A    between atoms: N_2  and  C_3
REMARK    3  A    between atoms: C_3  and  C_4
REMARK    4  A    between atoms: C_8  and  C_10
REMARK    5  A    between atoms: C_10  and  N_11
REMARK                            x       y       z     vdW  Elec       q    Type
REMARK                         _______ _______ _______ _____ _____    ______ ____
ROOT
ATOM      1  C   UNL     1       3.951   4.332  18.661  0.00  0.00    +0.000 C 
ENDROOT
BRANCH   1   2
ATOM      2  N   UNL     1       3.240   5.599  18.752  0.00  0.00    +0.000 N 
ATOM      3  C   UNL     1       3.377   6.546  17.752  0.00  0.00    +0.000 A 
ATOM      4  N   UNL     1       2.871   7.739  17.777  0.00  0.00    +0.000 NA
ATOM      5  C   UNL     1       2.165   8.047  18.900  0.00  0.00    +0.000 A 
ATOM      6  C   UNL     1       1.960   7.237  19.930  0.00  0.00    +0.000 A 
ATOM      7  C   UNL     1       2.547   5.901  19.912  0.00  0.00    +0.000 A 
ATOM      8  O   UNL     1       2.418   5.147  20.874  0.00  0.00    +0.000 OA
ATOM      9  C   UNL     1       1.170   7.837  21.024  0.00  0.00    +0.000 C 
ATOM     10  C   UNL     1       0.909   9.262  20.512  0.00  0.00    +0.000 C 
ATOM     11  C   UNL     1       1.550   9.387  19.120  0.00  0.00    +0.000 C 
ENDBRANCH   1   2
BRANCH   1  14
ATOM     12  C   UNL     1       7.616   4.727  17.596  0.00  0.00    +0.000 C 
ATOM     13  N   UNL     1       6.196   4.414  17.515  0.00  0.00    +0.000 N 
ATOM     14  C   UNL     1       5.462   4.574  18.680  0.00  0.00    +0.000 C 
ATOM     15  O   UNL     1       5.984   5.001  19.713  0.00  0.00    +0.000 OA
BRANCH  13  16
ATOM     16  C   UNL     1       5.675   3.884  16.236  0.00  0.00    +0.000 C 
BRANCH  16  17
ATOM     17  C   UNL     1       5.824   4.778  14.996  0.00  0.00    +0.000 C 
ATOM     18  F   UNL     1       5.458   6.056  15.234  0.00  0.00    +0.000 F 
ATOM     19  F   UNL     1       7.104   4.803  14.564  0.00  0.00    +0.000 F 
ATOM     20  F   UNL     1       5.061   4.318  13.979  0.00  0.00    +0.000 F 
ENDBRANCH  16  17
ENDBRANCH  13  16
ENDBRANCH   1  14
TORSDOF 4
ENDMDL
MODEL 7
REMARK VINA RESULT:      -6.8      3.784      6.380
REMARK  Name = 
REMARK  5 active torsions:
REMARK  status: ('A' for Active; 'I' for Inactive)
REMARK    1  A    between atoms: C_1  and  N_2
REMARK    2  A    between atoms: N_2  and  C_3
REMARK    3  A    between atoms: C_3  and  C_4
REMARK    4  A    between atoms: C_8  and  C_10
REMARK    5  A    between atoms: C_10  and  N_11
REMARK                            x       y       z     vdW  Elec       q    Type
REMARK                         _______ _______ _______ _____ _____    ______ ____
ROOT
ATOM      1  C   UNL     1       4.285   5.058  16.932  0.00  0.00    +0.000 C 
ENDROOT
BRANCH   1   2
ATOM      2  N   UNL     1       3.897   4.425  18.184  0.00  0.00    +0.000 N 
ATOM      3  C   UNL     1       4.794   3.617  18.861  0.00  0.00    +0.000 A 
ATOM      4  N   UNL     1       4.526   2.929  19.926  0.00  0.00    +0.000 NA
ATOM      5  C   UNL     1       3.244   3.030  20.374  0.00  0.00    +0.000 A 
ATOM      6  C   UNL     1       2.287   3.762  19.820  0.00  0.00    +0.000 A 
ATOM      7  C   UNL     1       2.583   4.520  18.609  0.00  0.00    +0.000 A 
ATOM      8  O   UNL     1       1.703   5.167  18.044  0.00  0.00    +0.000 OA
ATOM      9  C   UNL     1       0.982   3.673  20.507  0.00  0.00    +0.000 C 
ATOM     10  C   UNL     1       1.264   2.680  21.644  0.00  0.00    +0.000 C 
ATOM     11  C   UNL     1       2.745   2.275  21.559  0.00  0.00    +0.000 C 
ENDBRANCH   1   2
BRANCH   1  14
ATOM     12  C   UNL     1       7.439   7.242  16.936  0.00  0.00    +0.000 C 
ATOM     13  N   UNL     1       6.570   6.100  16.696  0.00  0.00    +0.000 N 
ATOM     14  C   UNL     1       5.282   6.188  17.201  0.00  0.00    +0.000 C 
ATOM     15  O   UNL     1       4.889   7.203  17.782  0.00  0.00    +0.000 OA
BRANCH  13  16
ATOM     16  C   UNL     1       7.146   4.922  16.011  0.00  0.00    +0.000 C 
BRANCH  16  17
ATOM     17  C   UNL     1       6.882   4.790  14.503  0.00  0.00    +0.000 C 
ATOM     18  F   UNL     1       7.921   5.228  13.758  0.00  0.00    +0.000 F 
ATOM     19  F   UNL     1       6.657   3.503  14.159  0.00  0.00    +0.000 F 
ATOM     20  F   UNL     1       5.792   5.504  14.143  0.00  0.00    +0.000 F 
ENDBRANCH  16  17
ENDBRANCH  13  16
ENDBRANCH   1  14
TORSDOF 4
ENDMDL
MODEL 8
REMARK VINA RESULT:      -6.8      3.392      4.004
REMARK  Name = 
REMARK  5 active torsions:
REMARK  status: ('A' for Active; 'I' for Inactive)
REMARK    1  A    between atoms: C_1  and  N_2
REMARK    2  A    between atoms: N_2  and  C_3
REMARK    3  A    between atoms: C_3  and  C_4
REMARK    4  A    between atoms: C_8  and  C_10
REMARK    5  A    between atoms: C_10  and  N_11
REMARK                            x       y       z     vdW  Elec       q    Type
REMARK                         _______ _______ _______ _____ _____    ______ ____
ROOT
ATOM      1  C   UNL     1       4.660   5.291  17.852  0.00  0.00    +0.000 C 
ENDROOT
BRANCH   1   2
ATOM      2  N   UNL     1       5.507   5.119  16.680  0.00  0.00    +0.000 N 
ATOM      3  C   UNL     1       6.691   5.827  16.570  0.00  0.00    +0.000 A 
ATOM      4  N   UNL     1       7.470   5.826  15.534  0.00  0.00    +0.000 NA
ATOM      5  C   UNL     1       7.046   5.062  14.489  0.00  0.00    +0.000 A 
ATOM      6  C   UNL     1       5.934   4.340  14.463  0.00  0.00    +0.000 A 
ATOM      7  C   UNL     1       5.046   4.357  15.621  0.00  0.00    +0.000 A 
ATOM      8  O   UNL     1       3.984   3.738  15.605  0.00  0.00    +0.000 OA
ATOM      9  C   UNL     1       5.710   3.619  13.192  0.00  0.00    +0.000 C 
ATOM     10  C   UNL     1       6.918   4.045  12.344  0.00  0.00    +0.000 C 
ATOM     11  C   UNL     1       7.791   4.977  13.201  0.00  0.00    +0.000 C 
ENDBRANCH   1   2
BRANCH   1  14
ATOM     12  C   UNL     1       4.565   2.197  20.118  0.00  0.00    +0.000 C 
ATOM     13  N   UNL     1       4.136   3.190  19.145  0.00  0.00    +0.000 N 
ATOM     14  C   UNL     1       5.007   4.242  18.910  0.00  0.00    +0.000 C 
ATOM     15  O   UNL     1       6.106   4.300  19.469  0.00  0.00    +0.000 OA
BRANCH  13  16
ATOM     16  C   UNL     1       2.789   3.041  18.550  0.00  0.00    +0.000 C 
BRANCH  16  17
ATOM     17  C   UNL     1       1.670   3.927  19.119  0.00  0.00    +0.000 C 
ATOM     18  F   UNL     1       2.053   4.590  20.232  0.00  0.00    +0.000 F 
ATOM     19  F   UNL     1       1.276   4.853  18.216  0.00  0.00    +0.000 F 
ATOM     20  F   UNL     1       0.587   3.185  19.439  0.00  0.00    +0.000 F 
ENDBRANCH  16  17
ENDBRANCH  13  16
ENDBRANCH   1  14
TORSDOF 4
ENDMDL
MODEL 9
REMARK VINA RESULT:      -6.8      3.009      5.723
REMARK  Name = 
REMARK  5 active torsions:
REMARK  status: ('A' for Active; 'I' for Inactive)
REMARK    1  A    between atoms: C_1  and  N_2
REMARK    2  A    between atoms: N_2  and  C_3
REMARK    3  A    between atoms: C_3  and  C_4
REMARK    4  A    between atoms: C_8  and  C_10
REMARK    5  A    between atoms: C_10  and  N_11
REMARK                            x       y       z     vdW  Elec       q    Type
REMARK                         _______ _______ _______ _____ _____    ______ ____
ROOT
ATOM      1  C   UNL     1       4.475   6.530  17.367  0.00  0.00    +0.000 C 
ENDROOT
BRANCH   1   2
ATOM      2  N   UNL     1       3.635   5.412  17.773  0.00  0.00    +0.000 N 
ATOM      3  C   UNL     1       3.387   4.374  16.893  0.00  0.00    +0.000 A 
ATOM      4  N   UNL     1       2.580   3.383  17.112  0.00  0.00    +0.000 NA
ATOM      5  C   UNL     1       1.939   3.411  18.313  0.00  0.00    +0.000 A 
ATOM      6  C   UNL     1       2.082   4.346  19.243  0.00  0.00    +0.000 A 
ATOM      7  C   UNL     1       2.974   5.472  18.988  0.00  0.00    +0.000 A 
ATOM      8  O   UNL     1       3.088   6.380  19.810  0.00  0.00    +0.000 OA
ATOM      9  C   UNL     1       1.250   4.135  20.446  0.00  0.00    +0.000 C 
ATOM     10  C   UNL     1       0.479   2.852  20.104  0.00  0.00    +0.000 C 
ATOM     11  C   UNL     1       0.943   2.378  18.716  0.00  0.00    +0.000 C 
ENDBRANCH   1   2
BRANCH   1  14
ATOM     12  C   UNL     1       7.214   4.773  15.336  0.00  0.00    +0.000 C 
ATOM     13  N   UNL     1       6.412   5.182  16.479  0.00  0.00    +0.000 N 
ATOM     14  C   UNL     1       5.406   6.102  16.231  0.00  0.00    +0.000 C 
ATOM     15  O   UNL     1       5.182   6.514  15.090  0.00  0.00    +0.000 OA
BRANCH  13  16
ATOM     16  C   UNL     1       6.780   4.648  17.809  0.00  0.00    +0.000 C 
BRANCH  16  17
ATOM     17  C   UNL     1       7.578   5.575  18.739  0.00  0.00    +0.000 C 
ATOM     18  F   UNL     1       8.712   4.998  19.193  0.00  0.00    +0.000 F 
ATOM     19  F   UNL     1       7.935   6.713  18.104  0.00  0.00    +0.000 F 
ATOM     20  F   UNL     1       6.839   5.925  19.816  0.00  0.00    +0.000 F 
ENDBRANCH  16  17
ENDBRANCH  13  16
ENDBRANCH   1  14
TORSDOF 4
ENDMDL
