MODEL 1
REMARK VINA RESULT:      -7.3      0.000      0.000
REMARK  Name = 
REMARK  5 active torsions:
REMARK  status: ('A' for Active; 'I' for Inactive)
REMARK    1  A    between atoms: C_1  and  C_2
REMARK    2  A    between atoms: C_2  and  N_3
REMARK    3  A    between atoms: C_4  and  S_5
REMARK    4  A    between atoms: C_8  and  C_9
REMARK    5  A    between atoms: C_12  and  C_13
REMARK                            x       y       z     vdW  Elec       q    Type
REMARK                         _______ _______ _______ _____ _____    ______ ____
ROOT
ATOM      1  C   UNL     1       5.286   4.252  18.041  0.00  0.00    +0.000 A 
ATOM      2  C   UNL     1       6.054   5.356  18.345  0.00  0.00    +0.000 A 
ATOM      3  S   UNL     1       6.843   5.923  16.951  0.00  0.00    +0.000 S 
ATOM      4  C   UNL     1       6.144   4.634  16.028  0.00  0.00    +0.000 A 
ATOM      5  N   UNL     1       5.326   3.849  16.713  0.00  0.00    +0.000 NA
ENDROOT
BRANCH   4   6
ATOM      6  C   UNL     1       6.438   4.527  14.587  0.00  0.00    +0.000 A 
ATOM      7  C   UNL     1       5.727   3.651  13.747  0.00  0.00    +0.000 A 
ATOM      8  C   UNL     1       6.071   3.498  12.402  0.00  0.00    +0.000 A 
ATOM      9  C   UNL     1       7.124   4.232  11.867  0.00  0.00    +0.000 A 
ATOM     10  C   UNL     1       7.815   5.138  12.670  0.00  0.00    +0.000 A 
ATOM     11  C   UNL     1       7.472   5.290  14.018  0.00  0.00    +0.000 A 
ENDBRANCH   4   6
BRANCH   1  16
ATOM     12  N   UNL     1       3.184   3.876  19.506  0.00  0.00    +0.000 N 
ATOM     13  C   UNL     1       2.943   3.028  20.558  0.00  0.00    +0.000 A 
ATOM     14  N   UNL     1       3.970   2.231  20.734  0.00  0.00    +0.000 NA
ATOM     15  N   UNL     1       4.920   2.570  19.810  0.00  0.00    +0.000 NA
ATOM     16  C   UNL     1       4.467   3.584  19.097  0.00  0.00    +0.000 A 
BRANCH  12  18
ATOM     17  C   UNL     1       1.556   4.216  17.663  0.00  0.00    +0.000 C 
ATOM     18  C   UNL     1       2.266   4.795  18.874  0.00  0.00    +0.000 C 
ENDBRANCH  12  18
BRANCH  13  19
ATOM     19  S   UNL     1       1.524   2.998  21.543  0.00  0.00    +0.000 S 
ATOM     20  H   UNL     1       0.620   3.504  20.700  0.00  0.00    +0.000 HD
ENDBRANCH  13  19
ENDBRANCH   1  16
TORSDOF 4
ENDMDL
MODEL 2
REMARK VINA RESULT:      -7.3      0.140      1.114
REMARK  Name = 
REMARK  5 active torsions:
REMARK  status: ('A' for Active; 'I' for Inactive)
REMARK    1  A    between atoms: C_1  and  C_2
REMARK    2  A    between atoms: C_2  and  N_3
REMARK    3  A    between atoms: C_4  and  S_5
REMARK    4  A    between atoms: C_8  and  C_9
REMARK    5  A    between atoms: C_12  and  C_13
REMARK                            x       y       z     vdW  Elec       q    Type
REMARK                         _______ _______ _______ _____ _____    ______ ____
ROOT
ATOM      1  C   UNL     1       5.197   4.336  17.995  0.00  0.00    +0.000 A 
ATOM      2  C   UNL     1       5.778   5.559  18.254  0.00  0.00    +0.000 A 
ATOM      3  S   UNL     1       6.560   6.143  16.863  0.00  0.00    +0.000 S 
ATOM      4  C   UNL     1       6.112   4.705  16.005  0.00  0.00    +0.000 A 
ATOM      5  N   UNL     1       5.375   3.855  16.705  0.00  0.00    +0.000 NA
ENDROOT
BRANCH   4   6
ATOM      6  C   UNL     1       6.506   4.546  14.594  0.00  0.00    +0.000 A 
ATOM      7  C   UNL     1       7.543   5.306  14.022  0.00  0.00    +0.000 A 
ATOM      8  C   UNL     1       7.852   5.206  12.664  0.00  0.00    +0.000 A 
ATOM      9  C   UNL     1       7.140   4.329  11.853  0.00  0.00    +0.000 A 
ATOM     10  C   UNL     1       6.136   3.534  12.406  0.00  0.00    +0.000 A 
ATOM     11  C   UNL     1       5.825   3.636  13.767  0.00  0.00    +0.000 A 
ENDBRANCH   4   6
BRANCH   1  16
ATOM     12  N   UNL     1       3.135   3.868  19.490  0.00  0.00    +0.000 N 
ATOM     13  C   UNL     1       2.941   2.999  20.535  0.00  0.00    +0.000 A 
ATOM     14  N   UNL     1       3.998   2.236  20.683  0.00  0.00    +0.000 NA
ATOM     15  N   UNL     1       4.920   2.619  19.747  0.00  0.00    +0.000 NA
ATOM     16  C   UNL     1       4.420   3.626  19.056  0.00  0.00    +0.000 A 
BRANCH  12  18
ATOM     17  C   UNL     1       1.509   4.200  17.643  0.00  0.00    +0.000 C 
ATOM     18  C   UNL     1       2.175   4.763  18.887  0.00  0.00    +0.000 C 
ENDBRANCH  12  18
BRANCH  13  19
ATOM     19  S   UNL     1       1.541   2.907  21.543  0.00  0.00    +0.000 S 
ATOM     20  H   UNL     1       0.994   1.767  21.113  0.00  0.00    +0.000 HD
ENDBRANCH  13  19
ENDBRANCH   1  16
TORSDOF 4
ENDMDL
MODEL 3
REMARK VINA RESULT:      -7.0      1.083      1.668
REMARK  Name = 
REMARK  5 active torsions:
REMARK  status: ('A' for Active; 'I' for Inactive)
REMARK    1  A    between atoms: C_1  and  C_2
REMARK    2  A    between atoms: C_2  and  N_3
REMARK    3  A    between atoms: C_4  and  S_5
REMARK    4  A    between atoms: C_8  and  C_9
REMARK    5  A    between atoms: C_12  and  C_13
REMARK                            x       y       z     vdW  Elec       q    Type
REMARK                         _______ _______ _______ _____ _____    ______ ____
ROOT
ATOM      1  C   UNL     1       5.015   4.990  18.108  0.00  0.00    +0.000 A 
ATOM      2  C   UNL     1       6.178   5.649  18.445  0.00  0.00    +0.000 A 
ATOM      3  S   UNL     1       7.193   5.779  17.088  0.00  0.00    +0.000 S 
ATOM      4  C   UNL     1       6.035   4.909  16.136  0.00  0.00    +0.000 A 
ATOM      5  N   UNL     1       4.927   4.580  16.784  0.00  0.00    +0.000 NA
ENDROOT
BRANCH   4   6
ATOM      6  C   UNL     1       6.311   4.649  14.711  0.00  0.00    +0.000 A 
ATOM      7  C   UNL     1       5.541   3.744  13.959  0.00  0.00    +0.000 A 
ATOM      8  C   UNL     1       5.864   3.445  12.633  0.00  0.00    +0.000 A 
ATOM      9  C   UNL     1       6.954   4.061  12.029  0.00  0.00    +0.000 A 
ATOM     10  C   UNL     1       7.706   4.994  12.741  0.00  0.00    +0.000 A 
ATOM     11  C   UNL     1       7.384   5.292  14.070  0.00  0.00    +0.000 A 
ENDBRANCH   4   6
BRANCH   1  16
ATOM     12  N   UNL     1       3.524   3.593  19.699  0.00  0.00    +0.000 N 
ATOM     13  C   UNL     1       2.460   3.940  20.494  0.00  0.00    +0.000 A 
ATOM     14  N   UNL     1       2.286   5.240  20.466  0.00  0.00    +0.000 NA
ATOM     15  N   UNL     1       3.224   5.765  19.619  0.00  0.00    +0.000 NA
ATOM     16  C   UNL     1       3.943   4.775  19.126  0.00  0.00    +0.000 A 
BRANCH  12  18
ATOM     17  C   UNL     1       3.609   1.461  18.431  0.00  0.00    +0.000 C 
ATOM     18  C   UNL     1       4.156   2.301  19.572  0.00  0.00    +0.000 C 
ENDBRANCH  12  18
BRANCH  13  19
ATOM     19  S   UNL     1       1.459   2.857  21.395  0.00  0.00    +0.000 S 
ATOM     20  H   UNL     1       1.376   1.827  20.548  0.00  0.00    +0.000 HD
ENDBRANCH  13  19
ENDBRANCH   1  16
TORSDOF 4
ENDMDL
MODEL 4
REMARK VINA RESULT:      -7.0      1.092      2.023
REMARK  Name = 
REMARK  5 active torsions:
REMARK  status: ('A' for Active; 'I' for Inactive)
REMARK    1  A    between atoms: C_1  and  C_2
REMARK    2  A    between atoms: C_2  and  N_3
REMARK    3  A    between atoms: C_4  and  S_5
REMARK    4  A    between atoms: C_8  and  C_9
REMARK    5  A    between atoms: C_12  and  C_13
REMARK                            x       y       z     vdW  Elec       q    Type
REMARK                         _______ _______ _______ _____ _____    ______ ____
ROOT
ATOM      1  C   UNL     1       4.944   5.083  17.966  0.00  0.00    +0.000 A 
ATOM      2  C   UNL     1       6.054   5.834  18.290  0.00  0.00    +0.000 A 
ATOM      3  S   UNL     1       7.099   5.942  16.954  0.00  0.00    +0.000 S 
ATOM      4  C   UNL     1       6.024   4.945  16.030  0.00  0.00    +0.000 A 
ATOM      5  N   UNL     1       4.920   4.588  16.669  0.00  0.00    +0.000 NA
ENDROOT
BRANCH   4   6
ATOM      6  C   UNL     1       6.357   4.616  14.632  0.00  0.00    +0.000 A 
ATOM      7  C   UNL     1       7.444   5.211  13.968  0.00  0.00    +0.000 A 
ATOM      8  C   UNL     1       7.699   4.953  12.619  0.00  0.00    +0.000 A 
ATOM      9  C   UNL     1       6.879   4.080  11.913  0.00  0.00    +0.000 A 
ATOM     10  C   UNL     1       5.821   3.446  12.561  0.00  0.00    +0.000 A 
ATOM     11  C   UNL     1       5.564   3.705  13.912  0.00  0.00    +0.000 A 
ENDBRANCH   4   6
BRANCH   1  16
ATOM     12  N   UNL     1       3.459   3.688  19.564  0.00  0.00    +0.000 N 
ATOM     13  C   UNL     1       2.370   4.026  20.329  0.00  0.00    +0.000 A 
ATOM     14  N   UNL     1       2.162   5.319  20.263  0.00  0.00    +0.000 NA
ATOM     15  N   UNL     1       3.102   5.848  19.421  0.00  0.00    +0.000 NA
ATOM     16  C   UNL     1       3.858   4.865  18.969  0.00  0.00    +0.000 A 
BRANCH  12  18
ATOM     17  C   UNL     1       3.563   1.488  18.418  0.00  0.00    +0.000 C 
ATOM     18  C   UNL     1       4.129   2.410  19.484  0.00  0.00    +0.000 C 
ENDBRANCH  12  18
BRANCH  13  19
ATOM     19  S   UNL     1       1.381   2.939  21.238  0.00  0.00    +0.000 S 
ATOM     20  H   UNL     1       2.212   2.611  22.231  0.00  0.00    +0.000 HD
ENDBRANCH  13  19
ENDBRANCH   1  16
TORSDOF 4
ENDMDL
MODEL 5
REMARK VINA RESULT:      -6.6      4.544      7.897
REMARK  Name = 
REMARK  5 active torsions:
REMARK  status: ('A' for Active; 'I' for Inactive)
REMARK    1  A    between atoms: C_1  and  C_2
REMARK    2  A    between atoms: C_2  and  N_3
REMARK    3  A    between atoms: C_4  and  S_5
REMARK    4  A    between atoms: C_8  and  C_9
REMARK    5  A    between atoms: C_12  and  C_13
REMARK                            x       y       z     vdW  Elec       q    Type
REMARK                         _______ _______ _______ _____ _____    ______ ____
ROOT
ATOM      1  C   UNL     1       2.597   7.028  18.969  0.00  0.00    +0.000 A 
ATOM      2  C   UNL     1       2.513   7.897  17.903  0.00  0.00    +0.000 A 
ATOM      3  S   UNL     1       1.652   9.293  18.351  0.00  0.00    +0.000 S 
ATOM      4  C   UNL     1       1.406   8.635  19.935  0.00  0.00    +0.000 A 
ATOM      5  N   UNL     1       1.977   7.456  20.135  0.00  0.00    +0.000 NA
ENDROOT
BRANCH   4   6
ATOM      6  C   UNL     1       0.661   9.415  20.940  0.00  0.00    +0.000 A 
ATOM      7  C   UNL     1       0.584   9.012  22.285  0.00  0.00    +0.000 A 
ATOM      8  C   UNL     1      -0.193   9.714  23.209  0.00  0.00    +0.000 A 
ATOM      9  C   UNL     1      -0.895  10.845  22.808  0.00  0.00    +0.000 A 
ATOM     10  C   UNL     1      -0.801  11.288  21.489  0.00  0.00    +0.000 A 
ATOM     11  C   UNL     1      -0.024  10.583  20.563  0.00  0.00    +0.000 A 
ENDBRANCH   4   6
BRANCH   1  16
ATOM     12  N   UNL     1       2.835   4.451  18.875  0.00  0.00    +0.000 N 
ATOM     13  C   UNL     1       3.938   3.637  18.797  0.00  0.00    +0.000 A 
ATOM     14  N   UNL     1       5.021   4.364  18.651  0.00  0.00    +0.000 NA
ATOM     15  N   UNL     1       4.641   5.678  18.662  0.00  0.00    +0.000 NA
ATOM     16  C   UNL     1       3.334   5.735  18.837  0.00  0.00    +0.000 A 
BRANCH  12  18
ATOM     17  C   UNL     1       0.869   3.845  20.264  0.00  0.00    +0.000 C 
ATOM     18  C   UNL     1       1.443   4.066  18.875  0.00  0.00    +0.000 C 
ENDBRANCH  12  18
BRANCH  13  19
ATOM     19  S   UNL     1       3.946   1.912  18.896  0.00  0.00    +0.000 S 
ATOM     20  H   UNL     1       5.183   1.640  18.474  0.00  0.00    +0.000 HD
ENDBRANCH  13  19
ENDBRANCH   1  16
TORSDOF 4
ENDMDL
MODEL 6
REMARK VINA RESULT:      -6.6      4.585      7.938
REMARK  Name = 
REMARK  5 active torsions:
REMARK  status: ('A' for Active; 'I' for Inactive)
REMARK    1  A    between atoms: C_1  and  C_2
REMARK    2  A    between atoms: C_2  and  N_3
REMARK    3  A    between atoms: C_4  and  S_5
REMARK    4  A    between atoms: C_8  and  C_9
REMARK    5  A    between atoms: C_12  and  C_13
REMARK                            x       y       z     vdW  Elec       q    Type
REMARK                         _______ _______ _______ _____ _____    ______ ____
ROOT
ATOM      1  C   UNL     1       2.615   7.055  19.129  0.00  0.00    +0.000 A 
ATOM      2  C   UNL     1       2.555   7.858  18.010  0.00  0.00    +0.000 A 
ATOM      3  S   UNL     1       1.618   9.239  18.331  0.00  0.00    +0.000 S 
ATOM      4  C   UNL     1       1.312   8.662  19.936  0.00  0.00    +0.000 A 
ATOM      5  N   UNL     1       1.918   7.523  20.234  0.00  0.00    +0.000 NA
ENDROOT
BRANCH   4   6
ATOM      6  C   UNL     1       0.485   9.467  20.854  0.00  0.00    +0.000 A 
ATOM      7  C   UNL     1      -0.131  10.663  20.443  0.00  0.00    +0.000 A 
ATOM      8  C   UNL     1      -0.843  11.458  21.343  0.00  0.00    +0.000 A 
ATOM      9  C   UNL     1      -0.968  11.062  22.670  0.00  0.00    +0.000 A 
ATOM     10  C   UNL     1      -0.403   9.859  23.091  0.00  0.00    +0.000 A 
ATOM     11  C   UNL     1       0.313   9.063  22.189  0.00  0.00    +0.000 A 
ENDBRANCH   4   6
BRANCH   1  16
ATOM     12  N   UNL     1       2.956   4.488  19.168  0.00  0.00    +0.000 N 
ATOM     13  C   UNL     1       4.091   3.717  19.211  0.00  0.00    +0.000 A 
ATOM     14  N   UNL     1       5.154   4.480  19.116  0.00  0.00    +0.000 NA
ATOM     15  N   UNL     1       4.726   5.778  19.040  0.00  0.00    +0.000 NA
ATOM     16  C   UNL     1       3.408   5.789  19.111  0.00  0.00    +0.000 A 
BRANCH  12  18
ATOM     17  C   UNL     1       0.916   3.846  20.429  0.00  0.00    +0.000 C 
ATOM     18  C   UNL     1       1.583   4.047  19.080  0.00  0.00    +0.000 C 
ENDBRANCH  12  18
BRANCH  13  19
ATOM     19  S   UNL     1       4.155   1.999  19.387  0.00  0.00    +0.000 S 
ATOM     20  H   UNL     1       2.931   1.747  19.858  0.00  0.00    +0.000 HD
ENDBRANCH  13  19
ENDBRANCH   1  16
TORSDOF 4
ENDMDL
MODEL 7
REMARK VINA RESULT:      -6.5      1.073      1.546
REMARK  Name = 
REMARK  5 active torsions:
REMARK  status: ('A' for Active; 'I' for Inactive)
REMARK    1  A    between atoms: C_1  and  C_2
REMARK    2  A    between atoms: C_2  and  N_3
REMARK    3  A    between atoms: C_4  and  S_5
REMARK    4  A    between atoms: C_8  and  C_9
REMARK    5  A    between atoms: C_12  and  C_13
REMARK                            x       y       z     vdW  Elec       q    Type
REMARK                         _______ _______ _______ _____ _____    ______ ____
ROOT
ATOM      1  C   UNL     1       4.957   3.915  17.617  0.00  0.00    +0.000 A 
ATOM      2  C   UNL     1       5.893   4.759  18.174  0.00  0.00    +0.000 A 
ATOM      3  S   UNL     1       6.961   5.321  16.977  0.00  0.00    +0.000 S 
ATOM      4  C   UNL     1       6.133   4.369  15.788  0.00  0.00    +0.000 A 
ATOM      5  N   UNL     1       5.085   3.704  16.251  0.00  0.00    +0.000 NA
ENDROOT
BRANCH   4   6
ATOM      6  C   UNL     1       6.585   4.401  14.386  0.00  0.00    +0.000 A 
ATOM      7  C   UNL     1       7.579   5.293  13.946  0.00  0.00    +0.000 A 
ATOM      8  C   UNL     1       7.940   5.371  12.599  0.00  0.00    +0.000 A 
ATOM      9  C   UNL     1       7.324   4.543  11.667  0.00  0.00    +0.000 A 
ATOM     10  C   UNL     1       6.366   3.620  12.086  0.00  0.00    +0.000 A 
ATOM     11  C   UNL     1       6.003   3.544  13.435  0.00  0.00    +0.000 A 
ENDBRANCH   4   6
BRANCH   1  16
ATOM     12  N   UNL     1       3.213   3.866  19.531  0.00  0.00    +0.000 N 
ATOM     13  C   UNL     1       2.402   2.864  20.004  0.00  0.00    +0.000 A 
ATOM     14  N   UNL     1       2.514   1.802  19.242  0.00  0.00    +0.000 NA
ATOM     15  N   UNL     1       3.432   2.086  18.268  0.00  0.00    +0.000 NA
ATOM     16  C   UNL     1       3.884   3.310  18.463  0.00  0.00    +0.000 A 
BRANCH  12  18
ATOM     17  C   UNL     1       2.424   6.187  19.140  0.00  0.00    +0.000 C 
ATOM     18  C   UNL     1       3.276   5.241  19.968  0.00  0.00    +0.000 C 
ENDBRANCH  12  18
BRANCH  13  19
ATOM     19  S   UNL     1       1.389   2.941  21.401  0.00  0.00    +0.000 S 
ATOM     20  H   UNL     1       0.704   4.062  21.156  0.00  0.00    +0.000 HD
ENDBRANCH  13  19
ENDBRANCH   1  16
TORSDOF 4
ENDMDL
MODEL 8
REMARK VINA RESULT:      -6.1      4.683      6.003
REMARK  Name = 
REMARK  5 active torsions:
REMARK  status: ('A' for Active; 'I' for Inactive)
REMARK    1  A    between atoms: C_1  and  C_2
REMARK    2  A    between atoms: C_2  and  N_3
REMARK    3  A    between atoms: C_4  and  S_5
REMARK    4  A    between atoms: C_8  and  C_9
REMARK    5  A    between atoms: C_12  and  C_13
REMARK                            x       y       z     vdW  Elec       q    Type
REMARK                         _______ _______ _______ _____ _____    ______ ____
ROOT
ATOM      1  C   UNL     1       1.814   7.505  20.206  0.00  0.00    +0.000 A 
ATOM      2  C   UNL     1       1.529   6.279  20.767  0.00  0.00    +0.000 A 
ATOM      3  S   UNL     1       2.283   5.040  19.881  0.00  0.00    +0.000 S 
ATOM      4  C   UNL     1       2.914   6.213  18.773  0.00  0.00    +0.000 A 
ATOM      5  N   UNL     1       2.618   7.469  19.075  0.00  0.00    +0.000 NA
ENDROOT
BRANCH   4   6
ATOM      6  C   UNL     1       3.755   5.771  17.645  0.00  0.00    +0.000 A 
ATOM      7  C   UNL     1       3.910   4.411  17.323  0.00  0.00    +0.000 A 
ATOM      8  C   UNL     1       4.774   4.001  16.306  0.00  0.00    +0.000 A 
ATOM      9  C   UNL     1       5.487   4.947  15.578  0.00  0.00    +0.000 A 
ATOM     10  C   UNL     1       5.318   6.303  15.851  0.00  0.00    +0.000 A 
ATOM     11  C   UNL     1       4.454   6.714  16.872  0.00  0.00    +0.000 A 
ENDBRANCH   4   6
BRANCH   1  16
ATOM     12  N   UNL     1       0.889   9.924  20.199  0.00  0.00    +0.000 N 
ATOM     13  C   UNL     1       0.583  10.789  21.220  0.00  0.00    +0.000 A 
ATOM     14  N   UNL     1       0.717  10.182  22.375  0.00  0.00    +0.000 NA
ATOM     15  N   UNL     1       1.146   8.907  22.125  0.00  0.00    +0.000 NA
ATOM     16  C   UNL     1       1.289   8.762  20.821  0.00  0.00    +0.000 A 
BRANCH  12  18
ATOM     17  C   UNL     1      -0.730  10.120  18.327  0.00  0.00    +0.000 C 
ATOM     18  C   UNL     1       0.720  10.129  18.779  0.00  0.00    +0.000 C 
ENDBRANCH  12  18
BRANCH  13  19
ATOM     19  S   UNL     1       0.112  12.443  21.054  0.00  0.00    +0.000 S 
ATOM     20  H   UNL     1      -0.747  12.565  22.070  0.00  0.00    +0.000 HD
ENDBRANCH  13  19
ENDBRANCH   1  16
TORSDOF 4
ENDMDL
MODEL 9
REMARK VINA RESULT:      -6.1      4.679      6.079
REMARK  Name = 
REMARK  5 active torsions:
REMARK  status: ('A' for Active; 'I' for Inactive)
REMARK    1  A    between atoms: C_1  and  C_2
REMARK    2  A    between atoms: C_2  and  N_3
REMARK    3  A    between atoms: C_4  and  S_5
REMARK    4  A    between atoms: C_8  and  C_9
REMARK    5  A    between atoms: C_12  and  C_13
REMARK                            x       y       z     vdW  Elec       q    Type
REMARK                         _______ _______ _______ _____ _____    ______ ____
ROOT
ATOM      1  C   UNL     1       1.828   7.512  20.207  0.00  0.00    +0.000 A 
ATOM      2  C   UNL     1       1.522   6.284  20.753  0.00  0.00    +0.000 A 
ATOM      3  S   UNL     1       2.302   5.047  19.888  0.00  0.00    +0.000 S 
ATOM      4  C   UNL     1       2.972   6.223  18.806  0.00  0.00    +0.000 A 
ATOM      5  N   UNL     1       2.669   7.478  19.104  0.00  0.00    +0.000 NA
ENDROOT
BRANCH   4   6
ATOM      6  C   UNL     1       3.849   5.785  17.705  0.00  0.00    +0.000 A 
ATOM      7  C   UNL     1       4.534   6.704  16.891  0.00  0.00    +0.000 A 
ATOM      8  C   UNL     1       5.296   6.279  15.799  0.00  0.00    +0.000 A 
ATOM      9  C   UNL     1       5.400   4.922  15.513  0.00  0.00    +0.000 A 
ATOM     10  C   UNL     1       4.764   3.990  16.331  0.00  0.00    +0.000 A 
ATOM     11  C   UNL     1       4.000   4.416  17.423  0.00  0.00    +0.000 A 
ENDBRANCH   4   6
BRANCH   1  16
ATOM     12  N   UNL     1       0.889   9.925  20.179  0.00  0.00    +0.000 N 
ATOM     13  C   UNL     1       0.561  10.790  21.193  0.00  0.00    +0.000 A 
ATOM     14  N   UNL     1       0.680  10.187  22.352  0.00  0.00    +0.000 NA
ATOM     15  N   UNL     1       1.120   8.913  22.112  0.00  0.00    +0.000 NA
ATOM     16  C   UNL     1       1.285   8.766  20.811  0.00  0.00    +0.000 A 
BRANCH  12  18
ATOM     17  C   UNL     1      -0.700  10.104  18.280  0.00  0.00    +0.000 C 
ATOM     18  C   UNL     1       0.742  10.125  18.756  0.00  0.00    +0.000 C 
ENDBRANCH  12  18
BRANCH  13  19
ATOM     19  S   UNL     1       0.083  12.441  21.015  0.00  0.00    +0.000 S 
ATOM     20  H   UNL     1      -0.136  12.780  22.288  0.00  0.00    +0.000 HD
ENDBRANCH  13  19
ENDBRANCH   1  16
TORSDOF 4
ENDMDL
