MODEL 1
REMARK VINA RESULT:      -7.0      0.000      0.000
REMARK  Name = 
REMARK  3 active torsions:
REMARK  status: ('A' for Active; 'I' for Inactive)
REMARK    1  A    between atoms: N_1  and  C_2
REMARK    2  A    between atoms: C_5  and  S_6
REMARK    3  A    between atoms: S_6  and  N_9
REMARK                            x       y       z     vdW  Elec       q    Type
REMARK                         _______ _______ _______ _____ _____    ______ ____
ROOT
ATOM      1  S   UNL     1       6.350   5.126  18.797  0.00  0.00    +0.000 S 
ATOM      2  O   UNL     1       6.912   5.895  19.887  0.00  0.00    +0.000 OA
ATOM      3  O   UNL     1       7.013   3.936  18.308  0.00  0.00    +0.000 OA
ENDROOT
BRANCH   1   4
ATOM      4  N   UNL     1       6.135   6.131  17.457  0.00  0.00    +0.000 N 
ATOM      5  C   UNL     1       6.138   5.487  16.207  0.00  0.00    +0.000 A 
ATOM      6  C   UNL     1       5.016   4.865  15.686  0.00  0.00    +0.000 A 
ATOM      7  C   UNL     1       5.129   4.258  14.435  0.00  0.00    +0.000 A 
ATOM      8  C   UNL     1       6.359   4.278  13.784  0.00  0.00    +0.000 A 
ATOM      9 BR   UNL     1       6.571   3.469  12.097  0.00  0.00    +0.000 Br
ATOM     10  C   UNL     1       7.425   4.912  14.406  0.00  0.00    +0.000 A 
ATOM     11  N   UNL     1       7.339   5.532  15.606  0.00  0.00    +0.000 NA
ATOM     12  H   UNL     1       6.844   6.860  17.468  0.00  0.00    +0.000 HD
ENDBRANCH   1   4
BRANCH   1  16
ATOM     13  C   UNL     1       2.104   3.884  20.013  0.00  0.00    +0.000 A 
ATOM     14  C   UNL     1       3.084   2.920  19.761  0.00  0.00    +0.000 A 
ATOM     15  C   UNL     1       4.371   3.294  19.363  0.00  0.00    +0.000 A 
ATOM     16  C   UNL     1       4.692   4.649  19.247  0.00  0.00    +0.000 A 
ATOM     17  C   UNL     1       3.747   5.625  19.571  0.00  0.00    +0.000 A 
ATOM     18  C   UNL     1       2.462   5.236  19.965  0.00  0.00    +0.000 A 
BRANCH  13  19
ATOM     19  N   UNL     1       0.865   3.503  20.540  0.00  0.00    +0.000 N 
ATOM     20  H   UNL     1       0.911   2.710  21.173  0.00  0.00    +0.000 HD
ATOM     21  H   UNL     1       0.131   3.400  19.847  0.00  0.00    +0.000 HD
ENDBRANCH  13  19
ENDBRANCH   1  16
TORSDOF 3
ENDMDL
MODEL 2
REMARK VINA RESULT:      -6.9      0.138      1.145
REMARK  Name = 
REMARK  3 active torsions:
REMARK  status: ('A' for Active; 'I' for Inactive)
REMARK    1  A    between atoms: N_1  and  C_2
REMARK    2  A    between atoms: C_5  and  S_6
REMARK    3  A    between atoms: S_6  and  N_9
REMARK                            x       y       z     vdW  Elec       q    Type
REMARK                         _______ _______ _______ _____ _____    ______ ____
ROOT
ATOM      1  S   UNL     1       6.272   5.106  18.789  0.00  0.00    +0.000 S 
ATOM      2  O   UNL     1       6.870   5.874  19.861  0.00  0.00    +0.000 OA
ATOM      3  O   UNL     1       6.911   3.907  18.289  0.00  0.00    +0.000 OA
ENDROOT
BRANCH   1   4
ATOM      4  N   UNL     1       6.033   6.108  17.450  0.00  0.00    +0.000 N 
ATOM      5  C   UNL     1       6.055   5.467  16.199  0.00  0.00    +0.000 A 
ATOM      6  C   UNL     1       4.950   4.816  15.675  0.00  0.00    +0.000 A 
ATOM      7  C   UNL     1       5.081   4.215  14.423  0.00  0.00    +0.000 A 
ATOM      8  C   UNL     1       6.311   4.269  13.775  0.00  0.00    +0.000 A 
ATOM      9 BR   UNL     1       6.548   3.468  12.086  0.00  0.00    +0.000 Br
ATOM     10  C   UNL     1       7.360   4.929  14.399  0.00  0.00    +0.000 A 
ATOM     11  N   UNL     1       7.255   5.544  15.600  0.00  0.00    +0.000 NA
ATOM     12  H   UNL     1       6.722   6.856  17.464  0.00  0.00    +0.000 HD
ENDBRANCH   1   4
BRANCH   1  16
ATOM     13  C   UNL     1       2.003   3.946  20.006  0.00  0.00    +0.000 A 
ATOM     14  C   UNL     1       2.390   5.288  19.952  0.00  0.00    +0.000 A 
ATOM     15  C   UNL     1       3.698   5.644  19.610  0.00  0.00    +0.000 A 
ATOM     16  C   UNL     1       4.622   4.648  19.284  0.00  0.00    +0.000 A 
ATOM     17  C   UNL     1       4.230   3.308  19.256  0.00  0.00    +0.000 A 
ATOM     18  C   UNL     1       2.918   2.967  19.605  0.00  0.00    +0.000 A 
BRANCH  13  19
ATOM     19  N   UNL     1       0.661   3.611  20.216  0.00  0.00    +0.000 N 
ATOM     20  H   UNL     1       0.447   2.632  20.050  0.00  0.00    +0.000 HD
ATOM     21  H   UNL     1       0.001   4.232  19.759  0.00  0.00    +0.000 HD
ENDBRANCH  13  19
ENDBRANCH   1  16
TORSDOF 3
ENDMDL
MODEL 3
REMARK VINA RESULT:      -6.6      3.429      6.182
REMARK  Name = 
REMARK  3 active torsions:
REMARK  status: ('A' for Active; 'I' for Inactive)
REMARK    1  A    between atoms: N_1  and  C_2
REMARK    2  A    between atoms: C_5  and  S_6
REMARK    3  A    between atoms: S_6  and  N_9
REMARK                            x       y       z     vdW  Elec       q    Type
REMARK                         _______ _______ _______ _____ _____    ______ ____
ROOT
ATOM      1  S   UNL     1       4.837   4.323  19.045  0.00  0.00    +0.000 S 
ATOM      2  O   UNL     1       5.068   2.978  19.530  0.00  0.00    +0.000 OA
ATOM      3  O   UNL     1       5.249   5.474  19.820  0.00  0.00    +0.000 OA
ENDROOT
BRANCH   1   4
ATOM      4  N   UNL     1       3.189   4.528  18.736  0.00  0.00    +0.000 N 
ATOM      5  C   UNL     1       2.676   5.811  18.998  0.00  0.00    +0.000 A 
ATOM      6  C   UNL     1       2.785   6.857  18.097  0.00  0.00    +0.000 A 
ATOM      7  C   UNL     1       2.238   8.088  18.458  0.00  0.00    +0.000 A 
ATOM      8  C   UNL     1       1.638   8.219  19.707  0.00  0.00    +0.000 A 
ATOM      9 BR   UNL     1       0.889   9.860  20.251  0.00  0.00    +0.000 Br
ATOM     10  C   UNL     1       1.601   7.111  20.543  0.00  0.00    +0.000 A 
ATOM     11  N   UNL     1       2.100   5.898  20.209  0.00  0.00    +0.000 NA
ATOM     12  H   UNL     1       2.661   3.834  19.259  0.00  0.00    +0.000 HD
ENDBRANCH   1   4
BRANCH   1  16
ATOM     13  C   UNL     1       6.765   4.774  14.906  0.00  0.00    +0.000 A 
ATOM     14  C   UNL     1       5.424   4.402  15.031  0.00  0.00    +0.000 A 
ATOM     15  C   UNL     1       4.840   4.236  16.292  0.00  0.00    +0.000 A 
ATOM     16  C   UNL     1       5.598   4.477  17.440  0.00  0.00    +0.000 A 
ATOM     17  C   UNL     1       6.916   4.924  17.331  0.00  0.00    +0.000 A 
ATOM     18  C   UNL     1       7.487   5.083  16.064  0.00  0.00    +0.000 A 
BRANCH  13  19
ATOM     19  N   UNL     1       7.296   5.068  13.646  0.00  0.00    +0.000 N 
ATOM     20  H   UNL     1       7.720   4.272  13.178  0.00  0.00    +0.000 HD
ATOM     21  H   UNL     1       7.894   5.888  13.627  0.00  0.00    +0.000 HD
ENDBRANCH  13  19
ENDBRANCH   1  16
TORSDOF 3
ENDMDL
MODEL 4
REMARK VINA RESULT:      -6.6      1.261      1.758
REMARK  Name = 
REMARK  3 active torsions:
REMARK  status: ('A' for Active; 'I' for Inactive)
REMARK    1  A    between atoms: N_1  and  C_2
REMARK    2  A    between atoms: C_5  and  S_6
REMARK    3  A    between atoms: S_6  and  N_9
REMARK                            x       y       z     vdW  Elec       q    Type
REMARK                         _______ _______ _______ _____ _____    ______ ____
ROOT
ATOM      1  S   UNL     1       7.036   5.801  17.508  0.00  0.00    +0.000 S 
ATOM      2  O   UNL     1       7.659   6.856  18.281  0.00  0.00    +0.000 OA
ATOM      3  O   UNL     1       7.745   4.572  17.221  0.00  0.00    +0.000 OA
ENDROOT
BRANCH   1   4
ATOM      4  N   UNL     1       6.543   6.420  16.016  0.00  0.00    +0.000 N 
ATOM      5  C   UNL     1       6.435   5.483  14.973  0.00  0.00    +0.000 A 
ATOM      6  C   UNL     1       5.317   4.683  14.801  0.00  0.00    +0.000 A 
ATOM      7  C   UNL     1       5.315   3.788  13.732  0.00  0.00    +0.000 A 
ATOM      8  C   UNL     1       6.436   3.716  12.910  0.00  0.00    +0.000 A 
ATOM      9 BR   UNL     1       6.491   2.520  11.456  0.00  0.00    +0.000 Br
ATOM     10  C   UNL     1       7.512   4.549  13.184  0.00  0.00    +0.000 A 
ATOM     11  N   UNL     1       7.532   5.445  14.198  0.00  0.00    +0.000 NA
ATOM     12  H   UNL     1       7.172   7.170  15.739  0.00  0.00    +0.000 HD
ENDBRANCH   1   4
BRANCH   1  16
ATOM     13  C   UNL     1       3.086   4.616  19.518  0.00  0.00    +0.000 A 
ATOM     14  C   UNL     1       3.186   5.802  18.785  0.00  0.00    +0.000 A 
ATOM     15  C   UNL     1       4.396   6.181  18.195  0.00  0.00    +0.000 A 
ATOM     16  C   UNL     1       5.511   5.347  18.311  0.00  0.00    +0.000 A 
ATOM     17  C   UNL     1       5.407   4.122  18.973  0.00  0.00    +0.000 A 
ATOM     18  C   UNL     1       4.190   3.758  19.561  0.00  0.00    +0.000 A 
BRANCH  13  19
ATOM     19  N   UNL     1       1.840   4.184  19.986  0.00  0.00    +0.000 N 
ATOM     20  H   UNL     1       1.099   4.228  19.292  0.00  0.00    +0.000 HD
ATOM     21  H   UNL     1       1.563   4.595  20.872  0.00  0.00    +0.000 HD
ENDBRANCH  13  19
ENDBRANCH   1  16
TORSDOF 3
ENDMDL
MODEL 5
REMARK VINA RESULT:      -6.5      3.540      4.172
REMARK  Name = 
REMARK  3 active torsions:
REMARK  status: ('A' for Active; 'I' for Inactive)
REMARK    1  A    between atoms: N_1  and  C_2
REMARK    2  A    between atoms: C_5  and  S_6
REMARK    3  A    between atoms: S_6  and  N_9
REMARK                            x       y       z     vdW  Elec       q    Type
REMARK                         _______ _______ _______ _____ _____    ______ ____
ROOT
ATOM      1  S   UNL     1       2.750   5.623  19.266  0.00  0.00    +0.000 S 
ATOM      2  O   UNL     1       2.520   5.081  20.589  0.00  0.00    +0.000 OA
ATOM      3  O   UNL     1       2.210   4.971  18.092  0.00  0.00    +0.000 OA
ENDROOT
BRANCH   1   4
ATOM      4  N   UNL     1       4.412   5.768  19.002  0.00  0.00    +0.000 N 
ATOM      5  C   UNL     1       4.852   5.457  17.703  0.00  0.00    +0.000 A 
ATOM      6  C   UNL     1       4.797   6.366  16.660  0.00  0.00    +0.000 A 
ATOM      7  C   UNL     1       5.262   5.954  15.412  0.00  0.00    +0.000 A 
ATOM      8  C   UNL     1       5.729   4.652  15.262  0.00  0.00    +0.000 A 
ATOM      9 BR   UNL     1       6.363   4.039  13.597  0.00  0.00    +0.000 Br
ATOM     10  C   UNL     1       5.722   3.815  16.369  0.00  0.00    +0.000 A 
ATOM     11  N   UNL     1       5.301   4.196  17.599  0.00  0.00    +0.000 NA
ATOM     12  H   UNL     1       4.910   5.193  19.679  0.00  0.00    +0.000 HD
ENDBRANCH   1   4
BRANCH   1  16
ATOM     13  C   UNL     1       1.186   9.935  19.176  0.00  0.00    +0.000 A 
ATOM     14  C   UNL     1       1.652   9.321  18.010  0.00  0.00    +0.000 A 
ATOM     15  C   UNL     1       2.156   8.017  18.039  0.00  0.00    +0.000 A 
ATOM     16  C   UNL     1       2.163   7.306  19.242  0.00  0.00    +0.000 A 
ATOM     17  C   UNL     1       1.628   7.877  20.398  0.00  0.00    +0.000 A 
ATOM     18  C   UNL     1       1.131   9.184  20.355  0.00  0.00    +0.000 A 
BRANCH  13  19
ATOM     19  N   UNL     1       0.561  11.185  19.108  0.00  0.00    +0.000 N 
ATOM     20  H   UNL     1       0.340  11.487  18.163  0.00  0.00    +0.000 HD
ATOM     21  H   UNL     1       1.023  11.912  19.646  0.00  0.00    +0.000 HD
ENDBRANCH  13  19
ENDBRANCH   1  16
TORSDOF 3
ENDMDL
MODEL 6
REMARK VINA RESULT:      -6.5      1.127      1.170
REMARK  Name = 
REMARK  3 active torsions:
REMARK  status: ('A' for Active; 'I' for Inactive)
REMARK    1  A    between atoms: N_1  and  C_2
REMARK    2  A    between atoms: C_5  and  S_6
REMARK    3  A    between atoms: S_6  and  N_9
REMARK                            x       y       z     vdW  Elec       q    Type
REMARK                         _______ _______ _______ _____ _____    ______ ____
ROOT
ATOM      1  S   UNL     1       5.787   4.963  18.496  0.00  0.00    +0.000 S 
ATOM      2  O   UNL     1       5.826   5.762  19.703  0.00  0.00    +0.000 OA
ATOM      3  O   UNL     1       6.842   4.018  18.197  0.00  0.00    +0.000 OA
ENDROOT
BRANCH   1   4
ATOM      4  N   UNL     1       5.673   5.983  17.154  0.00  0.00    +0.000 N 
ATOM      5  C   UNL     1       5.900   5.375  15.907  0.00  0.00    +0.000 A 
ATOM      6  C   UNL     1       4.916   4.678  15.226  0.00  0.00    +0.000 A 
ATOM      7  C   UNL     1       5.248   4.116  13.994  0.00  0.00    +0.000 A 
ATOM      8  C   UNL     1       6.550   4.253  13.520  0.00  0.00    +0.000 A 
ATOM      9 BR   UNL     1       7.057   3.509  11.865  0.00  0.00    +0.000 Br
ATOM     10  C   UNL     1       7.465   4.955  14.291  0.00  0.00    +0.000 A 
ATOM     11  N   UNL     1       7.164   5.533  15.478  0.00  0.00    +0.000 NA
ATOM     12  H   UNL     1       6.310   6.767  17.274  0.00  0.00    +0.000 HD
ENDBRANCH   1   4
BRANCH   1  16
ATOM     13  C   UNL     1       1.839   2.625  18.509  0.00  0.00    +0.000 A 
ATOM     14  C   UNL     1       3.036   2.006  18.880  0.00  0.00    +0.000 A 
ATOM     15  C   UNL     1       4.246   2.707  18.850  0.00  0.00    +0.000 A 
ATOM     16  C   UNL     1       4.254   4.054  18.476  0.00  0.00    +0.000 A 
ATOM     17  C   UNL     1       3.057   4.707  18.179  0.00  0.00    +0.000 A 
ATOM     18  C   UNL     1       1.855   3.992  18.210  0.00  0.00    +0.000 A 
BRANCH  13  19
ATOM     19  N   UNL     1       0.623   1.954  18.674  0.00  0.00    +0.000 N 
ATOM     20  H   UNL     1       0.567   1.399  19.523  0.00  0.00    +0.000 HD
ATOM     21  H   UNL     1       0.319   1.437  17.855  0.00  0.00    +0.000 HD
ENDBRANCH  13  19
ENDBRANCH   1  16
TORSDOF 3
ENDMDL
MODEL 7
REMARK VINA RESULT:      -6.5      3.440      6.251
REMARK  Name = 
REMARK  3 active torsions:
REMARK  status: ('A' for Active; 'I' for Inactive)
REMARK    1  A    between atoms: N_1  and  C_2
REMARK    2  A    between atoms: C_5  and  S_6
REMARK    3  A    between atoms: S_6  and  N_9
REMARK                            x       y       z     vdW  Elec       q    Type
REMARK                         _______ _______ _______ _____ _____    ______ ____
ROOT
ATOM      1  S   UNL     1       4.748   4.293  19.068  0.00  0.00    +0.000 S 
ATOM      2  O   UNL     1       4.973   2.903  19.410  0.00  0.00    +0.000 OA
ATOM      3  O   UNL     1       5.145   5.353  19.970  0.00  0.00    +0.000 OA
ENDROOT
BRANCH   1   4
ATOM      4  N   UNL     1       3.107   4.531  18.751  0.00  0.00    +0.000 N 
ATOM      5  C   UNL     1       2.614   5.819  19.029  0.00  0.00    +0.000 A 
ATOM      6  C   UNL     1       2.747   6.876  18.144  0.00  0.00    +0.000 A 
ATOM      7  C   UNL     1       2.219   8.110  18.520  0.00  0.00    +0.000 A 
ATOM      8  C   UNL     1       1.614   8.234  19.768  0.00  0.00    +0.000 A 
ATOM      9 BR   UNL     1       0.890   9.879  20.331  0.00  0.00    +0.000 Br
ATOM     10  C   UNL     1       1.552   7.115  20.586  0.00  0.00    +0.000 A 
ATOM     11  N   UNL     1       2.032   5.898  20.237  0.00  0.00    +0.000 NA
ATOM     12  H   UNL     1       2.563   3.839  19.261  0.00  0.00    +0.000 HD
ENDBRANCH   1   4
BRANCH   1  16
ATOM     13  C   UNL     1       6.836   5.096  15.062  0.00  0.00    +0.000 A 
ATOM     14  C   UNL     1       7.228   5.775  16.219  0.00  0.00    +0.000 A 
ATOM     15  C   UNL     1       6.575   5.553  17.436  0.00  0.00    +0.000 A 
ATOM     16  C   UNL     1       5.540   4.617  17.504  0.00  0.00    +0.000 A 
ATOM     17  C   UNL     1       5.189   3.875  16.375  0.00  0.00    +0.000 A 
ATOM     18  C   UNL     1       5.848   4.110  15.163  0.00  0.00    +0.000 A 
BRANCH  13  19
ATOM     19  N   UNL     1       7.583   5.226  13.886  0.00  0.00    +0.000 N 
ATOM     20  H   UNL     1       8.581   5.077  14.011  0.00  0.00    +0.000 HD
ATOM     21  H   UNL     1       7.383   6.068  13.356  0.00  0.00    +0.000 HD
ENDBRANCH  13  19
ENDBRANCH   1  16
TORSDOF 3
ENDMDL
MODEL 8
REMARK VINA RESULT:      -6.4      1.293      1.427
REMARK  Name = 
REMARK  3 active torsions:
REMARK  status: ('A' for Active; 'I' for Inactive)
REMARK    1  A    between atoms: N_1  and  C_2
REMARK    2  A    between atoms: C_5  and  S_6
REMARK    3  A    between atoms: S_6  and  N_9
REMARK                            x       y       z     vdW  Elec       q    Type
REMARK                         _______ _______ _______ _____ _____    ______ ____
ROOT
ATOM      1  S   UNL     1       6.921   5.783  17.434  0.00  0.00    +0.000 S 
ATOM      2  O   UNL     1       7.507   6.843  18.227  0.00  0.00    +0.000 OA
ATOM      3  O   UNL     1       7.651   4.561  17.172  0.00  0.00    +0.000 OA
ENDROOT
BRANCH   1   4
ATOM      4  N   UNL     1       6.469   6.396  15.927  0.00  0.00    +0.000 N 
ATOM      5  C   UNL     1       6.420   5.460  14.879  0.00  0.00    +0.000 A 
ATOM      6  C   UNL     1       5.326   4.638  14.663  0.00  0.00    +0.000 A 
ATOM      7  C   UNL     1       5.382   3.747  13.592  0.00  0.00    +0.000 A 
ATOM      8  C   UNL     1       6.534   3.701  12.812  0.00  0.00    +0.000 A 
ATOM      9 BR   UNL     1       6.668   2.511  11.358  0.00  0.00    +0.000 Br
ATOM     10  C   UNL     1       7.581   4.555  13.128  0.00  0.00    +0.000 A 
ATOM     11  N   UNL     1       7.545   5.448  14.144  0.00  0.00    +0.000 NA
ATOM     12  H   UNL     1       7.093   7.159  15.675  0.00  0.00    +0.000 HD
ENDBRANCH   1   4
BRANCH   1  16
ATOM     13  C   UNL     1       2.962   4.597  19.428  0.00  0.00    +0.000 A 
ATOM     14  C   UNL     1       4.132   3.876  19.681  0.00  0.00    +0.000 A 
ATOM     15  C   UNL     1       5.335   4.217  19.053  0.00  0.00    +0.000 A 
ATOM     16  C   UNL     1       5.375   5.313  18.188  0.00  0.00    +0.000 A 
ATOM     17  C   UNL     1       4.233   6.090  17.985  0.00  0.00    +0.000 A 
ATOM     18  C   UNL     1       3.036   5.735  18.618  0.00  0.00    +0.000 A 
BRANCH  13  19
ATOM     19  N   UNL     1       1.802   4.332  20.164  0.00  0.00    +0.000 N 
ATOM     20  H   UNL     1       1.716   3.366  20.468  0.00  0.00    +0.000 HD
ATOM     21  H   UNL     1       0.949   4.678  19.736  0.00  0.00    +0.000 HD
ENDBRANCH  13  19
ENDBRANCH   1  16
TORSDOF 3
ENDMDL
MODEL 9
REMARK VINA RESULT:      -6.4      3.421      4.045
REMARK  Name = 
REMARK  3 active torsions:
REMARK  status: ('A' for Active; 'I' for Inactive)
REMARK    1  A    between atoms: N_1  and  C_2
REMARK    2  A    between atoms: C_5  and  S_6
REMARK    3  A    between atoms: S_6  and  N_9
REMARK                            x       y       z     vdW  Elec       q    Type
REMARK                         _______ _______ _______ _____ _____    ______ ____
ROOT
ATOM      1  S   UNL     1       2.927   5.555  19.167  0.00  0.00    +0.000 S 
ATOM      2  O   UNL     1       2.780   5.001  20.497  0.00  0.00    +0.000 OA
ATOM      3  O   UNL     1       2.390   4.867  18.012  0.00  0.00    +0.000 OA
ENDROOT
BRANCH   1   4
ATOM      4  N   UNL     1       4.565   5.810  18.846  0.00  0.00    +0.000 N 
ATOM      5  C   UNL     1       4.989   5.482  17.545  0.00  0.00    +0.000 A 
ATOM      6  C   UNL     1       4.836   6.343  16.472  0.00  0.00    +0.000 A 
ATOM      7  C   UNL     1       5.293   5.918  15.225  0.00  0.00    +0.000 A 
ATOM      8  C   UNL     1       5.851   4.648  15.108  0.00  0.00    +0.000 A 
ATOM      9 BR   UNL     1       6.479   4.018  13.448  0.00  0.00    +0.000 Br
ATOM     10  C   UNL     1       5.938   3.857  16.245  0.00  0.00    +0.000 A 
ATOM     11  N   UNL     1       5.527   4.253  17.472  0.00  0.00    +0.000 NA
ATOM     12  H   UNL     1       5.123   5.300  19.526  0.00  0.00    +0.000 HD
ENDBRANCH   1   4
BRANCH   1  16
ATOM     13  C   UNL     1       1.181   9.798  19.193  0.00  0.00    +0.000 A 
ATOM     14  C   UNL     1       1.214   9.033  20.362  0.00  0.00    +0.000 A 
ATOM     15  C   UNL     1       1.719   7.729  20.352  0.00  0.00    +0.000 A 
ATOM     16  C   UNL     1       2.228   7.196  19.166  0.00  0.00    +0.000 A 
ATOM     17  C   UNL     1       2.275   7.975  18.008  0.00  0.00    +0.000 A 
ATOM     18  C   UNL     1       1.763   9.277  18.032  0.00  0.00    +0.000 A 
BRANCH  13  19
ATOM     19  N   UNL     1       0.801  11.144  19.246  0.00  0.00    +0.000 N 
ATOM     20  H   UNL     1       0.954  11.582  20.150  0.00  0.00    +0.000 HD
ATOM     21  H   UNL     1      -0.128  11.328  18.881  0.00  0.00    +0.000 HD
ENDBRANCH  13  19
ENDBRANCH   1  16
TORSDOF 3
ENDMDL
