MODEL 1
REMARK VINA RESULT:      -6.9      0.000      0.000
REMARK  Name = 
REMARK  7 active torsions:
REMARK  status: ('A' for Active; 'I' for Inactive)
REMARK    1  A    between atoms: C_1  and  C_2
REMARK    2  A    between atoms: C_2  and  C_3
REMARK    3  A    between atoms: C_2  and  N_4
REMARK    4  A    between atoms: N_4  and  C_5
REMARK    5  A    between atoms: C_5  and  C_6
REMARK    6  A    between atoms: C_16  and  C_18
REMARK    7  A    between atoms: N_22  and  C_23
REMARK                            x       y       z     vdW  Elec       q    Type
REMARK                         _______ _______ _______ _____ _____    ______ ____
ROOT
ATOM      1  N   UNL     1       3.928   6.299  17.624  0.00  0.00    +0.000 N 
ATOM      2  C   UNL     1       5.221   6.608  17.136  0.00  0.00    +0.000 C 
ATOM      3  O   UNL     1       5.784   7.640  17.504  0.00  0.00    +0.000 OA
ENDROOT
BRANCH   2   4
ATOM      4  C   UNL     1       5.919   5.700  16.233  0.00  0.00    +0.000 A 
ATOM      5  C   UNL     1       5.829   5.473  14.867  0.00  0.00    +0.000 A 
ATOM      6  C   UNL     1       6.754   4.461  14.569  0.00  0.00    +0.000 A 
ATOM      7  N   UNL     1       7.452   4.099  15.639  0.00  0.00    +0.000 NA
ATOM      8  N   UNL     1       6.992   4.912  16.616  0.00  0.00    +0.000 N 
ATOM      9  C   UNL     1       7.671   4.867  17.892  0.00  0.00    +0.000 C 
ENDBRANCH   2   4
BRANCH   1  11
ATOM     10  C   UNL     1       2.401   8.327  17.783  0.00  0.00    +0.000 C 
ATOM     11  C   UNL     1       3.227   7.264  18.512  0.00  0.00    +0.000 C 
ATOM     12  C   UNL     1       2.396   6.558  19.585  0.00  0.00    +0.000 C 
ENDBRANCH   1  11
BRANCH   1  13
ATOM     13  C   UNL     1       3.139   5.116  17.238  0.00  0.00    +0.000 C 
BRANCH  13  14
ATOM     14  C   UNL     1       3.875   3.769  17.400  0.00  0.00    +0.000 C 
ATOM     15  C   UNL     1       2.952   2.600  17.040  0.00  0.00    +0.000 C 
ATOM     16  O   UNL     1       1.764   2.566  17.838  0.00  0.00    +0.000 OA
ATOM     17  C   UNL     1       1.971   2.727  19.184  0.00  0.00    +0.000 A 
ATOM     18  C   UNL     1       0.879   2.466  20.010  0.00  0.00    +0.000 A 
ATOM     19  C   UNL     1       0.983   2.654  21.388  0.00  0.00    +0.000 A 
ATOM     20  C   UNL     1       2.184   3.096  21.942  0.00  0.00    +0.000 A 
ATOM     21  C   UNL     1       3.278   3.362  21.115  0.00  0.00    +0.000 A 
ATOM     22  C   UNL     1       3.172   3.198  19.728  0.00  0.00    +0.000 A 
ATOM     23  C   UNL     1       4.339   3.530  18.838  0.00  0.00    +0.000 C 
ENDBRANCH  13  14
ENDBRANCH   1  13
TORSDOF 4
ENDMDL
MODEL 2
REMARK VINA RESULT:      -6.4      1.957      4.582
REMARK  Name = 
REMARK  7 active torsions:
REMARK  status: ('A' for Active; 'I' for Inactive)
REMARK    1  A    between atoms: C_1  and  C_2
REMARK    2  A    between atoms: C_2  and  C_3
REMARK    3  A    between atoms: C_2  and  N_4
REMARK    4  A    between atoms: N_4  and  C_5
REMARK    5  A    between atoms: C_5  and  C_6
REMARK    6  A    between atoms: C_16  and  C_18
REMARK    7  A    between atoms: N_22  and  C_23
REMARK                            x       y       z     vdW  Elec       q    Type
REMARK                         _______ _______ _______ _____ _____    ______ ____
ROOT
ATOM      1  N   UNL     1       2.590   3.948  18.362  0.00  0.00    +0.000 N 
ATOM      2  C   UNL     1       3.760   3.272  17.939  0.00  0.00    +0.000 C 
ATOM      3  O   UNL     1       3.985   2.129  18.338  0.00  0.00    +0.000 OA
ENDROOT
BRANCH   2   4
ATOM      4  C   UNL     1       4.687   3.892  17.000  0.00  0.00    +0.000 A 
ATOM      5  C   UNL     1       4.597   4.201  15.649  0.00  0.00    +0.000 A 
ATOM      6  C   UNL     1       5.823   4.781  15.290  0.00  0.00    +0.000 A 
ATOM      7  N   UNL     1       6.633   4.911  16.335  0.00  0.00    +0.000 NA
ATOM      8  N   UNL     1       5.902   4.445  17.371  0.00  0.00    +0.000 N 
ATOM      9  C   UNL     1       6.458   4.594  18.698  0.00  0.00    +0.000 C 
ENDBRANCH   2   4
BRANCH   1  11
ATOM     10  C   UNL     1       0.999   4.271  20.321  0.00  0.00    +0.000 C 
ATOM     11  C   UNL     1       1.685   3.305  19.351  0.00  0.00    +0.000 C 
ATOM     12  C   UNL     1       0.668   2.379  18.682  0.00  0.00    +0.000 C 
ENDBRANCH   1  11
BRANCH   1  13
ATOM     13  C   UNL     1       2.224   5.324  17.982  0.00  0.00    +0.000 C 
BRANCH  13  14
ATOM     14  C   UNL     1       3.353   6.362  18.157  0.00  0.00    +0.000 C 
ATOM     15  C   UNL     1       3.652   6.592  19.643  0.00  0.00    +0.000 C 
ATOM     16  O   UNL     1       2.507   7.040  20.376  0.00  0.00    +0.000 OA
ATOM     17  C   UNL     1       1.804   8.054  19.779  0.00  0.00    +0.000 A 
ATOM     18  C   UNL     1       0.831   8.672  20.564  0.00  0.00    +0.000 A 
ATOM     19  C   UNL     1       0.031   9.678  20.023  0.00  0.00    +0.000 A 
ATOM     20  C   UNL     1       0.209  10.073  18.697  0.00  0.00    +0.000 A 
ATOM     21  C   UNL     1       1.181   9.452  17.909  0.00  0.00    +0.000 A 
ATOM     22  C   UNL     1       1.971   8.424  18.439  0.00  0.00    +0.000 A 
ATOM     23  C   UNL     1       2.984   7.727  17.572  0.00  0.00    +0.000 C 
ENDBRANCH  13  14
ENDBRANCH   1  13
TORSDOF 4
ENDMDL
MODEL 3
REMARK VINA RESULT:      -6.3      2.208      3.558
REMARK  Name = 
REMARK  7 active torsions:
REMARK  status: ('A' for Active; 'I' for Inactive)
REMARK    1  A    between atoms: C_1  and  C_2
REMARK    2  A    between atoms: C_2  and  C_3
REMARK    3  A    between atoms: C_2  and  N_4
REMARK    4  A    between atoms: N_4  and  C_5
REMARK    5  A    between atoms: C_5  and  C_6
REMARK    6  A    between atoms: C_16  and  C_18
REMARK    7  A    between atoms: N_22  and  C_23
REMARK                            x       y       z     vdW  Elec       q    Type
REMARK                         _______ _______ _______ _____ _____    ______ ____
ROOT
ATOM      1  N   UNL     1       5.490   5.553  16.948  0.00  0.00    +0.000 N 
ATOM      2  C   UNL     1       6.783   6.019  16.609  0.00  0.00    +0.000 C 
ATOM      3  O   UNL     1       7.358   5.568  15.618  0.00  0.00    +0.000 OA
ENDROOT
BRANCH   2   4
ATOM      4  C   UNL     1       7.434   7.062  17.395  0.00  0.00    +0.000 A 
ATOM      5  C   UNL     1       7.503   8.442  17.260  0.00  0.00    +0.000 A 
ATOM      6  C   UNL     1       8.291   8.908  18.323  0.00  0.00    +0.000 A 
ATOM      7  N   UNL     1       8.654   7.924  19.137  0.00  0.00    +0.000 NA
ATOM      8  N   UNL     1       8.063   6.830  18.607  0.00  0.00    +0.000 N 
ATOM      9  C   UNL     1       8.145   5.599  19.362  0.00  0.00    +0.000 C 
ENDBRANCH   2   4
BRANCH   1  11
ATOM     10  C   UNL     1       5.286   4.424  14.677  0.00  0.00    +0.000 C 
ATOM     11  C   UNL     1       4.870   4.462  16.151  0.00  0.00    +0.000 C 
ATOM     12  C   UNL     1       5.049   3.094  16.811  0.00  0.00    +0.000 C 
ENDBRANCH   1  11
BRANCH   1  13
ATOM     13  C   UNL     1       4.714   5.989  18.122  0.00  0.00    +0.000 C 
BRANCH  13  14
ATOM     14  C   UNL     1       3.278   6.460  17.807  0.00  0.00    +0.000 C 
ATOM     15  C   UNL     1       2.683   7.219  18.998  0.00  0.00    +0.000 C 
ATOM     16  O   UNL     1       2.650   6.436  20.195  0.00  0.00    +0.000 OA
ATOM     17  C   UNL     1       2.161   5.164  20.035  0.00  0.00    +0.000 A 
ATOM     18  C   UNL     1       1.894   4.457  21.207  0.00  0.00    +0.000 A 
ATOM     19  C   UNL     1       1.444   3.139  21.141  0.00  0.00    +0.000 A 
ATOM     20  C   UNL     1       1.252   2.529  19.902  0.00  0.00    +0.000 A 
ATOM     21  C   UNL     1       1.523   3.236  18.727  0.00  0.00    +0.000 A 
ATOM     22  C   UNL     1       1.999   4.551  18.787  0.00  0.00    +0.000 A 
ATOM     23  C   UNL     1       2.333   5.291  17.521  0.00  0.00    +0.000 C 
ENDBRANCH  13  14
ENDBRANCH   1  13
TORSDOF 4
ENDMDL
MODEL 4
REMARK VINA RESULT:      -6.1      2.327      6.091
REMARK  Name = 
REMARK  7 active torsions:
REMARK  status: ('A' for Active; 'I' for Inactive)
REMARK    1  A    between atoms: C_1  and  C_2
REMARK    2  A    between atoms: C_2  and  C_3
REMARK    3  A    between atoms: C_2  and  N_4
REMARK    4  A    between atoms: N_4  and  C_5
REMARK    5  A    between atoms: C_5  and  C_6
REMARK    6  A    between atoms: C_16  and  C_18
REMARK    7  A    between atoms: N_22  and  C_23
REMARK                            x       y       z     vdW  Elec       q    Type
REMARK                         _______ _______ _______ _____ _____    ______ ____
ROOT
ATOM      1  N   UNL     1       4.288   5.879  17.790  0.00  0.00    +0.000 N 
ATOM      2  C   UNL     1       3.769   5.147  18.885  0.00  0.00    +0.000 C 
ATOM      3  O   UNL     1       3.458   5.732  19.922  0.00  0.00    +0.000 OA
ENDROOT
BRANCH   2   4
ATOM      4  C   UNL     1       3.556   3.707  18.791  0.00  0.00    +0.000 A 
ATOM      5  C   UNL     1       4.230   2.616  19.323  0.00  0.00    +0.000 A 
ATOM      6  C   UNL     1       3.558   1.471  18.869  0.00  0.00    +0.000 A 
ATOM      7  N   UNL     1       2.483   1.781  18.153  0.00  0.00    +0.000 NA
ATOM      8  N   UNL     1       2.452   3.132  18.184  0.00  0.00    +0.000 N 
ATOM      9  C   UNL     1       1.294   3.784  17.611  0.00  0.00    +0.000 C 
ENDBRANCH   2   4
BRANCH   1  11
ATOM     10  C   UNL     1       5.791   7.855  17.230  0.00  0.00    +0.000 C 
ATOM     11  C   UNL     1       4.530   7.339  17.931  0.00  0.00    +0.000 C 
ATOM     12  C   UNL     1       3.304   8.166  17.541  0.00  0.00    +0.000 C 
ENDBRANCH   1  11
BRANCH   1  13
ATOM     13  C   UNL     1       4.725   5.293  16.511  0.00  0.00    +0.000 C 
BRANCH  13  14
ATOM     14  C   UNL     1       5.709   4.112  16.647  0.00  0.00    +0.000 C 
ATOM     15  C   UNL     1       7.150   4.618  16.774  0.00  0.00    +0.000 C 
ATOM     16  O   UNL     1       7.557   5.421  15.660  0.00  0.00    +0.000 OA
ATOM     17  C   UNL     1       7.250   4.894  14.432  0.00  0.00    +0.000 A 
ATOM     18  C   UNL     1       7.832   5.523  13.331  0.00  0.00    +0.000 A 
ATOM     19  C   UNL     1       7.536   5.088  12.040  0.00  0.00    +0.000 A 
ATOM     20  C   UNL     1       6.662   4.018  11.848  0.00  0.00    +0.000 A 
ATOM     21  C   UNL     1       6.076   3.390  12.950  0.00  0.00    +0.000 A 
ATOM     22  C   UNL     1       6.350   3.837  14.248  0.00  0.00    +0.000 A 
ATOM     23  C   UNL     1       5.680   3.188  15.427  0.00  0.00    +0.000 C 
ENDBRANCH  13  14
ENDBRANCH   1  13
TORSDOF 4
ENDMDL
MODEL 5
REMARK VINA RESULT:      -6.0      2.263      5.940
REMARK  Name = 
REMARK  7 active torsions:
REMARK  status: ('A' for Active; 'I' for Inactive)
REMARK    1  A    between atoms: C_1  and  C_2
REMARK    2  A    between atoms: C_2  and  C_3
REMARK    3  A    between atoms: C_2  and  N_4
REMARK    4  A    between atoms: N_4  and  C_5
REMARK    5  A    between atoms: C_5  and  C_6
REMARK    6  A    between atoms: C_16  and  C_18
REMARK    7  A    between atoms: N_22  and  C_23
REMARK                            x       y       z     vdW  Elec       q    Type
REMARK                         _______ _______ _______ _____ _____    ______ ____
ROOT
ATOM      1  N   UNL     1       4.051   5.976  17.663  0.00  0.00    +0.000 N 
ATOM      2  C   UNL     1       3.305   5.227  18.604  0.00  0.00    +0.000 C 
ATOM      3  O   UNL     1       2.866   5.775  19.615  0.00  0.00    +0.000 OA
ENDROOT
BRANCH   2   4
ATOM      4  C   UNL     1       3.008   3.817  18.374  0.00  0.00    +0.000 A 
ATOM      5  C   UNL     1       2.207   3.159  17.450  0.00  0.00    +0.000 A 
ATOM      6  C   UNL     1       2.314   1.789  17.734  0.00  0.00    +0.000 A 
ATOM      7  N   UNL     1       3.173   1.554  18.719  0.00  0.00    +0.000 NA
ATOM      8  N   UNL     1       3.642   2.780  19.039  0.00  0.00    +0.000 N 
ATOM      9  C   UNL     1       4.726   2.849  19.994  0.00  0.00    +0.000 C 
ENDBRANCH   2   4
BRANCH   1  11
ATOM     10  C   UNL     1       5.684   7.900  17.337  0.00  0.00    +0.000 C 
ATOM     11  C   UNL     1       4.370   7.401  17.945  0.00  0.00    +0.000 C 
ATOM     12  C   UNL     1       3.209   8.331  17.592  0.00  0.00    +0.000 C 
ENDBRANCH   1  11
BRANCH   1  13
ATOM     13  C   UNL     1       4.655   5.432  16.434  0.00  0.00    +0.000 C 
BRANCH  13  14
ATOM     14  C   UNL     1       5.646   4.271  16.663  0.00  0.00    +0.000 C 
ATOM     15  C   UNL     1       7.082   4.796  16.764  0.00  0.00    +0.000 C 
ATOM     16  O   UNL     1       7.492   5.518  15.598  0.00  0.00    +0.000 OA
ATOM     17  C   UNL     1       7.199   4.902  14.409  0.00  0.00    +0.000 A 
ATOM     18  C   UNL     1       7.786   5.453  13.270  0.00  0.00    +0.000 A 
ATOM     19  C   UNL     1       7.503   4.923  12.012  0.00  0.00    +0.000 A 
ATOM     20  C   UNL     1       6.639   3.835  11.892  0.00  0.00    +0.000 A 
ATOM     21  C   UNL     1       6.048   3.285  13.031  0.00  0.00    +0.000 A 
ATOM     22  C   UNL     1       6.309   3.827  14.296  0.00  0.00    +0.000 A 
ATOM     23  C   UNL     1       5.633   3.260  15.514  0.00  0.00    +0.000 C 
ENDBRANCH  13  14
ENDBRANCH   1  13
TORSDOF 4
ENDMDL
MODEL 6
REMARK VINA RESULT:      -6.0      1.067      1.088
REMARK  Name = 
REMARK  7 active torsions:
REMARK  status: ('A' for Active; 'I' for Inactive)
REMARK    1  A    between atoms: C_1  and  C_2
REMARK    2  A    between atoms: C_2  and  C_3
REMARK    3  A    between atoms: C_2  and  N_4
REMARK    4  A    between atoms: N_4  and  C_5
REMARK    5  A    between atoms: C_5  and  C_6
REMARK    6  A    between atoms: C_16  and  C_18
REMARK    7  A    between atoms: N_22  and  C_23
REMARK                            x       y       z     vdW  Elec       q    Type
REMARK                         _______ _______ _______ _____ _____    ______ ____
ROOT
ATOM      1  N   UNL     1       4.069   6.556  17.822  0.00  0.00    +0.000 N 
ATOM      2  C   UNL     1       4.567   6.769  16.514  0.00  0.00    +0.000 C 
ATOM      3  O   UNL     1       4.177   7.737  15.859  0.00  0.00    +0.000 OA
ENDROOT
BRANCH   2   4
ATOM      4  C   UNL     1       5.571   5.881  15.939  0.00  0.00    +0.000 A 
ATOM      5  C   UNL     1       5.555   5.014  14.855  0.00  0.00    +0.000 A 
ATOM      6  C   UNL     1       6.824   4.418  14.802  0.00  0.00    +0.000 A 
ATOM      7  N   UNL     1       7.638   4.905  15.732  0.00  0.00    +0.000 NA
ATOM      8  N   UNL     1       6.891   5.843  16.356  0.00  0.00    +0.000 N 
ATOM      9  C   UNL     1       7.553   6.673  17.339  0.00  0.00    +0.000 C 
ENDBRANCH   2   4
BRANCH   1  11
ATOM     10  C   UNL     1       1.795   7.639  17.458  0.00  0.00    +0.000 C 
ATOM     11  C   UNL     1       3.017   7.456  18.364  0.00  0.00    +0.000 C 
ATOM     12  C   UNL     1       2.600   7.064  19.782  0.00  0.00    +0.000 C 
ENDBRANCH   1  11
BRANCH   1  13
ATOM     13  C   UNL     1       4.431   5.422  18.691  0.00  0.00    +0.000 C 
BRANCH  13  14
ATOM     14  C   UNL     1       4.242   4.032  18.047  0.00  0.00    +0.000 C 
ATOM     15  C   UNL     1       2.841   3.901  17.441  0.00  0.00    +0.000 C 
ATOM     16  O   UNL     1       1.799   4.101  18.403  0.00  0.00    +0.000 OA
ATOM     17  C   UNL     1       1.970   3.421  19.582  0.00  0.00    +0.000 A 
ATOM     18  C   UNL     1       0.873   3.401  20.443  0.00  0.00    +0.000 A 
ATOM     19  C   UNL     1       0.972   2.779  21.687  0.00  0.00    +0.000 A 
ATOM     20  C   UNL     1       2.167   2.168  22.067  0.00  0.00    +0.000 A 
ATOM     21  C   UNL     1       3.267   2.191  21.207  0.00  0.00    +0.000 A 
ATOM     22  C   UNL     1       3.182   2.835  19.966  0.00  0.00    +0.000 A 
ATOM     23  C   UNL     1       4.383   2.897  19.064  0.00  0.00    +0.000 C 
ENDBRANCH  13  14
ENDBRANCH   1  13
TORSDOF 4
ENDMDL
MODEL 7
REMARK VINA RESULT:      -5.8      2.374      6.115
REMARK  Name = 
REMARK  7 active torsions:
REMARK  status: ('A' for Active; 'I' for Inactive)
REMARK    1  A    between atoms: C_1  and  C_2
REMARK    2  A    between atoms: C_2  and  C_3
REMARK    3  A    between atoms: C_2  and  N_4
REMARK    4  A    between atoms: N_4  and  C_5
REMARK    5  A    between atoms: C_5  and  C_6
REMARK    6  A    between atoms: C_16  and  C_18
REMARK    7  A    between atoms: N_22  and  C_23
REMARK                            x       y       z     vdW  Elec       q    Type
REMARK                         _______ _______ _______ _____ _____    ______ ____
ROOT
ATOM      1  N   UNL     1       3.494   4.238  19.042  0.00  0.00    +0.000 N 
ATOM      2  C   UNL     1       2.285   4.950  18.853  0.00  0.00    +0.000 C 
ATOM      3  O   UNL     1       1.208   4.355  18.907  0.00  0.00    +0.000 OA
ENDROOT
BRANCH   2   4
ATOM      4  C   UNL     1       2.290   6.392  18.635  0.00  0.00    +0.000 A 
ATOM      5  C   UNL     1       2.470   7.175  17.503  0.00  0.00    +0.000 A 
ATOM      6  C   UNL     1       2.379   8.511  17.923  0.00  0.00    +0.000 A 
ATOM      7  N   UNL     1       2.089   8.603  19.216  0.00  0.00    +0.000 NA
ATOM      8  N   UNL     1       1.959   7.317  19.611  0.00  0.00    +0.000 N 
ATOM      9  C   UNL     1       1.490   7.080  20.959  0.00  0.00    +0.000 C 
ENDBRANCH   2   4
BRANCH   1  11
ATOM     10  C   UNL     1       3.469   1.953  17.923  0.00  0.00    +0.000 C 
ATOM     11  C   UNL     1       3.457   2.763  19.223  0.00  0.00    +0.000 C 
ATOM     12  C   UNL     1       4.540   2.275  20.187  0.00  0.00    +0.000 C 
ENDBRANCH   1  11
BRANCH   1  13
ATOM     13  C   UNL     1       4.843   4.826  18.971  0.00  0.00    +0.000 C 
BRANCH  13  14
ATOM     14  C   UNL     1       5.563   4.622  17.621  0.00  0.00    +0.000 C 
ATOM     15  C   UNL     1       7.003   4.145  17.843  0.00  0.00    +0.000 C 
ATOM     16  O   UNL     1       7.774   5.056  18.634  0.00  0.00    +0.000 OA
ATOM     17  C   UNL     1       7.666   6.371  18.263  0.00  0.00    +0.000 A 
ATOM     18  C   UNL     1       8.573   7.252  18.851  0.00  0.00    +0.000 A 
ATOM     19  C   UNL     1       8.504   8.616  18.573  0.00  0.00    +0.000 A 
ATOM     20  C   UNL     1       7.531   9.101  17.699  0.00  0.00    +0.000 A 
ATOM     21  C   UNL     1       6.619   8.220  17.113  0.00  0.00    +0.000 A 
ATOM     22  C   UNL     1       6.668   6.852  17.407  0.00  0.00    +0.000 A 
ATOM     23  C   UNL     1       5.655   5.915  16.809  0.00  0.00    +0.000 C 
ENDBRANCH  13  14
ENDBRANCH   1  13
TORSDOF 4
ENDMDL
MODEL 8
REMARK VINA RESULT:      -5.8      1.801      3.174
REMARK  Name = 
REMARK  7 active torsions:
REMARK  status: ('A' for Active; 'I' for Inactive)
REMARK    1  A    between atoms: C_1  and  C_2
REMARK    2  A    between atoms: C_2  and  C_3
REMARK    3  A    between atoms: C_2  and  N_4
REMARK    4  A    between atoms: N_4  and  C_5
REMARK    5  A    between atoms: C_5  and  C_6
REMARK    6  A    between atoms: C_16  and  C_18
REMARK    7  A    between atoms: N_22  and  C_23
REMARK                            x       y       z     vdW  Elec       q    Type
REMARK                         _______ _______ _______ _____ _____    ______ ____
ROOT
ATOM      1  N   UNL     1       6.299   5.391  17.220  0.00  0.00    +0.000 N 
ATOM      2  C   UNL     1       6.892   5.467  15.937  0.00  0.00    +0.000 C 
ATOM      3  O   UNL     1       7.883   6.177  15.760  0.00  0.00    +0.000 OA
ENDROOT
BRANCH   2   4
ATOM      4  C   UNL     1       6.373   4.681  14.823  0.00  0.00    +0.000 A 
ATOM      5  C   UNL     1       5.213   3.938  14.652  0.00  0.00    +0.000 A 
ATOM      6  C   UNL     1       5.275   3.393  13.360  0.00  0.00    +0.000 A 
ATOM      7  N   UNL     1       6.355   3.801  12.704  0.00  0.00    +0.000 NA
ATOM      8  N   UNL     1       6.964   4.640  13.571  0.00  0.00    +0.000 N 
ATOM      9  C   UNL     1       8.110   5.378  13.089  0.00  0.00    +0.000 C 
ENDBRANCH   2   4
BRANCH   1  11
ATOM     10  C   UNL     1       7.874   5.553  19.213  0.00  0.00    +0.000 C 
ATOM     11  C   UNL     1       6.828   6.234  18.325  0.00  0.00    +0.000 C 
ATOM     12  C   UNL     1       7.326   7.591  17.825  0.00  0.00    +0.000 C 
ENDBRANCH   1  11
BRANCH   1  13
ATOM     13  C   UNL     1       5.098   4.605  17.553  0.00  0.00    +0.000 C 
BRANCH  13  14
ATOM     14  C   UNL     1       3.761   5.323  17.270  0.00  0.00    +0.000 C 
ATOM     15  C   UNL     1       3.502   6.417  18.313  0.00  0.00    +0.000 C 
ATOM     16  O   UNL     1       3.471   5.912  19.651  0.00  0.00    +0.000 OA
ATOM     17  C   UNL     1       2.714   4.781  19.820  0.00  0.00    +0.000 A 
ATOM     18  C   UNL     1       2.468   4.397  21.138  0.00  0.00    +0.000 A 
ATOM     19  C   UNL     1       1.751   3.232  21.405  0.00  0.00    +0.000 A 
ATOM     20  C   UNL     1       1.271   2.452  20.353  0.00  0.00    +0.000 A 
ATOM     21  C   UNL     1       1.520   2.834  19.032  0.00  0.00    +0.000 A 
ATOM     22  C   UNL     1       2.260   3.990  18.758  0.00  0.00    +0.000 A 
ATOM     23  C   UNL     1       2.565   4.371  17.335  0.00  0.00    +0.000 C 
ENDBRANCH  13  14
ENDBRANCH   1  13
TORSDOF 4
ENDMDL
MODEL 9
REMARK VINA RESULT:      -5.7      7.751     10.953
REMARK  Name = 
REMARK  7 active torsions:
REMARK  status: ('A' for Active; 'I' for Inactive)
REMARK    1  A    between atoms: C_1  and  C_2
REMARK    2  A    between atoms: C_2  and  C_3
REMARK    3  A    between atoms: C_2  and  N_4
REMARK    4  A    between atoms: N_4  and  C_5
REMARK    5  A    between atoms: C_5  and  C_6
REMARK    6  A    between atoms: C_16  and  C_18
REMARK    7  A    between atoms: N_22  and  C_23
REMARK                            x       y       z     vdW  Elec       q    Type
REMARK                         _______ _______ _______ _____ _____    ______ ____
ROOT
ATOM      1  N   UNL     1      -3.946  10.923  17.864  0.00  0.00    +0.000 N 
ATOM      2  C   UNL     1      -5.141  11.637  18.124  0.00  0.00    +0.000 C 
ATOM      3  O   UNL     1      -5.945  11.838  17.214  0.00  0.00    +0.000 OA
ENDROOT
BRANCH   2   4
ATOM      4  C   UNL     1      -5.459  12.104  19.469  0.00  0.00    +0.000 A 
ATOM      5  C   UNL     1      -5.128  13.255  20.171  0.00  0.00    +0.000 A 
ATOM      6  C   UNL     1      -5.719  13.134  21.438  0.00  0.00    +0.000 A 
ATOM      7  N   UNL     1      -6.443  12.025  21.540  0.00  0.00    +0.000 NA
ATOM      8  N   UNL     1      -6.340  11.457  20.319  0.00  0.00    +0.000 N 
ATOM      9  C   UNL     1      -7.154  10.290  20.058  0.00  0.00    +0.000 C 
ENDBRANCH   2   4
BRANCH   1  11
ATOM     10  C   UNL     1      -3.045  11.589  15.580  0.00  0.00    +0.000 C 
ATOM     11  C   UNL     1      -3.633  10.495  16.476  0.00  0.00    +0.000 C 
ATOM     12  C   UNL     1      -2.770   9.232  16.444  0.00  0.00    +0.000 C 
ENDBRANCH   1  11
BRANCH   1  13
ATOM     13  C   UNL     1      -2.893  10.646  18.857  0.00  0.00    +0.000 C 
BRANCH  13  14
ATOM     14  C   UNL     1      -1.903  11.807  19.087  0.00  0.00    +0.000 C 
ATOM     15  C   UNL     1      -0.537  11.485  18.471  0.00  0.00    +0.000 C 
ATOM     16  O   UNL     1       0.041  10.286  18.998  0.00  0.00    +0.000 OA
ATOM     17  C   UNL     1      -0.000  10.182  20.365  0.00  0.00    +0.000 A 
ATOM     18  C   UNL     1       0.754   9.152  20.926  0.00  0.00    +0.000 A 
ATOM     19  C   UNL     1       0.732   8.939  22.303  0.00  0.00    +0.000 A 
ATOM     20  C   UNL     1      -0.040   9.762  23.123  0.00  0.00    +0.000 A 
ATOM     21  C   UNL     1      -0.800  10.791  22.562  0.00  0.00    +0.000 A 
ATOM     22  C   UNL     1      -0.800  10.995  21.177  0.00  0.00    +0.000 A 
ATOM     23  C   UNL     1      -1.656  12.075  20.573  0.00  0.00    +0.000 C 
ENDBRANCH  13  14
ENDBRANCH   1  13
TORSDOF 4
ENDMDL
