MODEL 1
REMARK VINA RESULT:      -9.7      0.000      0.000
REMARK  Name = 
REMARK  4 active torsions:
REMARK  status: ('A' for Active; 'I' for Inactive)
REMARK    1  A    between atoms: C_1  and  N_2
REMARK    2  A    between atoms: C_5  and  C_6
REMARK    3  A    between atoms: C_5  and  C_12
REMARK    4  A    between atoms: C_16  and  C_17
REMARK                            x       y       z     vdW  Elec       q    Type
REMARK                         _______ _______ _______ _____ _____    ______ ____
ROOT
ATOM      1  C   UNL     1       0.672   2.476  19.460  0.00  0.00    +0.000 C 
ATOM      2  N   UNL     1       1.714   3.473  19.540  0.00  0.00    +0.000 N 
ATOM      3  C   UNL     1       2.152   4.181  18.465  0.00  0.00    +0.000 C 
ATOM      4  O   UNL     1       1.744   4.051  17.314  0.00  0.00    +0.000 OA
ATOM      5  C   UNL     1       3.225   5.173  18.989  0.00  0.00    +0.000 C 
ATOM      6  N   UNL     1       3.260   4.822  20.458  0.00  0.00    +0.000 NA
ATOM      7  C   UNL     1       2.356   3.912  20.636  0.00  0.00    +0.000 C 
ATOM      8  N   UNL     1       2.079   3.425  21.864  0.00  0.00    +0.000 N 
ATOM      9  H   UNL     1       2.763   3.671  22.571  0.00  0.00    +0.000 HD
ATOM     10  H   UNL     1       1.722   2.482  21.940  0.00  0.00    +0.000 HD
ENDROOT
BRANCH   5  11
ATOM     11  C   UNL     1       4.611   4.950  18.352  0.00  0.00    +0.000 A 
ATOM     12  C   UNL     1       4.776   4.443  17.054  0.00  0.00    +0.000 A 
ATOM     13  C   UNL     1       6.052   4.309  16.526  0.00  0.00    +0.000 A 
ATOM     14  N   UNL     1       7.177   4.644  17.189  0.00  0.00    +0.000 NA
ATOM     15  C   UNL     1       7.012   5.144  18.432  0.00  0.00    +0.000 A 
ATOM     16  C   UNL     1       5.777   5.315  19.042  0.00  0.00    +0.000 A 
ENDBRANCH   5  11
BRANCH   5  17
ATOM     17  C   UNL     1       2.740   6.624  18.782  0.00  0.00    +0.000 A 
ATOM     18  C   UNL     1       3.083   7.368  17.644  0.00  0.00    +0.000 A 
ATOM     19  C   UNL     1       2.633   8.679  17.492  0.00  0.00    +0.000 A 
ATOM     20  C   UNL     1       1.837   9.267  18.475  0.00  0.00    +0.000 A 
ATOM     21  C   UNL     1       1.491   8.579  19.649  0.00  0.00    +0.000 A 
ATOM     22  C   UNL     1       1.947   7.251  19.765  0.00  0.00    +0.000 A 
BRANCH  21  23
ATOM     23  C   UNL     1       0.711   9.216  20.738  0.00  0.00    +0.000 A 
ATOM     24  C   UNL     1       0.914   8.863  22.087  0.00  0.00    +0.000 A 
ATOM     25  C   UNL     1       0.208   9.493  23.110  0.00  0.00    +0.000 A 
ATOM     26  F   UNL     1       0.443   9.142  24.382  0.00  0.00    +0.000 F 
ATOM     27  C   UNL     1      -0.731  10.477  22.837  0.00  0.00    +0.000 A 
ATOM     28  C   UNL     1      -0.959  10.843  21.516  0.00  0.00    +0.000 A 
ATOM     29  C   UNL     1      -0.241  10.226  20.489  0.00  0.00    +0.000 A 
ATOM     30  F   UNL     1      -0.476  10.652  19.239  0.00  0.00    +0.000 F 
ENDBRANCH  21  23
ENDBRANCH   5  17
TORSDOF 3
ENDMDL
MODEL 2
REMARK VINA RESULT:      -9.2      1.017      1.646
REMARK  Name = 
REMARK  4 active torsions:
REMARK  status: ('A' for Active; 'I' for Inactive)
REMARK    1  A    between atoms: C_1  and  N_2
REMARK    2  A    between atoms: C_5  and  C_6
REMARK    3  A    between atoms: C_5  and  C_12
REMARK    4  A    between atoms: C_16  and  C_17
REMARK                            x       y       z     vdW  Elec       q    Type
REMARK                         _______ _______ _______ _____ _____    ______ ____
ROOT
ATOM      1  C   UNL     1       0.684   2.566  19.426  0.00  0.00    +0.000 C 
ATOM      2  N   UNL     1       1.715   3.575  19.502  0.00  0.00    +0.000 N 
ATOM      3  C   UNL     1       2.142   4.286  18.425  0.00  0.00    +0.000 C 
ATOM      4  O   UNL     1       1.732   4.150  17.275  0.00  0.00    +0.000 OA
ATOM      5  C   UNL     1       3.205   5.290  18.943  0.00  0.00    +0.000 C 
ATOM      6  N   UNL     1       3.249   4.942  20.413  0.00  0.00    +0.000 NA
ATOM      7  C   UNL     1       2.355   4.022  20.596  0.00  0.00    +0.000 C 
ATOM      8  N   UNL     1       2.086   3.534  21.825  0.00  0.00    +0.000 N 
ATOM      9  H   UNL     1       2.770   3.789  22.529  0.00  0.00    +0.000 HD
ATOM     10  H   UNL     1       1.740   2.588  21.903  0.00  0.00    +0.000 HD
ENDROOT
BRANCH   5  11
ATOM     11  C   UNL     1       4.592   5.081  18.304  0.00  0.00    +0.000 A 
ATOM     12  C   UNL     1       5.788   5.398  18.967  0.00  0.00    +0.000 A 
ATOM     13  C   UNL     1       7.004   5.143  18.350  0.00  0.00    +0.000 A 
ATOM     14  N   UNL     1       7.123   4.594  17.125  0.00  0.00    +0.000 NA
ATOM     15  C   UNL     1       5.970   4.279  16.497  0.00  0.00    +0.000 A 
ATOM     16  C   UNL     1       4.709   4.496  17.034  0.00  0.00    +0.000 A 
ENDBRANCH   5  11
BRANCH   5  17
ATOM     17  C   UNL     1       2.704   6.735  18.736  0.00  0.00    +0.000 A 
ATOM     18  C   UNL     1       2.986   7.460  17.568  0.00  0.00    +0.000 A 
ATOM     19  C   UNL     1       2.523   8.766  17.417  0.00  0.00    +0.000 A 
ATOM     20  C   UNL     1       1.775   9.369  18.428  0.00  0.00    +0.000 A 
ATOM     21  C   UNL     1       1.492   8.702  19.630  0.00  0.00    +0.000 A 
ATOM     22  C   UNL     1       1.959   7.377  19.746  0.00  0.00    +0.000 A 
BRANCH  21  23
ATOM     23  C   UNL     1       0.765   9.355  20.745  0.00  0.00    +0.000 A 
ATOM     24  C   UNL     1       0.765  10.756  20.896  0.00  0.00    +0.000 A 
ATOM     25  C   UNL     1       0.047  11.369  21.923  0.00  0.00    +0.000 A 
ATOM     26  F   UNL     1       0.056  12.705  22.022  0.00  0.00    +0.000 F 
ATOM     27  C   UNL     1      -0.677  10.622  22.841  0.00  0.00    +0.000 A 
ATOM     28  C   UNL     1      -0.690   9.237  22.722  0.00  0.00    +0.000 A 
ATOM     29  C   UNL     1       0.014   8.621  21.685  0.00  0.00    +0.000 A 
ATOM     30  F   UNL     1      -0.072   7.285  21.600  0.00  0.00    +0.000 F 
ENDBRANCH  21  23
ENDBRANCH   5  17
TORSDOF 3
ENDMDL
MODEL 3
REMARK VINA RESULT:      -8.6      1.395      3.663
REMARK  Name = 
REMARK  4 active torsions:
REMARK  status: ('A' for Active; 'I' for Inactive)
REMARK    1  A    between atoms: C_1  and  N_2
REMARK    2  A    between atoms: C_5  and  C_6
REMARK    3  A    between atoms: C_5  and  C_12
REMARK    4  A    between atoms: C_16  and  C_17
REMARK                            x       y       z     vdW  Elec       q    Type
REMARK                         _______ _______ _______ _____ _____    ______ ____
ROOT
ATOM      1  C   UNL     1       7.151   4.551  17.750  0.00  0.00    +0.000 C 
ATOM      2  N   UNL     1       5.713   4.678  17.796  0.00  0.00    +0.000 N 
ATOM      3  C   UNL     1       5.046   5.211  18.854  0.00  0.00    +0.000 C 
ATOM      4  O   UNL     1       5.566   5.621  19.888  0.00  0.00    +0.000 OA
ATOM      5  C   UNL     1       3.540   5.213  18.479  0.00  0.00    +0.000 C 
ATOM      6  N   UNL     1       3.576   4.582  17.107  0.00  0.00    +0.000 NA
ATOM      7  C   UNL     1       4.826   4.379  16.832  0.00  0.00    +0.000 C 
ATOM      8  N   UNL     1       5.214   3.885  15.638  0.00  0.00    +0.000 N 
ATOM      9  H   UNL     1       4.457   3.503  15.082  0.00  0.00    +0.000 HD
ATOM     10  H   UNL     1       6.074   3.355  15.591  0.00  0.00    +0.000 HD
ENDROOT
BRANCH   5  11
ATOM     11  C   UNL     1       2.681   4.363  19.436  0.00  0.00    +0.000 A 
ATOM     12  C   UNL     1       2.927   4.295  20.817  0.00  0.00    +0.000 A 
ATOM     13  C   UNL     1       2.087   3.545  21.627  0.00  0.00    +0.000 A 
ATOM     14  N   UNL     1       1.019   2.861  21.172  0.00  0.00    +0.000 NA
ATOM     15  C   UNL     1       0.780   2.941  19.846  0.00  0.00    +0.000 A 
ATOM     16  C   UNL     1       1.562   3.665  18.957  0.00  0.00    +0.000 A 
ENDBRANCH   5  11
BRANCH   5  17
ATOM     17  C   UNL     1       3.023   6.665  18.402  0.00  0.00    +0.000 A 
ATOM     18  C   UNL     1       3.356   7.518  17.339  0.00  0.00    +0.000 A 
ATOM     19  C   UNL     1       2.877   8.827  17.304  0.00  0.00    +0.000 A 
ATOM     20  C   UNL     1       2.060   9.305  18.330  0.00  0.00    +0.000 A 
ATOM     21  C   UNL     1       1.722   8.504  19.432  0.00  0.00    +0.000 A 
ATOM     22  C   UNL     1       2.208   7.182  19.430  0.00  0.00    +0.000 A 
BRANCH  21  23
ATOM     23  C   UNL     1       0.921   9.021  20.567  0.00  0.00    +0.000 A 
ATOM     24  C   UNL     1       1.335   8.834  21.901  0.00  0.00    +0.000 A 
ATOM     25  C   UNL     1       0.599   9.357  22.964  0.00  0.00    +0.000 A 
ATOM     26  F   UNL     1       1.037   9.175  24.217  0.00  0.00    +0.000 F 
ATOM     27  C   UNL     1      -0.575  10.064  22.748  0.00  0.00    +0.000 A 
ATOM     28  C   UNL     1      -1.014  10.258  21.444  0.00  0.00    +0.000 A 
ATOM     29  C   UNL     1      -0.270   9.751  20.376  0.00  0.00    +0.000 A 
ATOM     30  F   UNL     1      -0.725  10.008  19.140  0.00  0.00    +0.000 F 
ENDBRANCH  21  23
ENDBRANCH   5  17
TORSDOF 3
ENDMDL
MODEL 4
REMARK VINA RESULT:      -8.4      1.712      3.913
REMARK  Name = 
REMARK  4 active torsions:
REMARK  status: ('A' for Active; 'I' for Inactive)
REMARK    1  A    between atoms: C_1  and  N_2
REMARK    2  A    between atoms: C_5  and  C_6
REMARK    3  A    between atoms: C_5  and  C_12
REMARK    4  A    between atoms: C_16  and  C_17
REMARK                            x       y       z     vdW  Elec       q    Type
REMARK                         _______ _______ _______ _____ _____    ______ ____
ROOT
ATOM      1  C   UNL     1       7.164   4.554  17.656  0.00  0.00    +0.000 C 
ATOM      2  N   UNL     1       5.726   4.677  17.723  0.00  0.00    +0.000 N 
ATOM      3  C   UNL     1       5.074   5.218  18.787  0.00  0.00    +0.000 C 
ATOM      4  O   UNL     1       5.608   5.640  19.809  0.00  0.00    +0.000 OA
ATOM      5  C   UNL     1       3.562   5.212  18.436  0.00  0.00    +0.000 C 
ATOM      6  N   UNL     1       3.578   4.567  17.069  0.00  0.00    +0.000 NA
ATOM      7  C   UNL     1       4.824   4.365  16.777  0.00  0.00    +0.000 C 
ATOM      8  N   UNL     1       5.195   3.862  15.581  0.00  0.00    +0.000 N 
ATOM      9  H   UNL     1       4.430   3.472  15.042  0.00  0.00    +0.000 HD
ATOM     10  H   UNL     1       6.056   3.334  15.526  0.00  0.00    +0.000 HD
ENDROOT
BRANCH   5  11
ATOM     11  C   UNL     1       2.721   4.369  19.414  0.00  0.00    +0.000 A 
ATOM     12  C   UNL     1       2.962   4.348  20.797  0.00  0.00    +0.000 A 
ATOM     13  C   UNL     1       2.138   3.601  21.626  0.00  0.00    +0.000 A 
ATOM     14  N   UNL     1       1.091   2.876  21.188  0.00  0.00    +0.000 NA
ATOM     15  C   UNL     1       0.856   2.909  19.859  0.00  0.00    +0.000 A 
ATOM     16  C   UNL     1       1.624   3.627  18.952  0.00  0.00    +0.000 A 
ENDBRANCH   5  11
BRANCH   5  17
ATOM     17  C   UNL     1       3.039   6.661  18.353  0.00  0.00    +0.000 A 
ATOM     18  C   UNL     1       3.348   7.503  17.274  0.00  0.00    +0.000 A 
ATOM     19  C   UNL     1       2.864   8.810  17.234  0.00  0.00    +0.000 A 
ATOM     20  C   UNL     1       2.067   9.297  18.271  0.00  0.00    +0.000 A 
ATOM     21  C   UNL     1       1.755   8.509  19.389  0.00  0.00    +0.000 A 
ATOM     22  C   UNL     1       2.244   7.188  19.392  0.00  0.00    +0.000 A 
BRANCH  21  23
ATOM     23  C   UNL     1       0.975   9.036  20.534  0.00  0.00    +0.000 A 
ATOM     24  C   UNL     1       0.798  10.421  20.724  0.00  0.00    +0.000 A 
ATOM     25  C   UNL     1       0.030  10.911  21.779  0.00  0.00    +0.000 A 
ATOM     26  F   UNL     1      -0.130  12.235  21.915  0.00  0.00    +0.000 F 
ATOM     27  C   UNL     1      -0.572  10.056  22.690  0.00  0.00    +0.000 A 
ATOM     28  C   UNL     1      -0.410   8.684  22.534  0.00  0.00    +0.000 A 
ATOM     29  C   UNL     1       0.344   8.189  21.468  0.00  0.00    +0.000 A 
ATOM     30  F   UNL     1       0.428   6.855  21.348  0.00  0.00    +0.000 F 
ENDBRANCH  21  23
ENDBRANCH   5  17
TORSDOF 3
ENDMDL
MODEL 5
REMARK VINA RESULT:      -8.4      4.102      7.909
REMARK  Name = 
REMARK  4 active torsions:
REMARK  status: ('A' for Active; 'I' for Inactive)
REMARK    1  A    between atoms: C_1  and  N_2
REMARK    2  A    between atoms: C_5  and  C_6
REMARK    3  A    between atoms: C_5  and  C_12
REMARK    4  A    between atoms: C_16  and  C_17
REMARK                            x       y       z     vdW  Elec       q    Type
REMARK                         _______ _______ _______ _____ _____    ______ ____
ROOT
ATOM      1  C   UNL     1       3.209   2.205  20.352  0.00  0.00    +0.000 C 
ATOM      2  N   UNL     1       3.184   3.260  19.365  0.00  0.00    +0.000 N 
ATOM      3  C   UNL     1       3.871   4.425  19.503  0.00  0.00    +0.000 C 
ATOM      4  O   UNL     1       4.566   4.731  20.468  0.00  0.00    +0.000 OA
ATOM      5  C   UNL     1       3.620   5.249  18.212  0.00  0.00    +0.000 C 
ATOM      6  N   UNL     1       2.694   4.330  17.450  0.00  0.00    +0.000 NA
ATOM      7  C   UNL     1       2.572   3.259  18.169  0.00  0.00    +0.000 C 
ATOM      8  N   UNL     1       1.860   2.197  17.736  0.00  0.00    +0.000 N 
ATOM      9  H   UNL     1       1.278   2.391  16.929  0.00  0.00    +0.000 HD
ATOM     10  H   UNL     1       1.432   1.591  18.424  0.00  0.00    +0.000 HD
ENDROOT
BRANCH   5  11
ATOM     11  C   UNL     1       2.926   6.598  18.486  0.00  0.00    +0.000 A 
ATOM     12  C   UNL     1       2.805   7.600  17.509  0.00  0.00    +0.000 A 
ATOM     13  C   UNL     1       2.130   8.774  17.810  0.00  0.00    +0.000 A 
ATOM     14  N   UNL     1       1.562   9.027  19.005  0.00  0.00    +0.000 NA
ATOM     15  C   UNL     1       1.670   8.056  19.936  0.00  0.00    +0.000 A 
ATOM     16  C   UNL     1       2.325   6.850  19.728  0.00  0.00    +0.000 A 
ENDBRANCH   5  11
BRANCH   5  17
ATOM     17  C   UNL     1       4.948   5.445  17.451  0.00  0.00    +0.000 A 
ATOM     18  C   UNL     1       6.019   6.168  17.997  0.00  0.00    +0.000 A 
ATOM     19  C   UNL     1       7.203   6.331  17.278  0.00  0.00    +0.000 A 
ATOM     20  C   UNL     1       7.334   5.779  16.003  0.00  0.00    +0.000 A 
ATOM     21  C   UNL     1       6.282   5.075  15.397  0.00  0.00    +0.000 A 
ATOM     22  C   UNL     1       5.106   4.913  16.154  0.00  0.00    +0.000 A 
BRANCH  21  23
ATOM     23  C   UNL     1       6.378   4.550  14.013  0.00  0.00    +0.000 A 
ATOM     24  C   UNL     1       5.372   3.724  13.473  0.00  0.00    +0.000 A 
ATOM     25  C   UNL     1       5.446   3.265  12.159  0.00  0.00    +0.000 A 
ATOM     26  F   UNL     1       4.460   2.498  11.675  0.00  0.00    +0.000 F 
ATOM     27  C   UNL     1       6.519   3.591  11.342  0.00  0.00    +0.000 A 
ATOM     28  C   UNL     1       7.531   4.398  11.848  0.00  0.00    +0.000 A 
ATOM     29  C   UNL     1       7.451   4.873  13.159  0.00  0.00    +0.000 A 
ATOM     30  F   UNL     1       8.438   5.682  13.575  0.00  0.00    +0.000 F 
ENDBRANCH  21  23
ENDBRANCH   5  17
TORSDOF 3
ENDMDL
MODEL 6
REMARK VINA RESULT:      -8.2      6.148      8.739
REMARK  Name = 
REMARK  4 active torsions:
REMARK  status: ('A' for Active; 'I' for Inactive)
REMARK    1  A    between atoms: C_1  and  N_2
REMARK    2  A    between atoms: C_5  and  C_6
REMARK    3  A    between atoms: C_5  and  C_12
REMARK    4  A    between atoms: C_16  and  C_17
REMARK                            x       y       z     vdW  Elec       q    Type
REMARK                         _______ _______ _______ _____ _____    ______ ____
ROOT
ATOM      1  C   UNL     1       1.224  14.898  18.571  0.00  0.00    +0.000 C 
ATOM      2  N   UNL     1       0.822  13.530  18.798  0.00  0.00    +0.000 N 
ATOM      3  C   UNL     1      -0.353  13.187  19.390  0.00  0.00    +0.000 C 
ATOM      4  O   UNL     1      -1.191  13.977  19.817  0.00  0.00    +0.000 OA
ATOM      5  C   UNL     1      -0.420  11.637  19.389  0.00  0.00    +0.000 C 
ATOM      6  N   UNL     1       0.898  11.284  18.740  0.00  0.00    +0.000 NA
ATOM      7  C   UNL     1       1.460  12.407  18.424  0.00  0.00    +0.000 C 
ATOM      8  N   UNL     1       2.632  12.446  17.756  0.00  0.00    +0.000 N 
ATOM      9  H   UNL     1       3.116  11.556  17.719  0.00  0.00    +0.000 HD
ATOM     10  H   UNL     1       3.238  13.244  17.892  0.00  0.00    +0.000 HD
ENDROOT
BRANCH   5  11
ATOM     11  C   UNL     1      -0.495  11.037  20.808  0.00  0.00    +0.000 A 
ATOM     12  C   UNL     1       0.106   9.814  21.146  0.00  0.00    +0.000 A 
ATOM     13  C   UNL     1       0.038   9.355  22.453  0.00  0.00    +0.000 A 
ATOM     14  N   UNL     1      -0.578  10.018  23.451  0.00  0.00    +0.000 NA
ATOM     15  C   UNL     1      -1.142  11.200  23.123  0.00  0.00    +0.000 A 
ATOM     16  C   UNL     1      -1.125  11.741  21.845  0.00  0.00    +0.000 A 
ENDBRANCH   5  11
BRANCH   5  17
ATOM     17  C   UNL     1      -1.604  11.165  18.519  0.00  0.00    +0.000 A 
ATOM     18  C   UNL     1      -1.461  10.163  17.547  0.00  0.00    +0.000 A 
ATOM     19  C   UNL     1      -2.551   9.766  16.774  0.00  0.00    +0.000 A 
ATOM     20  C   UNL     1      -3.798  10.364  16.956  0.00  0.00    +0.000 A 
ATOM     21  C   UNL     1      -3.989  11.393  17.890  0.00  0.00    +0.000 A 
ATOM     22  C   UNL     1      -2.874  11.761  18.668  0.00  0.00    +0.000 A 
BRANCH  21  23
ATOM     23  C   UNL     1      -5.288  12.092  18.041  0.00  0.00    +0.000 A 
ATOM     24  C   UNL     1      -5.865  12.804  16.970  0.00  0.00    +0.000 A 
ATOM     25  C   UNL     1      -7.105  13.426  17.104  0.00  0.00    +0.000 A 
ATOM     26  F   UNL     1      -7.630  14.077  16.057  0.00  0.00    +0.000 F 
ATOM     27  C   UNL     1      -7.808  13.381  18.300  0.00  0.00    +0.000 A 
ATOM     28  C   UNL     1      -7.262  12.692  19.376  0.00  0.00    +0.000 A 
ATOM     29  C   UNL     1      -6.027  12.054  19.241  0.00  0.00    +0.000 A 
ATOM     30  F   UNL     1      -5.574  11.371  20.303  0.00  0.00    +0.000 F 
ENDBRANCH  21  23
ENDBRANCH   5  17
TORSDOF 3
ENDMDL
MODEL 7
REMARK VINA RESULT:      -8.2      4.491      7.973
REMARK  Name = 
REMARK  4 active torsions:
REMARK  status: ('A' for Active; 'I' for Inactive)
REMARK    1  A    between atoms: C_1  and  N_2
REMARK    2  A    between atoms: C_5  and  C_6
REMARK    3  A    between atoms: C_5  and  C_12
REMARK    4  A    between atoms: C_16  and  C_17
REMARK                            x       y       z     vdW  Elec       q    Type
REMARK                         _______ _______ _______ _____ _____    ______ ____
ROOT
ATOM      1  C   UNL     1       2.985  13.800  19.137  0.00  0.00    +0.000 C 
ATOM      2  N   UNL     1       1.903  12.897  19.452  0.00  0.00    +0.000 N 
ATOM      3  C   UNL     1       1.613  11.795  18.710  0.00  0.00    +0.000 C 
ATOM      4  O   UNL     1       2.205  11.448  17.692  0.00  0.00    +0.000 OA
ATOM      5  C   UNL     1       0.430  11.079  19.415  0.00  0.00    +0.000 C 
ATOM      6  N   UNL     1       0.175  12.006  20.580  0.00  0.00    +0.000 NA
ATOM      7  C   UNL     1       1.076  12.934  20.511  0.00  0.00    +0.000 C 
ATOM      8  N   UNL     1       1.174  13.893  21.455  0.00  0.00    +0.000 N 
ATOM      9  H   UNL     1       0.377  13.943  22.079  0.00  0.00    +0.000 HD
ATOM     10  H   UNL     1       1.553  14.793  21.191  0.00  0.00    +0.000 HD
ENDROOT
BRANCH   5  11
ATOM     11  C   UNL     1      -0.827  10.979  18.527  0.00  0.00    +0.000 A 
ATOM     12  C   UNL     1      -0.989   9.980  17.554  0.00  0.00    +0.000 A 
ATOM     13  C   UNL     1      -2.165   9.922  16.821  0.00  0.00    +0.000 A 
ATOM     14  N   UNL     1      -3.194  10.777  16.983  0.00  0.00    +0.000 NA
ATOM     15  C   UNL     1      -3.038  11.727  17.929  0.00  0.00    +0.000 A 
ATOM     16  C   UNL     1      -1.900  11.864  18.711  0.00  0.00    +0.000 A 
ENDBRANCH   5  11
BRANCH   5  17
ATOM     17  C   UNL     1       0.880   9.688  19.908  0.00  0.00    +0.000 A 
ATOM     18  C   UNL     1       0.637   9.248  21.218  0.00  0.00    +0.000 A 
ATOM     19  C   UNL     1       1.064   7.987  21.632  0.00  0.00    +0.000 A 
ATOM     20  C   UNL     1       1.741   7.148  20.747  0.00  0.00    +0.000 A 
ATOM     21  C   UNL     1       2.039   7.550  19.436  0.00  0.00    +0.000 A 
ATOM     22  C   UNL     1       1.580   8.822  19.042  0.00  0.00    +0.000 A 
BRANCH  21  23
ATOM     23  C   UNL     1       2.825   6.701  18.508  0.00  0.00    +0.000 A 
ATOM     24  C   UNL     1       3.895   7.232  17.760  0.00  0.00    +0.000 A 
ATOM     25  C   UNL     1       4.657   6.422  16.920  0.00  0.00    +0.000 A 
ATOM     26  F   UNL     1       5.679   6.960  16.239  0.00  0.00    +0.000 F 
ATOM     27  C   UNL     1       4.380   5.070  16.777  0.00  0.00    +0.000 A 
ATOM     28  C   UNL     1       3.327   4.519  17.496  0.00  0.00    +0.000 A 
ATOM     29  C   UNL     1       2.572   5.324  18.352  0.00  0.00    +0.000 A 
ATOM     30  F   UNL     1       1.596   4.723  19.050  0.00  0.00    +0.000 F 
ENDBRANCH  21  23
ENDBRANCH   5  17
TORSDOF 3
ENDMDL
MODEL 8
REMARK VINA RESULT:      -8.2      3.752      7.578
REMARK  Name = 
REMARK  4 active torsions:
REMARK  status: ('A' for Active; 'I' for Inactive)
REMARK    1  A    between atoms: C_1  and  N_2
REMARK    2  A    between atoms: C_5  and  C_6
REMARK    3  A    between atoms: C_5  and  C_12
REMARK    4  A    between atoms: C_16  and  C_17
REMARK                            x       y       z     vdW  Elec       q    Type
REMARK                         _______ _______ _______ _____ _____    ______ ____
ROOT
ATOM      1  C   UNL     1       1.553   2.527  20.976  0.00  0.00    +0.000 C 
ATOM      2  N   UNL     1       1.931   3.448  19.930  0.00  0.00    +0.000 N 
ATOM      3  C   UNL     1       2.813   4.466  20.117  0.00  0.00    +0.000 C 
ATOM      4  O   UNL     1       3.370   4.738  21.177  0.00  0.00    +0.000 OA
ATOM      5  C   UNL     1       2.979   5.172  18.745  0.00  0.00    +0.000 C 
ATOM      6  N   UNL     1       2.033   4.370  17.882  0.00  0.00    +0.000 NA
ATOM      7  C   UNL     1       1.559   3.431  18.638  0.00  0.00    +0.000 C 
ATOM      8  N   UNL     1       0.728   2.485  18.151  0.00  0.00    +0.000 N 
ATOM      9  H   UNL     1       0.356   2.696  17.232  0.00  0.00    +0.000 HD
ATOM     10  H   UNL     1       0.065   2.056  18.782  0.00  0.00    +0.000 HD
ENDROOT
BRANCH   5  11
ATOM     11  C   UNL     1       2.550   6.652  18.774  0.00  0.00    +0.000 A 
ATOM     12  C   UNL     1       2.674   7.499  17.662  0.00  0.00    +0.000 A 
ATOM     13  C   UNL     1       2.226   8.810  17.744  0.00  0.00    +0.000 A 
ATOM     14  N   UNL     1       1.662   9.342  18.845  0.00  0.00    +0.000 NA
ATOM     15  C   UNL     1       1.533   8.520  19.908  0.00  0.00    +0.000 A 
ATOM     16  C   UNL     1       1.950   7.196  19.920  0.00  0.00    +0.000 A 
ENDBRANCH   5  11
BRANCH   5  17
ATOM     17  C   UNL     1       4.434   5.020  18.252  0.00  0.00    +0.000 A 
ATOM     18  C   UNL     1       5.530   5.145  19.119  0.00  0.00    +0.000 A 
ATOM     19  C   UNL     1       6.832   5.008  18.639  0.00  0.00    +0.000 A 
ATOM     20  C   UNL     1       7.059   4.748  17.287  0.00  0.00    +0.000 A 
ATOM     21  C   UNL     1       6.001   4.645  16.371  0.00  0.00    +0.000 A 
ATOM     22  C   UNL     1       4.697   4.771  16.889  0.00  0.00    +0.000 A 
BRANCH  21  23
ATOM     23  C   UNL     1       6.229   4.446  14.919  0.00  0.00    +0.000 A 
ATOM     24  C   UNL     1       5.361   3.652  14.144  0.00  0.00    +0.000 A 
ATOM     25  C   UNL     1       5.556   3.500  12.772  0.00  0.00    +0.000 A 
ATOM     26  F   UNL     1       4.697   2.752  12.066  0.00  0.00    +0.000 F 
ATOM     27  C   UNL     1       6.620   4.110  12.124  0.00  0.00    +0.000 A 
ATOM     28  C   UNL     1       7.499   4.894  12.863  0.00  0.00    +0.000 A 
ATOM     29  C   UNL     1       7.297   5.062  14.235  0.00  0.00    +0.000 A 
ATOM     30  F   UNL     1       8.155   5.864  14.884  0.00  0.00    +0.000 F 
ENDBRANCH  21  23
ENDBRANCH   5  17
TORSDOF 3
ENDMDL
MODEL 9
REMARK VINA RESULT:      -8.1      2.820      4.408
REMARK  Name = 
REMARK  4 active torsions:
REMARK  status: ('A' for Active; 'I' for Inactive)
REMARK    1  A    between atoms: C_1  and  N_2
REMARK    2  A    between atoms: C_5  and  C_6
REMARK    3  A    between atoms: C_5  and  C_12
REMARK    4  A    between atoms: C_16  and  C_17
REMARK                            x       y       z     vdW  Elec       q    Type
REMARK                         _______ _______ _______ _____ _____    ______ ____
ROOT
ATOM      1  C   UNL     1       8.634   6.257  19.295  0.00  0.00    +0.000 C 
ATOM      2  N   UNL     1       7.621   6.321  18.268  0.00  0.00    +0.000 N 
ATOM      3  C   UNL     1       6.872   5.250  17.894  0.00  0.00    +0.000 C 
ATOM      4  O   UNL     1       6.974   4.116  18.353  0.00  0.00    +0.000 OA
ATOM      5  C   UNL     1       5.877   5.754  16.815  0.00  0.00    +0.000 C 
ATOM      6  N   UNL     1       6.272   7.208  16.704  0.00  0.00    +0.000 NA
ATOM      7  C   UNL     1       7.205   7.400  17.583  0.00  0.00    +0.000 C 
ATOM      8  N   UNL     1       7.734   8.623  17.794  0.00  0.00    +0.000 N 
ATOM      9  H   UNL     1       7.497   9.304  17.082  0.00  0.00    +0.000 HD
ATOM     10  H   UNL     1       8.686   8.685  18.130  0.00  0.00    +0.000 HD
ENDROOT
BRANCH   5  11
ATOM     11  C   UNL     1       6.053   5.048  15.456  0.00  0.00    +0.000 A 
ATOM     12  C   UNL     1       5.003   4.379  14.808  0.00  0.00    +0.000 A 
ATOM     13  C   UNL     1       5.221   3.802  13.565  0.00  0.00    +0.000 A 
ATOM     14  N   UNL     1       6.400   3.842  12.915  0.00  0.00    +0.000 NA
ATOM     15  C   UNL     1       7.403   4.498  13.537  0.00  0.00    +0.000 A 
ATOM     16  C   UNL     1       7.281   5.106  14.779  0.00  0.00    +0.000 A 
ENDBRANCH   5  11
BRANCH   5  17
ATOM     17  C   UNL     1       4.430   5.617  17.334  0.00  0.00    +0.000 A 
ATOM     18  C   UNL     1       3.665   4.462  17.111  0.00  0.00    +0.000 A 
ATOM     19  C   UNL     1       2.359   4.374  17.589  0.00  0.00    +0.000 A 
ATOM     20  C   UNL     1       1.794   5.438  18.293  0.00  0.00    +0.000 A 
ATOM     21  C   UNL     1       2.502   6.629  18.516  0.00  0.00    +0.000 A 
ATOM     22  C   UNL     1       3.825   6.681  18.036  0.00  0.00    +0.000 A 
BRANCH  21  23
ATOM     23  C   UNL     1       1.890   7.797  19.194  0.00  0.00    +0.000 A 
ATOM     24  C   UNL     1       1.593   7.771  20.571  0.00  0.00    +0.000 A 
ATOM     25  C   UNL     1       1.055   8.885  21.212  0.00  0.00    +0.000 A 
ATOM     26  F   UNL     1       0.804   8.829  22.527  0.00  0.00    +0.000 F 
ATOM     27  C   UNL     1       0.777  10.053  20.516  0.00  0.00    +0.000 A 
ATOM     28  C   UNL     1       1.052  10.107  19.155  0.00  0.00    +0.000 A 
ATOM     29  C   UNL     1       1.607   8.998  18.512  0.00  0.00    +0.000 A 
ATOM     30  F   UNL     1       1.888   9.128  17.207  0.00  0.00    +0.000 F 
ENDBRANCH  21  23
ENDBRANCH   5  17
TORSDOF 3
ENDMDL
