MODEL 1
REMARK VINA RESULT:      -8.6      0.000      0.000
REMARK  Name = 
REMARK  3 active torsions:
REMARK  status: ('A' for Active; 'I' for Inactive)
REMARK    1  A    between atoms: C_1  and  C_2
REMARK    2  A    between atoms: C_2  and  C_3
REMARK    3  A    between atoms: C_2  and  C_4
REMARK                            x       y       z     vdW  Elec       q    Type
REMARK                         _______ _______ _______ _____ _____    ______ ____
ROOT
ATOM      1  C   UNL     1       6.518   4.416  14.482  0.00  0.00    +0.000 A 
ATOM      2  N   UNL     1       7.566   5.221  14.462  0.00  0.00    +0.000 NA
ATOM      3  N   UNL     1       7.598   5.918  15.629  0.00  0.00    +0.000 NA
ATOM      4  C   UNL     1       6.576   5.529  16.348  0.00  0.00    +0.000 A 
ATOM      5  S   UNL     1       6.207   6.168  17.902  0.00  0.00    +0.000 S 
ATOM      6  C   UNL     1       4.849   5.228  18.242  0.00  0.00    +0.000 A 
ATOM      7  C   UNL     1       4.111   5.277  19.355  0.00  0.00    +0.000 A 
ATOM      8  C   UNL     1       3.051   4.307  19.242  0.00  0.00    +0.000 A 
ATOM      9  C   UNL     1       2.062   4.007  20.170  0.00  0.00    +0.000 A 
ATOM     10  C   UNL     1       1.145   3.008  19.845  0.00  0.00    +0.000 A 
ATOM     11  C   UNL     1       1.231   2.335  18.612  0.00  0.00    +0.000 A 
ATOM     12  C   UNL     1       2.234   2.649  17.680  0.00  0.00    +0.000 A 
ATOM     13  C   UNL     1       3.136   3.643  18.020  0.00  0.00    +0.000 A 
ATOM     14  C   UNL     1       4.300   4.208  17.303  0.00  0.00    +0.000 A 
ATOM     15  N   UNL     1       4.711   3.864  16.119  0.00  0.00    +0.000 NA
ATOM     16  N   UNL     1       5.843   4.553  15.692  0.00  0.00    +0.000 N 
ENDROOT
BRANCH   1  18
ATOM     17  C   UNL     1       4.746   3.896  12.830  0.00  0.00    +0.000 C 
ATOM     18  C   UNL     1       6.150   3.528  13.332  0.00  0.00    +0.000 C 
ATOM     19  C   UNL     1       7.149   3.721  12.183  0.00  0.00    +0.000 C 
ENDBRANCH   1  18
TORSDOF 1
ENDMDL
MODEL 2
REMARK VINA RESULT:      -7.6      1.978      3.599
REMARK  Name = 
REMARK  3 active torsions:
REMARK  status: ('A' for Active; 'I' for Inactive)
REMARK    1  A    between atoms: C_1  and  C_2
REMARK    2  A    between atoms: C_2  and  C_3
REMARK    3  A    between atoms: C_2  and  C_4
REMARK                            x       y       z     vdW  Elec       q    Type
REMARK                         _______ _______ _______ _____ _____    ______ ____
ROOT
ATOM      1  C   UNL     1       7.036   6.469  17.209  0.00  0.00    +0.000 A 
ATOM      2  N   UNL     1       7.689   6.278  16.076  0.00  0.00    +0.000 NA
ATOM      3  N   UNL     1       7.069   5.287  15.381  0.00  0.00    +0.000 NA
ATOM      4  C   UNL     1       6.045   4.889  16.091  0.00  0.00    +0.000 A 
ATOM      5  S   UNL     1       4.983   3.627  15.605  0.00  0.00    +0.000 S 
ATOM      6  C   UNL     1       3.924   3.672  16.917  0.00  0.00    +0.000 A 
ATOM      7  C   UNL     1       2.853   2.895  17.097  0.00  0.00    +0.000 A 
ATOM      8  C   UNL     1       2.225   3.264  18.340  0.00  0.00    +0.000 A 
ATOM      9  C   UNL     1       1.077   2.731  18.912  0.00  0.00    +0.000 A 
ATOM     10  C   UNL     1       0.644   3.265  20.125  0.00  0.00    +0.000 A 
ATOM     11  C   UNL     1       1.357   4.313  20.738  0.00  0.00    +0.000 A 
ATOM     12  C   UNL     1       2.518   4.844  20.151  0.00  0.00    +0.000 A 
ATOM     13  C   UNL     1       2.933   4.300  18.947  0.00  0.00    +0.000 A 
ATOM     14  C   UNL     1       4.076   4.615  18.062  0.00  0.00    +0.000 A 
ATOM     15  N   UNL     1       4.985   5.518  18.279  0.00  0.00    +0.000 NA
ATOM     16  N   UNL     1       5.941   5.610  17.270  0.00  0.00    +0.000 N 
ENDROOT
BRANCH   1  18
ATOM     17  C   UNL     1       8.448   6.789  19.219  0.00  0.00    +0.000 C 
ATOM     18  C   UNL     1       7.470   7.462  18.244  0.00  0.00    +0.000 C 
ATOM     19  C   UNL     1       8.183   8.641  17.568  0.00  0.00    +0.000 C 
ENDBRANCH   1  18
TORSDOF 1
ENDMDL
MODEL 3
REMARK VINA RESULT:      -7.6      1.596      5.898
REMARK  Name = 
REMARK  3 active torsions:
REMARK  status: ('A' for Active; 'I' for Inactive)
REMARK    1  A    between atoms: C_1  and  C_2
REMARK    2  A    between atoms: C_2  and  C_3
REMARK    3  A    between atoms: C_2  and  C_4
REMARK                            x       y       z     vdW  Elec       q    Type
REMARK                         _______ _______ _______ _____ _____    ______ ____
ROOT
ATOM      1  C   UNL     1       3.218   4.136  18.678  0.00  0.00    +0.000 A 
ATOM      2  N   UNL     1       3.473   4.719  19.837  0.00  0.00    +0.000 NA
ATOM      3  N   UNL     1       4.662   5.373  19.740  0.00  0.00    +0.000 NA
ATOM      4  C   UNL     1       5.115   5.188  18.526  0.00  0.00    +0.000 A 
ATOM      5  S   UNL     1       6.612   5.819  17.963  0.00  0.00    +0.000 S 
ATOM      6  C   UNL     1       6.541   5.252  16.376  0.00  0.00    +0.000 A 
ATOM      7  C   UNL     1       7.459   5.445  15.425  0.00  0.00    +0.000 A 
ATOM      8  C   UNL     1       7.007   4.800  14.218  0.00  0.00    +0.000 A 
ATOM      9  C   UNL     1       7.637   4.759  12.981  0.00  0.00    +0.000 A 
ATOM     10  C   UNL     1       6.995   4.082  11.944  0.00  0.00    +0.000 A 
ATOM     11  C   UNL     1       5.749   3.465  12.160  0.00  0.00    +0.000 A 
ATOM     12  C   UNL     1       5.122   3.511  13.416  0.00  0.00    +0.000 A 
ATOM     13  C   UNL     1       5.774   4.187  14.433  0.00  0.00    +0.000 A 
ATOM     14  C   UNL     1       5.409   4.440  15.844  0.00  0.00    +0.000 A 
ATOM     15  N   UNL     1       4.333   4.025  16.443  0.00  0.00    +0.000 NA
ATOM     16  N   UNL     1       4.239   4.421  17.774  0.00  0.00    +0.000 N 
ENDROOT
BRANCH   1  18
ATOM     17  C   UNL     1       2.411   1.810  18.407  0.00  0.00    +0.000 C 
ATOM     18  C   UNL     1       2.004   3.291  18.441  0.00  0.00    +0.000 C 
ATOM     19  C   UNL     1       0.994   3.496  19.578  0.00  0.00    +0.000 C 
ENDBRANCH   1  18
TORSDOF 1
ENDMDL
MODEL 4
REMARK VINA RESULT:      -7.4      5.081      7.029
REMARK  Name = 
REMARK  3 active torsions:
REMARK  status: ('A' for Active; 'I' for Inactive)
REMARK    1  A    between atoms: C_1  and  C_2
REMARK    2  A    between atoms: C_2  and  C_3
REMARK    3  A    between atoms: C_2  and  C_4
REMARK                            x       y       z     vdW  Elec       q    Type
REMARK                         _______ _______ _______ _____ _____    ______ ____
ROOT
ATOM      1  C   UNL     1       2.717   5.159  19.664  0.00  0.00    +0.000 A 
ATOM      2  N   UNL     1       3.385   4.953  18.542  0.00  0.00    +0.000 NA
ATOM      3  N   UNL     1       3.344   6.091  17.798  0.00  0.00    +0.000 NA
ATOM      4  C   UNL     1       2.659   6.978  18.474  0.00  0.00    +0.000 A 
ATOM      5  S   UNL     1       2.331   8.565  17.901  0.00  0.00    +0.000 S 
ATOM      6  C   UNL     1       1.478   9.143  19.236  0.00  0.00    +0.000 A 
ATOM      7  C   UNL     1       0.958  10.365  19.375  0.00  0.00    +0.000 A 
ATOM      8  C   UNL     1       0.319  10.445  20.664  0.00  0.00    +0.000 A 
ATOM      9  C   UNL     1      -0.335  11.531  21.231  0.00  0.00    +0.000 A 
ATOM     10  C   UNL     1      -0.867  11.377  22.511  0.00  0.00    +0.000 A 
ATOM     11  C   UNL     1      -0.736  10.154  23.195  0.00  0.00    +0.000 A 
ATOM     12  C   UNL     1      -0.074   9.061  22.611  0.00  0.00    +0.000 A 
ATOM     13  C   UNL     1       0.446   9.232  21.340  0.00  0.00    +0.000 A 
ATOM     14  C   UNL     1       1.198   8.321  20.449  0.00  0.00    +0.000 A 
ATOM     15  N   UNL     1       1.515   7.087  20.707  0.00  0.00    +0.000 NA
ATOM     16  N   UNL     1       2.237   6.466  19.691  0.00  0.00    +0.000 N 
ENDROOT
BRANCH   1  18
ATOM     17  C   UNL     1       1.071   3.600  20.660  0.00  0.00    +0.000 C 
ATOM     18  C   UNL     1       2.523   4.098  20.704  0.00  0.00    +0.000 C 
ATOM     19  C   UNL     1       3.457   2.913  20.422  0.00  0.00    +0.000 C 
ENDBRANCH   1  18
TORSDOF 1
ENDMDL
MODEL 5
REMARK VINA RESULT:      -7.0      0.767      1.027
REMARK  Name = 
REMARK  3 active torsions:
REMARK  status: ('A' for Active; 'I' for Inactive)
REMARK    1  A    between atoms: C_1  and  C_2
REMARK    2  A    between atoms: C_2  and  C_3
REMARK    3  A    between atoms: C_2  and  C_4
REMARK                            x       y       z     vdW  Elec       q    Type
REMARK                         _______ _______ _______ _____ _____    ______ ____
ROOT
ATOM      1  C   UNL     1       6.487   5.069  15.044  0.00  0.00    +0.000 A 
ATOM      2  N   UNL     1       7.627   5.711  15.231  0.00  0.00    +0.000 NA
ATOM      3  N   UNL     1       7.715   6.066  16.541  0.00  0.00    +0.000 NA
ATOM      4  C   UNL     1       6.633   5.635  17.139  0.00  0.00    +0.000 A 
ATOM      5  S   UNL     1       6.306   5.883  18.808  0.00  0.00    +0.000 S 
ATOM      6  C   UNL     1       4.832   5.067  18.898  0.00  0.00    +0.000 A 
ATOM      7  C   UNL     1       4.077   4.914  19.989  0.00  0.00    +0.000 A 
ATOM      8  C   UNL     1       2.908   4.152  19.632  0.00  0.00    +0.000 A 
ATOM      9  C   UNL     1       1.865   3.746  20.454  0.00  0.00    +0.000 A 
ATOM     10  C   UNL     1       0.839   2.994  19.883  0.00  0.00    +0.000 A 
ATOM     11  C   UNL     1       0.873   2.664  18.515  0.00  0.00    +0.000 A 
ATOM     12  C   UNL     1       1.932   3.081  17.692  0.00  0.00    +0.000 A 
ATOM     13  C   UNL     1       2.942   3.828  18.276  0.00  0.00    +0.000 A 
ATOM     14  C   UNL     1       4.186   4.409  17.726  0.00  0.00    +0.000 A 
ATOM     15  N   UNL     1       4.582   4.339  16.491  0.00  0.00    +0.000 NA
ATOM     16  N   UNL     1       5.802   4.967  16.253  0.00  0.00    +0.000 N 
ENDROOT
BRANCH   1  18
ATOM     17  C   UNL     1       7.157   4.808  12.674  0.00  0.00    +0.000 C 
ATOM     18  C   UNL     1       6.042   4.569  13.704  0.00  0.00    +0.000 C 
ATOM     19  C   UNL     1       5.756   3.063  13.777  0.00  0.00    +0.000 C 
ENDBRANCH   1  18
TORSDOF 1
ENDMDL
MODEL 6
REMARK VINA RESULT:      -7.0      3.705      4.981
REMARK  Name = 
REMARK  3 active torsions:
REMARK  status: ('A' for Active; 'I' for Inactive)
REMARK    1  A    between atoms: C_1  and  C_2
REMARK    2  A    between atoms: C_2  and  C_3
REMARK    3  A    between atoms: C_2  and  C_4
REMARK                            x       y       z     vdW  Elec       q    Type
REMARK                         _______ _______ _______ _____ _____    ______ ____
ROOT
ATOM      1  C   UNL     1       4.683   4.855  17.178  0.00  0.00    +0.000 A 
ATOM      2  N   UNL     1       4.850   3.629  17.641  0.00  0.00    +0.000 NA
ATOM      3  N   UNL     1       4.142   3.501  18.795  0.00  0.00    +0.000 NA
ATOM      4  C   UNL     1       3.548   4.646  19.021  0.00  0.00    +0.000 A 
ATOM      5  S   UNL     1       2.558   4.950  20.394  0.00  0.00    +0.000 S 
ATOM      6  C   UNL     1       2.113   6.537  20.034  0.00  0.00    +0.000 A 
ATOM      7  C   UNL     1       1.316   7.320  20.765  0.00  0.00    +0.000 A 
ATOM      8  C   UNL     1       1.192   8.592  20.100  0.00  0.00    +0.000 A 
ATOM      9  C   UNL     1       0.449   9.697  20.496  0.00  0.00    +0.000 A 
ATOM     10  C   UNL     1       0.468  10.824  19.674  0.00  0.00    +0.000 A 
ATOM     11  C   UNL     1       1.220  10.826  18.484  0.00  0.00    +0.000 A 
ATOM     12  C   UNL     1       1.970   9.703  18.095  0.00  0.00    +0.000 A 
ATOM     13  C   UNL     1       1.939   8.594  18.923  0.00  0.00    +0.000 A 
ATOM     14  C   UNL     1       2.582   7.266  18.821  0.00  0.00    +0.000 A 
ATOM     15  N   UNL     1       3.374   6.870  17.869  0.00  0.00    +0.000 NA
ATOM     16  N   UNL     1       3.827   5.562  18.020  0.00  0.00    +0.000 N 
ENDROOT
BRANCH   1  18
ATOM     17  C   UNL     1       6.746   5.905  16.298  0.00  0.00    +0.000 C 
ATOM     18  C   UNL     1       5.357   5.357  15.938  0.00  0.00    +0.000 C 
ATOM     19  C   UNL     1       5.527   4.208  14.935  0.00  0.00    +0.000 C 
ENDBRANCH   1  18
TORSDOF 1
ENDMDL
MODEL 7
REMARK VINA RESULT:      -6.8      5.005      7.420
REMARK  Name = 
REMARK  3 active torsions:
REMARK  status: ('A' for Active; 'I' for Inactive)
REMARK    1  A    between atoms: C_1  and  C_2
REMARK    2  A    between atoms: C_2  and  C_3
REMARK    3  A    between atoms: C_2  and  C_4
REMARK                            x       y       z     vdW  Elec       q    Type
REMARK                         _______ _______ _______ _____ _____    ______ ____
ROOT
ATOM      1  C   UNL     1       0.427   9.633  20.730  0.00  0.00    +0.000 A 
ATOM      2  N   UNL     1       0.454  10.672  19.913  0.00  0.00    +0.000 NA
ATOM      3  N   UNL     1       1.204  10.348  18.825  0.00  0.00    +0.000 NA
ATOM      4  C   UNL     1       1.621   9.118  18.987  0.00  0.00    +0.000 A 
ATOM      5  S   UNL     1       2.628   8.299  17.860  0.00  0.00    +0.000 S 
ATOM      6  C   UNL     1       2.734   6.814  18.652  0.00  0.00    +0.000 A 
ATOM      7  C   UNL     1       3.405   5.739  18.232  0.00  0.00    +0.000 A 
ATOM      8  C   UNL     1       3.231   4.685  19.199  0.00  0.00    +0.000 A 
ATOM      9  C   UNL     1       3.738   3.393  19.160  0.00  0.00    +0.000 A 
ATOM     10  C   UNL     1       3.419   2.534  20.211  0.00  0.00    +0.000 A 
ATOM     11  C   UNL     1       2.607   2.978  21.272  0.00  0.00    +0.000 A 
ATOM     12  C   UNL     1       2.102   4.288  21.303  0.00  0.00    +0.000 A 
ATOM     13  C   UNL     1       2.429   5.126  20.251  0.00  0.00    +0.000 A 
ATOM     14  C   UNL     1       2.070   6.531  19.957  0.00  0.00    +0.000 A 
ATOM     15  N   UNL     1       1.340   7.306  20.702  0.00  0.00    +0.000 NA
ATOM     16  N   UNL     1       1.151   8.581  20.175  0.00  0.00    +0.000 N 
ENDROOT
BRANCH   1  18
ATOM     17  C   UNL     1       0.737   9.380  23.174  0.00  0.00    +0.000 C 
ATOM     18  C   UNL     1      -0.276   9.655  22.053  0.00  0.00    +0.000 C 
ATOM     19  C   UNL     1      -0.905  11.035  22.287  0.00  0.00    +0.000 C 
ENDBRANCH   1  18
TORSDOF 1
ENDMDL
MODEL 8
REMARK VINA RESULT:      -6.8      4.377      6.478
REMARK  Name = 
REMARK  3 active torsions:
REMARK  status: ('A' for Active; 'I' for Inactive)
REMARK    1  A    between atoms: C_1  and  C_2
REMARK    2  A    between atoms: C_2  and  C_3
REMARK    3  A    between atoms: C_2  and  C_4
REMARK                            x       y       z     vdW  Elec       q    Type
REMARK                         _______ _______ _______ _____ _____    ______ ____
ROOT
ATOM      1  C   UNL     1       1.106   9.352  19.296  0.00  0.00    +0.000 A 
ATOM      2  N   UNL     1       1.414  10.195  18.325  0.00  0.00    +0.000 NA
ATOM      3  N   UNL     1       2.359   9.619  17.536  0.00  0.00    +0.000 NA
ATOM      4  C   UNL     1       2.614   8.433  18.028  0.00  0.00    +0.000 A 
ATOM      5  S   UNL     1       3.772   7.353  17.357  0.00  0.00    +0.000 S 
ATOM      6  C   UNL     1       3.557   6.063  18.422  0.00  0.00    +0.000 A 
ATOM      7  C   UNL     1       4.205   4.896  18.393  0.00  0.00    +0.000 A 
ATOM      8  C   UNL     1       3.718   4.076  19.473  0.00  0.00    +0.000 A 
ATOM      9  C   UNL     1       4.100   2.783  19.807  0.00  0.00    +0.000 A 
ATOM     10  C   UNL     1       3.471   2.178  20.895  0.00  0.00    +0.000 A 
ATOM     11  C   UNL     1       2.483   2.869  21.622  0.00  0.00    +0.000 A 
ATOM     12  C   UNL     1       2.106   4.177  21.276  0.00  0.00    +0.000 A 
ATOM     13  C   UNL     1       2.741   4.762  20.194  0.00  0.00    +0.000 A 
ATOM     14  C   UNL     1       2.589   6.088  19.557  0.00  0.00    +0.000 A 
ATOM     15  N   UNL     1       1.783   7.033  19.939  0.00  0.00    +0.000 NA
ATOM     16  N   UNL     1       1.838   8.176  19.147  0.00  0.00    +0.000 N 
ENDROOT
BRANCH   1  18
ATOM     17  C   UNL     1       0.883  10.087  21.651  0.00  0.00    +0.000 C 
ATOM     18  C   UNL     1       0.124   9.680  20.379  0.00  0.00    +0.000 C 
ATOM     19  C   UNL     1      -0.764  10.852  19.941  0.00  0.00    +0.000 C 
ENDBRANCH   1  18
TORSDOF 1
ENDMDL
MODEL 9
REMARK VINA RESULT:      -6.7      3.751      6.528
REMARK  Name = 
REMARK  3 active torsions:
REMARK  status: ('A' for Active; 'I' for Inactive)
REMARK    1  A    between atoms: C_1  and  C_2
REMARK    2  A    between atoms: C_2  and  C_3
REMARK    3  A    between atoms: C_2  and  C_4
REMARK                            x       y       z     vdW  Elec       q    Type
REMARK                         _______ _______ _______ _____ _____    ______ ____
ROOT
ATOM      1  C   UNL     1       1.787   7.992  19.768  0.00  0.00    +0.000 A 
ATOM      2  N   UNL     1       1.168   7.616  20.873  0.00  0.00    +0.000 NA
ATOM      3  N   UNL     1       1.406   6.292  21.073  0.00  0.00    +0.000 NA
ATOM      4  C   UNL     1       2.169   5.876  20.094  0.00  0.00    +0.000 A 
ATOM      5  S   UNL     1       2.703   4.251  19.928  0.00  0.00    +0.000 S 
ATOM      6  C   UNL     1       3.635   4.435  18.534  0.00  0.00    +0.000 A 
ATOM      7  C   UNL     1       4.326   3.477  17.912  0.00  0.00    +0.000 A 
ATOM      8  C   UNL     1       4.983   4.057  16.769  0.00  0.00    +0.000 A 
ATOM      9  C   UNL     1       5.816   3.433  15.850  0.00  0.00    +0.000 A 
ATOM     10  C   UNL     1       6.356   4.210  14.825  0.00  0.00    +0.000 A 
ATOM     11  C   UNL     1       6.057   5.582  14.738  0.00  0.00    +0.000 A 
ATOM     12  C   UNL     1       5.212   6.204  15.672  0.00  0.00    +0.000 A 
ATOM     13  C   UNL     1       4.684   5.417  16.682  0.00  0.00    +0.000 A 
ATOM     14  C   UNL     1       3.789   5.733  17.816  0.00  0.00    +0.000 A 
ATOM     15  N   UNL     1       3.275   6.896  18.084  0.00  0.00    +0.000 NA
ATOM     16  N   UNL     1       2.476   6.910  19.224  0.00  0.00    +0.000 N 
ENDROOT
BRANCH   1  18
ATOM     17  C   UNL     1       1.017   9.355  17.849  0.00  0.00    +0.000 C 
ATOM     18  C   UNL     1       1.705   9.385  19.221  0.00  0.00    +0.000 C 
ATOM     19  C   UNL     1       0.878  10.268  20.166  0.00  0.00    +0.000 C 
ENDBRANCH   1  18
TORSDOF 1
ENDMDL
