MODEL 1
REMARK VINA RESULT:      -8.4      0.000      0.000
REMARK  Name = 
REMARK  9 active torsions:
REMARK  status: ('A' for Active; 'I' for Inactive)
REMARK    1  A    between atoms: C_1  and  C_2
REMARK    2  A    between atoms: C_2  and  C_3
REMARK    3  A    between atoms: C_2  and  C_4
REMARK    4  A    between atoms: C_4  and  N_5
REMARK    5  A    between atoms: N_5  and  C_6
REMARK    6  A    between atoms: C_6  and  C_7
REMARK    7  A    between atoms: C_10  and  C_11
REMARK    8  A    between atoms: C_16  and  S_17
REMARK    9  A    between atoms: S_17  and  N_20
REMARK                            x       y       z     vdW  Elec       q    Type
REMARK                         _______ _______ _______ _____ _____    ______ ____
ROOT
ATOM      1  C   UNL     1       2.386   5.324  19.848  0.00  0.00    +0.000 A 
ATOM      2  C   UNL     1       1.213   4.803  20.464  0.00  0.00    +0.000 A 
ATOM      3  C   UNL     1       0.999   3.444  20.695  0.00  0.00    +0.000 A 
ATOM      4  C   UNL     1       1.958   2.570  20.256  0.00  0.00    +0.000 A 
ATOM      5  N   UNL     1       3.081   2.974  19.650  0.00  0.00    +0.000 NA
ATOM      6  C   UNL     1       3.303   4.320  19.487  0.00  0.00    +0.000 A 
ENDROOT
BRANCH   1  10
ATOM      7  C   UNL     1       1.209   9.316  18.779  0.00  0.00    +0.000 A 
ATOM      8  C   UNL     1       1.177   8.909  20.111  0.00  0.00    +0.000 A 
ATOM      9  C   UNL     1       1.772   7.694  20.496  0.00  0.00    +0.000 A 
ATOM     10  C   UNL     1       2.350   6.799  19.555  0.00  0.00    +0.000 A 
ATOM     11  C   UNL     1       2.526   7.311  18.268  0.00  0.00    +0.000 A 
ATOM     12  C   UNL     1       1.973   8.550  17.890  0.00  0.00    +0.000 A 
BRANCH   7  13
ATOM     13  C   UNL     1       0.271  10.382  18.240  0.00  0.00    +0.000 C 
BRANCH  13  14
ATOM     14  N   UNL     1      -0.925   9.926  17.529  0.00  0.00    +0.000 NA
ATOM     15  H   UNL     1      -0.660   9.749  16.561  0.00  0.00    +0.000 HD
BRANCH  14  16
ATOM     16  C   UNL     1      -2.002  10.918  17.534  0.00  0.00    +0.000 C 
BRANCH  16  18
ATOM     17  C   UNL     1      -4.450  11.272  16.902  0.00  0.00    +0.000 C 
ATOM     18  C   UNL     1      -3.189  10.433  16.674  0.00  0.00    +0.000 C 
ATOM     19  C   UNL     1      -2.816  10.454  15.191  0.00  0.00    +0.000 C 
ENDBRANCH  16  18
ENDBRANCH  14  16
ENDBRANCH  13  14
ENDBRANCH   7  13
ENDBRANCH   1  10
BRANCH   6  20
ATOM     20  S   UNL     1       5.006   4.598  18.954  0.00  0.00    +0.000 S 
ATOM     21  O   UNL     1       5.494   5.793  19.620  0.00  0.00    +0.000 OA
ATOM     22  O   UNL     1       5.716   3.342  19.080  0.00  0.00    +0.000 OA
BRANCH  20  23
ATOM     23  N   UNL     1       4.985   4.998  17.251  0.00  0.00    +0.000 NA
ATOM     24  C   UNL     1       5.597   4.071  16.263  0.00  0.00    +0.000 C 
ATOM     25  C   UNL     1       7.050   4.476  16.201  0.00  0.00    +0.000 C 
ATOM     26  C   UNL     1       7.006   5.986  16.355  0.00  0.00    +0.000 C 
ATOM     27  C   UNL     1       5.628   6.314  16.939  0.00  0.00    +0.000 C 
ENDBRANCH  20  23
ENDBRANCH   6  20
TORSDOF 7
ENDMDL
MODEL 2
REMARK VINA RESULT:      -8.1      1.133      1.305
REMARK  Name = 
REMARK  9 active torsions:
REMARK  status: ('A' for Active; 'I' for Inactive)
REMARK    1  A    between atoms: C_1  and  C_2
REMARK    2  A    between atoms: C_2  and  C_3
REMARK    3  A    between atoms: C_2  and  C_4
REMARK    4  A    between atoms: C_4  and  N_5
REMARK    5  A    between atoms: N_5  and  C_6
REMARK    6  A    between atoms: C_6  and  C_7
REMARK    7  A    between atoms: C_10  and  C_11
REMARK    8  A    between atoms: C_16  and  S_17
REMARK    9  A    between atoms: S_17  and  N_20
REMARK                            x       y       z     vdW  Elec       q    Type
REMARK                         _______ _______ _______ _____ _____    ______ ____
ROOT
ATOM      1  C   UNL     1       2.761   5.262  18.669  0.00  0.00    +0.000 A 
ATOM      2  C   UNL     1       1.535   4.539  18.665  0.00  0.00    +0.000 A 
ATOM      3  C   UNL     1       1.436   3.186  18.344  0.00  0.00    +0.000 A 
ATOM      4  C   UNL     1       2.583   2.540  17.965  0.00  0.00    +0.000 A 
ATOM      5  N   UNL     1       3.774   3.150  17.923  0.00  0.00    +0.000 NA
ATOM      6  C   UNL     1       3.863   4.466  18.303  0.00  0.00    +0.000 A 
ENDROOT
BRANCH   1  10
ATOM      7  C   UNL     1       1.318   9.295  19.013  0.00  0.00    +0.000 A 
ATOM      8  C   UNL     1       1.332   8.457  20.128  0.00  0.00    +0.000 A 
ATOM      9  C   UNL     1       2.009   7.225  20.080  0.00  0.00    +0.000 A 
ATOM     10  C   UNL     1       2.628   6.742  18.895  0.00  0.00    +0.000 A 
ATOM     11  C   UNL     1       2.752   7.672  17.861  0.00  0.00    +0.000 A 
ATOM     12  C   UNL     1       2.115   8.928  17.922  0.00  0.00    +0.000 A 
BRANCH   7  13
ATOM     13  C   UNL     1       0.306  10.417  18.863  0.00  0.00    +0.000 C 
BRANCH  13  14
ATOM     14  N   UNL     1      -0.488  10.443  17.634  0.00  0.00    +0.000 NA
ATOM     15  H   UNL     1       0.051  10.942  16.927  0.00  0.00    +0.000 HD
BRANCH  14  16
ATOM     16  C   UNL     1      -1.770  11.131  17.800  0.00  0.00    +0.000 C 
BRANCH  16  18
ATOM     17  C   UNL     1      -4.276  10.645  17.772  0.00  0.00    +0.000 C 
ATOM     18  C   UNL     1      -2.912  10.314  17.159  0.00  0.00    +0.000 C 
ATOM     19  C   UNL     1      -2.954  10.551  15.648  0.00  0.00    +0.000 C 
ENDBRANCH  16  18
ENDBRANCH  14  16
ENDBRANCH  13  14
ENDBRANCH   7  13
ENDBRANCH   1  10
BRANCH   6  20
ATOM     20  S   UNL     1       5.598   4.939  18.467  0.00  0.00    +0.000 S 
ATOM     21  O   UNL     1       5.717   5.813  19.621  0.00  0.00    +0.000 OA
ATOM     22  O   UNL     1       6.393   3.732  18.372  0.00  0.00    +0.000 OA
BRANCH  20  23
ATOM     23  N   UNL     1       6.024   5.934  17.093  0.00  0.00    +0.000 NA
ATOM     24  C   UNL     1       5.118   6.003  15.916  0.00  0.00    +0.000 C 
ATOM     25  C   UNL     1       5.537   4.848  15.038  0.00  0.00    +0.000 C 
ATOM     26  C   UNL     1       7.044   4.793  15.215  0.00  0.00    +0.000 C 
ATOM     27  C   UNL     1       7.350   5.585  16.492  0.00  0.00    +0.000 C 
ENDBRANCH  20  23
ENDBRANCH   6  20
TORSDOF 7
ENDMDL
MODEL 3
REMARK VINA RESULT:      -8.1      0.908      1.131
REMARK  Name = 
REMARK  9 active torsions:
REMARK  status: ('A' for Active; 'I' for Inactive)
REMARK    1  A    between atoms: C_1  and  C_2
REMARK    2  A    between atoms: C_2  and  C_3
REMARK    3  A    between atoms: C_2  and  C_4
REMARK    4  A    between atoms: C_4  and  N_5
REMARK    5  A    between atoms: N_5  and  C_6
REMARK    6  A    between atoms: C_6  and  C_7
REMARK    7  A    between atoms: C_10  and  C_11
REMARK    8  A    between atoms: C_16  and  S_17
REMARK    9  A    between atoms: S_17  and  N_20
REMARK                            x       y       z     vdW  Elec       q    Type
REMARK                         _______ _______ _______ _____ _____    ______ ____
ROOT
ATOM      1  C   UNL     1       2.483   5.803  19.715  0.00  0.00    +0.000 A 
ATOM      2  C   UNL     1       1.443   5.074  20.358  0.00  0.00    +0.000 A 
ATOM      3  C   UNL     1       1.412   3.683  20.444  0.00  0.00    +0.000 A 
ATOM      4  C   UNL     1       2.420   2.989  19.828  0.00  0.00    +0.000 A 
ATOM      5  N   UNL     1       3.425   3.595  19.184  0.00  0.00    +0.000 NA
ATOM      6  C   UNL     1       3.472   4.968  19.164  0.00  0.00    +0.000 A 
ENDROOT
BRANCH   1  10
ATOM      7  C   UNL     1       0.747   9.706  19.246  0.00  0.00    +0.000 A 
ATOM      8  C   UNL     1       0.917   9.162  20.518  0.00  0.00    +0.000 A 
ATOM      9  C   UNL     1       1.685   7.997  20.694  0.00  0.00    +0.000 A 
ATOM     10  C   UNL     1       2.247   7.284  19.601  0.00  0.00    +0.000 A 
ATOM     11  C   UNL     1       2.214   7.944  18.372  0.00  0.00    +0.000 A 
ATOM     12  C   UNL     1       1.485   9.138  18.200  0.00  0.00    +0.000 A 
BRANCH   7  13
ATOM     13  C   UNL     1      -0.360  10.696  18.935  0.00  0.00    +0.000 C 
BRANCH  13  14
ATOM     14  N   UNL     1      -0.960  10.635  17.601  0.00  0.00    +0.000 NA
ATOM     15  H   UNL     1      -0.291  11.032  16.942  0.00  0.00    +0.000 HD
BRANCH  14  16
ATOM     16  C   UNL     1      -2.205  11.398  17.501  0.00  0.00    +0.000 C 
BRANCH  16  18
ATOM     17  C   UNL     1      -4.590  11.337  16.591  0.00  0.00    +0.000 C 
ATOM     18  C   UNL     1      -3.331  10.524  16.908  0.00  0.00    +0.000 C 
ATOM     19  C   UNL     1      -2.843   9.815  15.643  0.00  0.00    +0.000 C 
ENDBRANCH  16  18
ENDBRANCH  14  16
ENDBRANCH  13  14
ENDBRANCH   7  13
ENDBRANCH   1  10
BRANCH   6  20
ATOM     20  S   UNL     1       5.072   5.515  18.530  0.00  0.00    +0.000 S 
ATOM     21  O   UNL     1       4.854   6.708  17.731  0.00  0.00    +0.000 OA
ATOM     22  O   UNL     1       6.001   5.532  19.642  0.00  0.00    +0.000 OA
BRANCH  20  23
ATOM     23  N   UNL     1       5.654   4.309  17.405  0.00  0.00    +0.000 NA
ATOM     24  C   UNL     1       7.054   4.370  16.908  0.00  0.00    +0.000 C 
ATOM     25  C   UNL     1       6.996   5.273  15.699  0.00  0.00    +0.000 C 
ATOM     26  C   UNL     1       5.658   4.936  15.065  0.00  0.00    +0.000 C 
ATOM     27  C   UNL     1       4.842   4.223  16.150  0.00  0.00    +0.000 C 
ENDBRANCH  20  23
ENDBRANCH   6  20
TORSDOF 7
ENDMDL
MODEL 4
REMARK VINA RESULT:      -8.1      1.099      1.398
REMARK  Name = 
REMARK  9 active torsions:
REMARK  status: ('A' for Active; 'I' for Inactive)
REMARK    1  A    between atoms: C_1  and  C_2
REMARK    2  A    between atoms: C_2  and  C_3
REMARK    3  A    between atoms: C_2  and  C_4
REMARK    4  A    between atoms: C_4  and  N_5
REMARK    5  A    between atoms: N_5  and  C_6
REMARK    6  A    between atoms: C_6  and  C_7
REMARK    7  A    between atoms: C_10  and  C_11
REMARK    8  A    between atoms: C_16  and  S_17
REMARK    9  A    between atoms: S_17  and  N_20
REMARK                            x       y       z     vdW  Elec       q    Type
REMARK                         _______ _______ _______ _____ _____    ______ ____
ROOT
ATOM      1  C   UNL     1       2.305   5.269  19.610  0.00  0.00    +0.000 A 
ATOM      2  C   UNL     1       1.335   4.784  20.531  0.00  0.00    +0.000 A 
ATOM      3  C   UNL     1       1.100   3.430  20.766  0.00  0.00    +0.000 A 
ATOM      4  C   UNL     1       1.816   2.527  20.025  0.00  0.00    +0.000 A 
ATOM      5  N   UNL     1       2.733   2.898  19.124  0.00  0.00    +0.000 NA
ATOM      6  C   UNL     1       2.995   4.235  18.951  0.00  0.00    +0.000 A 
ENDROOT
BRANCH   1  10
ATOM      7  C   UNL     1       1.163   9.354  18.917  0.00  0.00    +0.000 A 
ATOM      8  C   UNL     1       1.308   8.878  20.219  0.00  0.00    +0.000 A 
ATOM      9  C   UNL     1       1.898   7.622  20.453  0.00  0.00    +0.000 A 
ATOM     10  C   UNL     1       2.292   6.758  19.396  0.00  0.00    +0.000 A 
ATOM     11  C   UNL     1       2.302   7.331  18.123  0.00  0.00    +0.000 A 
ATOM     12  C   UNL     1       1.755   8.609  17.890  0.00  0.00    +0.000 A 
BRANCH   7  13
ATOM     13  C   UNL     1       0.206  10.481  18.575  0.00  0.00    +0.000 C 
BRANCH  13  14
ATOM     14  N   UNL     1      -0.742  10.247  17.484  0.00  0.00    +0.000 NA
ATOM     15  H   UNL     1      -0.269  10.473  16.609  0.00  0.00    +0.000 HD
BRANCH  14  16
ATOM     16  C   UNL     1      -1.940  11.083  17.582  0.00  0.00    +0.000 C 
BRANCH  16  18
ATOM     17  C   UNL     1      -4.455  11.109  17.142  0.00  0.00    +0.000 C 
ATOM     18  C   UNL     1      -3.118  10.436  16.821  0.00  0.00    +0.000 C 
ATOM     19  C   UNL     1      -2.865  10.482  15.313  0.00  0.00    +0.000 C 
ENDBRANCH  16  18
ENDBRANCH  14  16
ENDBRANCH  13  14
ENDBRANCH   7  13
ENDBRANCH   1  10
BRANCH   6  20
ATOM     20  S   UNL     1       4.476   4.442  17.939  0.00  0.00    +0.000 S 
ATOM     21  O   UNL     1       5.361   3.321  18.204  0.00  0.00    +0.000 OA
ATOM     22  O   UNL     1       4.047   4.738  16.588  0.00  0.00    +0.000 OA
BRANCH  20  23
ATOM     23  N   UNL     1       5.338   5.851  18.516  0.00  0.00    +0.000 NA
ATOM     24  C   UNL     1       5.882   6.838  17.546  0.00  0.00    +0.000 C 
ATOM     25  C   UNL     1       7.253   6.314  17.190  0.00  0.00    +0.000 C 
ATOM     26  C   UNL     1       7.756   5.717  18.492  0.00  0.00    +0.000 C 
ATOM     27  C   UNL     1       6.518   5.519  19.375  0.00  0.00    +0.000 C 
ENDBRANCH  20  23
ENDBRANCH   6  20
TORSDOF 7
ENDMDL
MODEL 5
REMARK VINA RESULT:      -8.0      2.175      2.933
REMARK  Name = 
REMARK  9 active torsions:
REMARK  status: ('A' for Active; 'I' for Inactive)
REMARK    1  A    between atoms: C_1  and  C_2
REMARK    2  A    between atoms: C_2  and  C_3
REMARK    3  A    between atoms: C_2  and  C_4
REMARK    4  A    between atoms: C_4  and  N_5
REMARK    5  A    between atoms: N_5  and  C_6
REMARK    6  A    between atoms: C_6  and  C_7
REMARK    7  A    between atoms: C_10  and  C_11
REMARK    8  A    between atoms: C_16  and  S_17
REMARK    9  A    between atoms: S_17  and  N_20
REMARK                            x       y       z     vdW  Elec       q    Type
REMARK                         _______ _______ _______ _____ _____    ______ ____
ROOT
ATOM      1  C   UNL     1       2.737   5.267  18.607  0.00  0.00    +0.000 A 
ATOM      2  C   UNL     1       1.510   4.548  18.539  0.00  0.00    +0.000 A 
ATOM      3  C   UNL     1       1.419   3.208  18.162  0.00  0.00    +0.000 A 
ATOM      4  C   UNL     1       2.576   2.575  17.791  0.00  0.00    +0.000 A 
ATOM      5  N   UNL     1       3.768   3.183  17.808  0.00  0.00    +0.000 NA
ATOM      6  C   UNL     1       3.848   4.484  18.242  0.00  0.00    +0.000 A 
ENDROOT
BRANCH   1  10
ATOM      7  C   UNL     1       1.262   9.262  19.181  0.00  0.00    +0.000 A 
ATOM      8  C   UNL     1       1.373   8.393  20.265  0.00  0.00    +0.000 A 
ATOM      9  C   UNL     1       2.063   7.175  20.129  0.00  0.00    +0.000 A 
ATOM     10  C   UNL     1       2.598   6.738  18.888  0.00  0.00    +0.000 A 
ATOM     11  C   UNL     1       2.630   7.699  17.875  0.00  0.00    +0.000 A 
ATOM     12  C   UNL     1       1.981   8.941  18.022  0.00  0.00    +0.000 A 
BRANCH   7  13
ATOM     13  C   UNL     1       0.226  10.370  19.140  0.00  0.00    +0.000 C 
BRANCH  13  14
ATOM     14  N   UNL     1       0.198  11.304  20.267  0.00  0.00    +0.000 NA
ATOM     15  H   UNL     1       0.928  11.023  20.921  0.00  0.00    +0.000 HD
BRANCH  14  16
ATOM     16  C   UNL     1      -1.080  11.297  20.981  0.00  0.00    +0.000 C 
BRANCH  16  18
ATOM     17  C   UNL     1      -2.054  11.932  23.254  0.00  0.00    +0.000 C 
ATOM     18  C   UNL     1      -0.850  11.352  22.507  0.00  0.00    +0.000 C 
ATOM     19  C   UNL     1      -0.530   9.957  23.047  0.00  0.00    +0.000 C 
ENDBRANCH  16  18
ENDBRANCH  14  16
ENDBRANCH  13  14
ENDBRANCH   7  13
ENDBRANCH   1  10
BRANCH   6  20
ATOM     20  S   UNL     1       5.578   4.946  18.475  0.00  0.00    +0.000 S 
ATOM     21  O   UNL     1       5.660   5.797  19.649  0.00  0.00    +0.000 OA
ATOM     22  O   UNL     1       6.371   3.737  18.384  0.00  0.00    +0.000 OA
BRANCH  20  23
ATOM     23  N   UNL     1       6.054   5.965  17.136  0.00  0.00    +0.000 NA
ATOM     24  C   UNL     1       5.146   6.135  15.971  0.00  0.00    +0.000 C 
ATOM     25  C   UNL     1       5.488   4.992  15.045  0.00  0.00    +0.000 C 
ATOM     26  C   UNL     1       6.990   4.838  15.207  0.00  0.00    +0.000 C 
ATOM     27  C   UNL     1       7.353   5.560  16.510  0.00  0.00    +0.000 C 
ENDBRANCH  20  23
ENDBRANCH   6  20
TORSDOF 7
ENDMDL
MODEL 6
REMARK VINA RESULT:      -8.0      0.661      1.107
REMARK  Name = 
REMARK  9 active torsions:
REMARK  status: ('A' for Active; 'I' for Inactive)
REMARK    1  A    between atoms: C_1  and  C_2
REMARK    2  A    between atoms: C_2  and  C_3
REMARK    3  A    between atoms: C_2  and  C_4
REMARK    4  A    between atoms: C_4  and  N_5
REMARK    5  A    between atoms: N_5  and  C_6
REMARK    6  A    between atoms: C_6  and  C_7
REMARK    7  A    between atoms: C_10  and  C_11
REMARK    8  A    between atoms: C_16  and  S_17
REMARK    9  A    between atoms: S_17  and  N_20
REMARK                            x       y       z     vdW  Elec       q    Type
REMARK                         _______ _______ _______ _____ _____    ______ ____
ROOT
ATOM      1  C   UNL     1       2.289   5.007  19.502  0.00  0.00    +0.000 A 
ATOM      2  C   UNL     1       1.004   4.467  19.789  0.00  0.00    +0.000 A 
ATOM      3  C   UNL     1       0.722   3.101  19.791  0.00  0.00    +0.000 A 
ATOM      4  C   UNL     1       1.735   2.246  19.448  0.00  0.00    +0.000 A 
ATOM      5  N   UNL     1       2.968   2.672  19.144  0.00  0.00    +0.000 NA
ATOM      6  C   UNL     1       3.243   4.016  19.209  0.00  0.00    +0.000 A 
ENDROOT
BRANCH   1  10
ATOM      7  C   UNL     1       1.345   9.171  19.016  0.00  0.00    +0.000 A 
ATOM      8  C   UNL     1       1.339   8.595  20.285  0.00  0.00    +0.000 A 
ATOM      9  C   UNL     1       1.865   7.305  20.479  0.00  0.00    +0.000 A 
ATOM     10  C   UNL     1       2.342   6.507  19.404  0.00  0.00    +0.000 A 
ATOM     11  C   UNL     1       2.500   7.172  18.187  0.00  0.00    +0.000 A 
ATOM     12  C   UNL     1       2.018   8.483  17.999  0.00  0.00    +0.000 A 
BRANCH   7  13
ATOM     13  C   UNL     1       0.461  10.355  18.666  0.00  0.00    +0.000 C 
BRANCH  13  14
ATOM     14  N   UNL     1      -0.465  10.193  17.543  0.00  0.00    +0.000 NA
ATOM     15  H   UNL     1      -0.330  10.984  16.914  0.00  0.00    +0.000 HD
BRANCH  14  16
ATOM     16  C   UNL     1      -1.868  10.177  17.960  0.00  0.00    +0.000 C 
BRANCH  16  18
ATOM     17  C   UNL     1      -2.771  10.234  15.573  0.00  0.00    +0.000 C 
ATOM     18  C   UNL     1      -2.747  10.929  16.937  0.00  0.00    +0.000 C 
ATOM     19  C   UNL     1      -4.174  11.075  17.468  0.00  0.00    +0.000 C 
ENDBRANCH  16  18
ENDBRANCH  14  16
ENDBRANCH  13  14
ENDBRANCH   7  13
ENDBRANCH   1  10
BRANCH   6  20
ATOM     20  S   UNL     1       5.025   4.282  19.079  0.00  0.00    +0.000 S 
ATOM     21  O   UNL     1       5.299   5.664  19.430  0.00  0.00    +0.000 OA
ATOM     22  O   UNL     1       5.682   3.199  19.782  0.00  0.00    +0.000 OA
BRANCH  20  23
ATOM     23  N   UNL     1       5.476   4.138  17.396  0.00  0.00    +0.000 NA
ATOM     24  C   UNL     1       6.828   4.566  16.949  0.00  0.00    +0.000 C 
ATOM     25  C   UNL     1       6.686   6.038  16.645  0.00  0.00    +0.000 C 
ATOM     26  C   UNL     1       5.290   6.148  16.057  0.00  0.00    +0.000 C 
ATOM     27  C   UNL     1       4.555   4.866  16.467  0.00  0.00    +0.000 C 
ENDBRANCH  20  23
ENDBRANCH   6  20
TORSDOF 7
ENDMDL
MODEL 7
REMARK VINA RESULT:      -7.9      1.591      2.026
REMARK  Name = 
REMARK  9 active torsions:
REMARK  status: ('A' for Active; 'I' for Inactive)
REMARK    1  A    between atoms: C_1  and  C_2
REMARK    2  A    between atoms: C_2  and  C_3
REMARK    3  A    between atoms: C_2  and  C_4
REMARK    4  A    between atoms: C_4  and  N_5
REMARK    5  A    between atoms: N_5  and  C_6
REMARK    6  A    between atoms: C_6  and  C_7
REMARK    7  A    between atoms: C_10  and  C_11
REMARK    8  A    between atoms: C_16  and  S_17
REMARK    9  A    between atoms: S_17  and  N_20
REMARK                            x       y       z     vdW  Elec       q    Type
REMARK                         _______ _______ _______ _____ _____    ______ ____
ROOT
ATOM      1  C   UNL     1       2.355   5.258  19.893  0.00  0.00    +0.000 A 
ATOM      2  C   UNL     1       1.178   4.720  20.484  0.00  0.00    +0.000 A 
ATOM      3  C   UNL     1       0.956   3.355  20.665  0.00  0.00    +0.000 A 
ATOM      4  C   UNL     1       1.913   2.493  20.198  0.00  0.00    +0.000 A 
ATOM      5  N   UNL     1       3.040   2.913  19.612  0.00  0.00    +0.000 NA
ATOM      6  C   UNL     1       3.270   4.263  19.499  0.00  0.00    +0.000 A 
ENDROOT
BRANCH   1  10
ATOM      7  C   UNL     1       1.196   9.296  18.990  0.00  0.00    +0.000 A 
ATOM      8  C   UNL     1       1.187   8.842  20.308  0.00  0.00    +0.000 A 
ATOM      9  C   UNL     1       1.778   7.608  20.637  0.00  0.00    +0.000 A 
ATOM     10  C   UNL     1       2.328   6.742  19.654  0.00  0.00    +0.000 A 
ATOM     11  C   UNL     1       2.484   7.298  18.382  0.00  0.00    +0.000 A 
ATOM     12  C   UNL     1       1.935   8.555  18.059  0.00  0.00    +0.000 A 
BRANCH   7  13
ATOM     13  C   UNL     1       0.258  10.388  18.509  0.00  0.00    +0.000 C 
BRANCH  13  14
ATOM     14  N   UNL     1       0.828  11.723  18.312  0.00  0.00    +0.000 NA
ATOM     15  H   UNL     1       1.810  11.683  18.583  0.00  0.00    +0.000 HD
BRANCH  14  16
ATOM     16  C   UNL     1       0.171  12.747  19.127  0.00  0.00    +0.000 C 
BRANCH  16  18
ATOM     17  C   UNL     1      -0.319  12.278  21.588  0.00  0.00    +0.000 C 
ATOM     18  C   UNL     1      -0.792  12.097  20.143  0.00  0.00    +0.000 C 
ATOM     19  C   UNL     1      -2.201  12.673  19.985  0.00  0.00    +0.000 C 
ENDBRANCH  16  18
ENDBRANCH  14  16
ENDBRANCH  13  14
ENDBRANCH   7  13
ENDBRANCH   1  10
BRANCH   6  20
ATOM     20  S   UNL     1       4.976   4.552  18.984  0.00  0.00    +0.000 S 
ATOM     21  O   UNL     1       5.458   5.735  19.674  0.00  0.00    +0.000 OA
ATOM     22  O   UNL     1       5.686   3.294  19.094  0.00  0.00    +0.000 OA
BRANCH  20  23
ATOM     23  N   UNL     1       4.968   4.981  17.289  0.00  0.00    +0.000 NA
ATOM     24  C   UNL     1       5.599   4.078  16.290  0.00  0.00    +0.000 C 
ATOM     25  C   UNL     1       7.048   4.499  16.250  0.00  0.00    +0.000 C 
ATOM     26  C   UNL     1       6.988   6.005  16.429  0.00  0.00    +0.000 C 
ATOM     27  C   UNL     1       5.600   6.309  17.006  0.00  0.00    +0.000 C 
ENDBRANCH  20  23
ENDBRANCH   6  20
TORSDOF 7
ENDMDL
MODEL 8
REMARK VINA RESULT:      -7.9      1.690      3.841
REMARK  Name = 
REMARK  9 active torsions:
REMARK  status: ('A' for Active; 'I' for Inactive)
REMARK    1  A    between atoms: C_1  and  C_2
REMARK    2  A    between atoms: C_2  and  C_3
REMARK    3  A    between atoms: C_2  and  C_4
REMARK    4  A    between atoms: C_4  and  N_5
REMARK    5  A    between atoms: N_5  and  C_6
REMARK    6  A    between atoms: C_6  and  C_7
REMARK    7  A    between atoms: C_10  and  C_11
REMARK    8  A    between atoms: C_16  and  S_17
REMARK    9  A    between atoms: S_17  and  N_20
REMARK                            x       y       z     vdW  Elec       q    Type
REMARK                         _______ _______ _______ _____ _____    ______ ____
ROOT
ATOM      1  C   UNL     1       4.623   5.965  18.281  0.00  0.00    +0.000 A 
ATOM      2  C   UNL     1       5.586   6.698  17.533  0.00  0.00    +0.000 A 
ATOM      3  C   UNL     1       6.908   6.288  17.362  0.00  0.00    +0.000 A 
ATOM      4  C   UNL     1       7.301   5.139  17.995  0.00  0.00    +0.000 A 
ATOM      5  N   UNL     1       6.464   4.400  18.734  0.00  0.00    +0.000 NA
ATOM      6  C   UNL     1       5.150   4.786  18.840  0.00  0.00    +0.000 A 
ENDROOT
BRANCH   1  10
ATOM      7  C   UNL     1       1.504   8.828  19.016  0.00  0.00    +0.000 A 
ATOM      8  C   UNL     1       1.940   8.585  17.715  0.00  0.00    +0.000 A 
ATOM      9  C   UNL     1       2.789   7.497  17.443  0.00  0.00    +0.000 A 
ATOM     10  C   UNL     1       3.301   6.657  18.469  0.00  0.00    +0.000 A 
ATOM     11  C   UNL     1       2.709   6.812  19.724  0.00  0.00    +0.000 A 
ATOM     12  C   UNL     1       1.821   7.874  19.990  0.00  0.00    +0.000 A 
BRANCH   7  13
ATOM     13  C   UNL     1       0.933  10.171  19.436  0.00  0.00    +0.000 C 
BRANCH  13  14
ATOM     14  N   UNL     1       0.490  11.073  18.372  0.00  0.00    +0.000 NA
ATOM     15  H   UNL     1       1.241  11.742  18.200  0.00  0.00    +0.000 HD
BRANCH  14  16
ATOM     16  C   UNL     1      -0.716  11.825  18.728  0.00  0.00    +0.000 C 
BRANCH  16  18
ATOM     17  C   UNL     1      -1.752  10.045  17.219  0.00  0.00    +0.000 C 
ATOM     18  C   UNL     1      -1.880  11.464  17.780  0.00  0.00    +0.000 C 
ATOM     19  C   UNL     1      -3.220  11.615  18.502  0.00  0.00    +0.000 C 
ENDBRANCH  16  18
ENDBRANCH  14  16
ENDBRANCH  13  14
ENDBRANCH   7  13
ENDBRANCH   1  10
BRANCH   6  20
ATOM     20  S   UNL     1       4.184   3.464  19.601  0.00  0.00    +0.000 S 
ATOM     21  O   UNL     1       5.109   2.452  20.081  0.00  0.00    +0.000 OA
ATOM     22  O   UNL     1       3.232   4.080  20.504  0.00  0.00    +0.000 OA
BRANCH  20  23
ATOM     23  N   UNL     1       3.254   2.677  18.347  0.00  0.00    +0.000 NA
ATOM     24  C   UNL     1       2.598   3.489  17.288  0.00  0.00    +0.000 C 
ATOM     25  C   UNL     1       1.252   3.861  17.863  0.00  0.00    +0.000 C 
ATOM     26  C   UNL     1       0.852   2.630  18.658  0.00  0.00    +0.000 C 
ATOM     27  C   UNL     1       2.140   1.827  18.874  0.00  0.00    +0.000 C 
ENDBRANCH  20  23
ENDBRANCH   6  20
TORSDOF 7
ENDMDL
MODEL 9
REMARK VINA RESULT:      -7.9      1.713      2.607
REMARK  Name = 
REMARK  9 active torsions:
REMARK  status: ('A' for Active; 'I' for Inactive)
REMARK    1  A    between atoms: C_1  and  C_2
REMARK    2  A    between atoms: C_2  and  C_3
REMARK    3  A    between atoms: C_2  and  C_4
REMARK    4  A    between atoms: C_4  and  N_5
REMARK    5  A    between atoms: N_5  and  C_6
REMARK    6  A    between atoms: C_6  and  C_7
REMARK    7  A    between atoms: C_10  and  C_11
REMARK    8  A    between atoms: C_16  and  S_17
REMARK    9  A    between atoms: S_17  and  N_20
REMARK                            x       y       z     vdW  Elec       q    Type
REMARK                         _______ _______ _______ _____ _____    ______ ____
ROOT
ATOM      1  C   UNL     1       2.334   5.245  19.881  0.00  0.00    +0.000 A 
ATOM      2  C   UNL     1       1.147   4.706  20.451  0.00  0.00    +0.000 A 
ATOM      3  C   UNL     1       0.917   3.340  20.612  0.00  0.00    +0.000 A 
ATOM      4  C   UNL     1       1.874   2.478  20.145  0.00  0.00    +0.000 A 
ATOM      5  N   UNL     1       3.011   2.901  19.577  0.00  0.00    +0.000 NA
ATOM      6  C   UNL     1       3.248   4.250  19.485  0.00  0.00    +0.000 A 
ENDROOT
BRANCH   1  10
ATOM      7  C   UNL     1       1.204   9.301  19.026  0.00  0.00    +0.000 A 
ATOM      8  C   UNL     1       1.186   8.830  20.338  0.00  0.00    +0.000 A 
ATOM      9  C   UNL     1       1.767   7.589  20.653  0.00  0.00    +0.000 A 
ATOM     10  C   UNL     1       2.317   6.732  19.661  0.00  0.00    +0.000 A 
ATOM     11  C   UNL     1       2.482   7.304  18.398  0.00  0.00    +0.000 A 
ATOM     12  C   UNL     1       1.943   8.569  18.089  0.00  0.00    +0.000 A 
BRANCH   7  13
ATOM     13  C   UNL     1       0.275  10.406  18.555  0.00  0.00    +0.000 C 
BRANCH  13  14
ATOM     14  N   UNL     1       0.859  11.732  18.350  0.00  0.00    +0.000 NA
ATOM     15  H   UNL     1       1.775  11.605  17.921  0.00  0.00    +0.000 HD
BRANCH  14  16
ATOM     16  C   UNL     1       1.041  12.473  19.601  0.00  0.00    +0.000 C 
BRANCH  16  18
ATOM     17  C   UNL     1       2.947  13.573  18.307  0.00  0.00    +0.000 C 
ATOM     18  C   UNL     1       1.845  13.767  19.353  0.00  0.00    +0.000 C 
ATOM     19  C   UNL     1       0.912  14.898  18.916  0.00  0.00    +0.000 C 
ENDBRANCH  16  18
ENDBRANCH  14  16
ENDBRANCH  13  14
ENDBRANCH   7  13
ENDBRANCH   1  10
BRANCH   6  20
ATOM     20  S   UNL     1       4.962   4.537  18.993  0.00  0.00    +0.000 S 
ATOM     21  O   UNL     1       5.438   5.718  19.693  0.00  0.00    +0.000 OA
ATOM     22  O   UNL     1       5.668   3.278  19.108  0.00  0.00    +0.000 OA
BRANCH  20  23
ATOM     23  N   UNL     1       4.977   4.972  17.299  0.00  0.00    +0.000 NA
ATOM     24  C   UNL     1       5.607   4.064  16.305  0.00  0.00    +0.000 C 
ATOM     25  C   UNL     1       7.062   4.467  16.281  0.00  0.00    +0.000 C 
ATOM     26  C   UNL     1       7.018   5.974  16.464  0.00  0.00    +0.000 C 
ATOM     27  C   UNL     1       5.628   6.293  17.028  0.00  0.00    +0.000 C 
ENDBRANCH  20  23
ENDBRANCH   6  20
TORSDOF 7
ENDMDL
