MODEL 1
REMARK VINA RESULT:      -7.5      0.000      0.000
REMARK  Name = 
REMARK  9 active torsions:
REMARK  status: ('A' for Active; 'I' for Inactive)
REMARK    1  A    between atoms: C_1  and  C_2
REMARK    2  A    between atoms: C_2  and  C_3
REMARK    3  A    between atoms: C_6  and  C_7
REMARK    4  A    between atoms: N_9  and  C_10
REMARK    5  A    between atoms: N_9  and  C_14
REMARK    6  A    between atoms: C_10  and  C_11
REMARK    7  A    between atoms: C_11  and  O_12
REMARK    8  A    between atoms: O_12  and  C_13
REMARK    9  A    between atoms: C_14  and  C_15
REMARK                            x       y       z     vdW  Elec       q    Type
REMARK                         _______ _______ _______ _____ _____    ______ ____
ROOT
ATOM      1  C   UNL     1       5.232   4.823  17.934  0.00  0.00    +0.000 C 
ATOM      2  O   UNL     1       5.697   3.952  18.671  0.00  0.00    +0.000 OA
ATOM      3  N   UNL     1       4.188   5.682  18.344  0.00  0.00    +0.000 N 
ENDROOT
BRANCH   1   7
ATOM      4  C   UNL     1       7.071   4.926  14.132  0.00  0.00    +0.000 A 
ATOM      5  N   UNL     1       5.970   4.175  14.268  0.00  0.00    +0.000 NA
ATOM      6  C   UNL     1       5.398   4.150  15.491  0.00  0.00    +0.000 A 
ATOM      7  C   UNL     1       5.826   4.875  16.575  0.00  0.00    +0.000 A 
ATOM      8  C   UNL     1       7.000   5.569  16.340  0.00  0.00    +0.000 A 
ATOM      9  N   UNL     1       7.634   5.629  15.136  0.00  0.00    +0.000 NA
BRANCH   4  11
ATOM     10  C   UNL     1       7.092   3.911  11.881  0.00  0.00    +0.000 C 
ATOM     11  C   UNL     1       7.623   5.048  12.742  0.00  0.00    +0.000 C 
ENDBRANCH   4  11
ENDBRANCH   1   7
BRANCH   3  12
ATOM     12  C   UNL     1       3.741   6.873  17.596  0.00  0.00    +0.000 C 
BRANCH  12  13
ATOM     13  C   UNL     1       2.692   7.839  18.165  0.00  0.00    +0.000 C 
BRANCH  13  14
ATOM     14  O   UNL     1       2.302   8.862  17.255  0.00  0.00    +0.000 OA
ATOM     15  C   UNL     1       1.527   9.851  17.935  0.00  0.00    +0.000 C 
ENDBRANCH  13  14
ENDBRANCH  12  13
ENDBRANCH   3  12
BRANCH   3  16
ATOM     16  C   UNL     1       3.632   5.442  19.695  0.00  0.00    +0.000 C 
BRANCH  16  17
ATOM     17  C   UNL     1       2.538   4.397  19.711  0.00  0.00    +0.000 A 
ATOM     18  C   UNL     1       2.017   3.843  18.531  0.00  0.00    +0.000 A 
ATOM     19  C   UNL     1       1.020   2.862  18.585  0.00  0.00    +0.000 A 
ATOM     20  C   UNL     1       0.550   2.405  19.814  0.00  0.00    +0.000 A 
ATOM     21  C   UNL     1       1.088   2.918  20.994  0.00  0.00    +0.000 A 
ATOM     22  C   UNL     1       2.077   3.896  20.933  0.00  0.00    +0.000 A 
ATOM     23  F   UNL     1       2.591   4.355  22.083  0.00  0.00    +0.000 F 
ENDBRANCH  16  17
ENDBRANCH   3  16
TORSDOF 7
ENDMDL
MODEL 2
REMARK VINA RESULT:      -7.2      0.864      1.313
REMARK  Name = 
REMARK  9 active torsions:
REMARK  status: ('A' for Active; 'I' for Inactive)
REMARK    1  A    between atoms: C_1  and  C_2
REMARK    2  A    between atoms: C_2  and  C_3
REMARK    3  A    between atoms: C_6  and  C_7
REMARK    4  A    between atoms: N_9  and  C_10
REMARK    5  A    between atoms: N_9  and  C_14
REMARK    6  A    between atoms: C_10  and  C_11
REMARK    7  A    between atoms: C_11  and  O_12
REMARK    8  A    between atoms: O_12  and  C_13
REMARK    9  A    between atoms: C_14  and  C_15
REMARK                            x       y       z     vdW  Elec       q    Type
REMARK                         _______ _______ _______ _____ _____    ______ ____
ROOT
ATOM      1  C   UNL     1       5.709   4.773  17.846  0.00  0.00    +0.000 C 
ATOM      2  O   UNL     1       6.277   3.981  18.599  0.00  0.00    +0.000 OA
ATOM      3  N   UNL     1       4.656   5.608  18.283  0.00  0.00    +0.000 N 
ENDROOT
BRANCH   1   7
ATOM      4  C   UNL     1       6.916   4.769  13.797  0.00  0.00    +0.000 A 
ATOM      5  N   UNL     1       7.634   5.503  14.658  0.00  0.00    +0.000 NA
ATOM      6  C   UNL     1       7.231   5.496  15.947  0.00  0.00    +0.000 A 
ATOM      7  C   UNL     1       6.187   4.756  16.441  0.00  0.00    +0.000 A 
ATOM      8  C   UNL     1       5.482   4.082  15.459  0.00  0.00    +0.000 A 
ATOM      9  N   UNL     1       5.826   4.054  14.142  0.00  0.00    +0.000 NA
BRANCH   4  11
ATOM     10  C   UNL     1       6.935   3.410  11.736  0.00  0.00    +0.000 C 
ATOM     11  C   UNL     1       7.446   4.682  12.396  0.00  0.00    +0.000 C 
ENDBRANCH   4  11
ENDBRANCH   1   7
BRANCH   3  12
ATOM     12  C   UNL     1       4.086   6.718  17.497  0.00  0.00    +0.000 C 
BRANCH  12  13
ATOM     13  C   UNL     1       2.873   7.521  17.991  0.00  0.00    +0.000 C 
BRANCH  13  14
ATOM     14  O   UNL     1       2.592   8.674  17.206  0.00  0.00    +0.000 OA
ATOM     15  C   UNL     1       1.804   9.597  17.960  0.00  0.00    +0.000 C 
ENDBRANCH  13  14
ENDBRANCH  12  13
ENDBRANCH   3  12
BRANCH   3  16
ATOM     16  C   UNL     1       4.225   5.438  19.690  0.00  0.00    +0.000 C 
BRANCH  16  17
ATOM     17  C   UNL     1       3.074   4.470  19.846  0.00  0.00    +0.000 A 
ATOM     18  C   UNL     1       3.188   3.111  19.511  0.00  0.00    +0.000 A 
ATOM     19  C   UNL     1       2.108   2.239  19.689  0.00  0.00    +0.000 A 
ATOM     20  C   UNL     1       0.910   2.706  20.227  0.00  0.00    +0.000 A 
ATOM     21  C   UNL     1       0.796   4.044  20.601  0.00  0.00    +0.000 A 
ATOM     22  C   UNL     1       1.873   4.907  20.418  0.00  0.00    +0.000 A 
ATOM     23  F   UNL     1       1.742   6.183  20.807  0.00  0.00    +0.000 F 
ENDBRANCH  16  17
ENDBRANCH   3  16
TORSDOF 7
ENDMDL
MODEL 3
REMARK VINA RESULT:      -7.2      0.320      1.128
REMARK  Name = 
REMARK  9 active torsions:
REMARK  status: ('A' for Active; 'I' for Inactive)
REMARK    1  A    between atoms: C_1  and  C_2
REMARK    2  A    between atoms: C_2  and  C_3
REMARK    3  A    between atoms: C_6  and  C_7
REMARK    4  A    between atoms: N_9  and  C_10
REMARK    5  A    between atoms: N_9  and  C_14
REMARK    6  A    between atoms: C_10  and  C_11
REMARK    7  A    between atoms: C_11  and  O_12
REMARK    8  A    between atoms: O_12  and  C_13
REMARK    9  A    between atoms: C_14  and  C_15
REMARK                            x       y       z     vdW  Elec       q    Type
REMARK                         _______ _______ _______ _____ _____    ______ ____
ROOT
ATOM      1  C   UNL     1       5.318   4.816  17.977  0.00  0.00    +0.000 C 
ATOM      2  O   UNL     1       5.774   3.979  18.757  0.00  0.00    +0.000 OA
ATOM      3  N   UNL     1       4.259   5.682  18.333  0.00  0.00    +0.000 N 
ENDROOT
BRANCH   1   7
ATOM      4  C   UNL     1       6.933   4.875  14.074  0.00  0.00    +0.000 A 
ATOM      5  N   UNL     1       7.575   5.571  15.022  0.00  0.00    +0.000 NA
ATOM      6  C   UNL     1       7.042   5.545  16.262  0.00  0.00    +0.000 A 
ATOM      7  C   UNL     1       5.937   4.819  16.629  0.00  0.00    +0.000 A 
ATOM      8  C   UNL     1       5.321   4.185  15.563  0.00  0.00    +0.000 A 
ATOM      9  N   UNL     1       5.797   4.180  14.288  0.00  0.00    +0.000 NA
BRANCH   4  11
ATOM     10  C   UNL     1       8.548   5.989  12.575  0.00  0.00    +0.000 C 
ATOM     11  C   UNL     1       7.602   4.807  12.732  0.00  0.00    +0.000 C 
ENDBRANCH   4  11
ENDBRANCH   1   7
BRANCH   3  12
ATOM     12  C   UNL     1       3.817   6.838  17.530  0.00  0.00    +0.000 C 
BRANCH  12  13
ATOM     13  C   UNL     1       2.567   7.649  17.899  0.00  0.00    +0.000 C 
BRANCH  13  14
ATOM     14  O   UNL     1       2.616   9.005  17.470  0.00  0.00    +0.000 OA
ATOM     15  C   UNL     1       1.492   9.722  17.984  0.00  0.00    +0.000 C 
ENDBRANCH  13  14
ENDBRANCH  12  13
ENDBRANCH   3  12
BRANCH   3  16
ATOM     16  C   UNL     1       3.679   5.490  19.682  0.00  0.00    +0.000 C 
BRANCH  16  17
ATOM     17  C   UNL     1       2.581   4.451  19.714  0.00  0.00    +0.000 A 
ATOM     18  C   UNL     1       2.054   3.882  18.544  0.00  0.00    +0.000 A 
ATOM     19  C   UNL     1       1.054   2.906  18.613  0.00  0.00    +0.000 A 
ATOM     20  C   UNL     1       0.584   2.468  19.850  0.00  0.00    +0.000 A 
ATOM     21  C   UNL     1       1.127   2.995  21.021  0.00  0.00    +0.000 A 
ATOM     22  C   UNL     1       2.120   3.968  20.945  0.00  0.00    +0.000 A 
ATOM     23  F   UNL     1       2.639   4.441  22.087  0.00  0.00    +0.000 F 
ENDBRANCH  16  17
ENDBRANCH   3  16
TORSDOF 7
ENDMDL
MODEL 4
REMARK VINA RESULT:      -7.2      1.171      1.603
REMARK  Name = 
REMARK  9 active torsions:
REMARK  status: ('A' for Active; 'I' for Inactive)
REMARK    1  A    between atoms: C_1  and  C_2
REMARK    2  A    between atoms: C_2  and  C_3
REMARK    3  A    between atoms: C_6  and  C_7
REMARK    4  A    between atoms: N_9  and  C_10
REMARK    5  A    between atoms: N_9  and  C_14
REMARK    6  A    between atoms: C_10  and  C_11
REMARK    7  A    between atoms: C_11  and  O_12
REMARK    8  A    between atoms: O_12  and  C_13
REMARK    9  A    between atoms: C_14  and  C_15
REMARK                            x       y       z     vdW  Elec       q    Type
REMARK                         _______ _______ _______ _____ _____    ______ ____
ROOT
ATOM      1  C   UNL     1       5.908   4.744  17.797  0.00  0.00    +0.000 C 
ATOM      2  O   UNL     1       6.674   4.162  18.565  0.00  0.00    +0.000 OA
ATOM      3  N   UNL     1       4.739   5.398  18.247  0.00  0.00    +0.000 N 
ENDROOT
BRANCH   1   7
ATOM      4  C   UNL     1       6.819   4.568  13.675  0.00  0.00    +0.000 A 
ATOM      5  N   UNL     1       7.489   5.457  14.422  0.00  0.00    +0.000 NA
ATOM      6  C   UNL     1       7.181   5.503  15.735  0.00  0.00    +0.000 A 
ATOM      7  C   UNL     1       6.285   4.675  16.364  0.00  0.00    +0.000 A 
ATOM      8  C   UNL     1       5.611   3.837  15.492  0.00  0.00    +0.000 A 
ATOM      9  N   UNL     1       5.863   3.748  14.157  0.00  0.00    +0.000 NA
BRANCH   4  11
ATOM     10  C   UNL     1       6.835   3.078  11.706  0.00  0.00    +0.000 C 
ATOM     11  C   UNL     1       7.257   4.437  12.246  0.00  0.00    +0.000 C 
ENDBRANCH   4  11
ENDBRANCH   1   7
BRANCH   3  12
ATOM     12  C   UNL     1       3.904   6.287  17.418  0.00  0.00    +0.000 C 
BRANCH  12  13
ATOM     13  C   UNL     1       3.032   7.390  18.038  0.00  0.00    +0.000 C 
BRANCH  13  14
ATOM     14  O   UNL     1       2.797   8.491  17.168  0.00  0.00    +0.000 OA
ATOM     15  C   UNL     1       1.877   9.402  17.771  0.00  0.00    +0.000 C 
ENDBRANCH  13  14
ENDBRANCH  12  13
ENDBRANCH   3  12
BRANCH   3  16
ATOM     16  C   UNL     1       4.445   5.294  19.696  0.00  0.00    +0.000 C 
BRANCH  16  17
ATOM     17  C   UNL     1       3.242   4.429  19.998  0.00  0.00    +0.000 A 
ATOM     18  C   UNL     1       1.978   4.975  20.270  0.00  0.00    +0.000 A 
ATOM     19  C   UNL     1       0.882   4.143  20.524  0.00  0.00    +0.000 A 
ATOM     20  C   UNL     1       1.028   2.757  20.484  0.00  0.00    +0.000 A 
ATOM     21  C   UNL     1       2.269   2.202  20.175  0.00  0.00    +0.000 A 
ATOM     22  C   UNL     1       3.356   3.036  19.927  0.00  0.00    +0.000 A 
ATOM     23  F   UNL     1       4.532   2.475  19.611  0.00  0.00    +0.000 F 
ENDBRANCH  16  17
ENDBRANCH   3  16
TORSDOF 7
ENDMDL
MODEL 5
REMARK VINA RESULT:      -7.1      1.199      1.367
REMARK  Name = 
REMARK  9 active torsions:
REMARK  status: ('A' for Active; 'I' for Inactive)
REMARK    1  A    between atoms: C_1  and  C_2
REMARK    2  A    between atoms: C_2  and  C_3
REMARK    3  A    between atoms: C_6  and  C_7
REMARK    4  A    between atoms: N_9  and  C_10
REMARK    5  A    between atoms: N_9  and  C_14
REMARK    6  A    between atoms: C_10  and  C_11
REMARK    7  A    between atoms: C_11  and  O_12
REMARK    8  A    between atoms: O_12  and  C_13
REMARK    9  A    between atoms: C_14  and  C_15
REMARK                            x       y       z     vdW  Elec       q    Type
REMARK                         _______ _______ _______ _____ _____    ______ ____
ROOT
ATOM      1  C   UNL     1       5.907   4.810  17.712  0.00  0.00    +0.000 C 
ATOM      2  O   UNL     1       6.715   4.275  18.473  0.00  0.00    +0.000 OA
ATOM      3  N   UNL     1       4.720   5.418  18.178  0.00  0.00    +0.000 N 
ENDROOT
BRANCH   1   7
ATOM      4  C   UNL     1       7.067   4.583  13.656  0.00  0.00    +0.000 A 
ATOM      5  N   UNL     1       6.138   3.717  14.086  0.00  0.00    +0.000 NA
ATOM      6  C   UNL     1       5.783   3.801  15.385  0.00  0.00    +0.000 A 
ATOM      7  C   UNL     1       6.257   4.735  16.273  0.00  0.00    +0.000 A 
ATOM      8  C   UNL     1       7.250   5.540  15.740  0.00  0.00    +0.000 A 
ATOM      9  N   UNL     1       7.663   5.501  14.444  0.00  0.00    +0.000 NA
BRANCH   4  11
ATOM     10  C   UNL     1       7.897   5.924  11.756  0.00  0.00    +0.000 C 
ATOM     11  C   UNL     1       7.360   4.566  12.184  0.00  0.00    +0.000 C 
ENDBRANCH   4  11
ENDBRANCH   1   7
BRANCH   3  12
ATOM     12  C   UNL     1       3.829   6.256  17.353  0.00  0.00    +0.000 C 
BRANCH  12  13
ATOM     13  C   UNL     1       3.428   7.675  17.781  0.00  0.00    +0.000 C 
BRANCH  13  14
ATOM     14  O   UNL     1       2.022   7.893  17.800  0.00  0.00    +0.000 OA
ATOM     15  C   UNL     1       1.744   9.289  17.917  0.00  0.00    +0.000 C 
ENDBRANCH  13  14
ENDBRANCH  12  13
ENDBRANCH   3  12
BRANCH   3  16
ATOM     16  C   UNL     1       4.462   5.325  19.633  0.00  0.00    +0.000 C 
BRANCH  16  17
ATOM     17  C   UNL     1       3.229   4.515  19.968  0.00  0.00    +0.000 A 
ATOM     18  C   UNL     1       1.987   5.115  20.229  0.00  0.00    +0.000 A 
ATOM     19  C   UNL     1       0.863   4.331  20.512  0.00  0.00    +0.000 A 
ATOM     20  C   UNL     1       0.958   2.941  20.516  0.00  0.00    +0.000 A 
ATOM     21  C   UNL     1       2.176   2.331  20.219  0.00  0.00    +0.000 A 
ATOM     22  C   UNL     1       3.291   3.117  19.940  0.00  0.00    +0.000 A 
ATOM     23  F   UNL     1       4.444   2.503  19.636  0.00  0.00    +0.000 F 
ENDBRANCH  16  17
ENDBRANCH   3  16
TORSDOF 7
ENDMDL
MODEL 6
REMARK VINA RESULT:      -7.1      0.983      1.376
REMARK  Name = 
REMARK  9 active torsions:
REMARK  status: ('A' for Active; 'I' for Inactive)
REMARK    1  A    between atoms: C_1  and  C_2
REMARK    2  A    between atoms: C_2  and  C_3
REMARK    3  A    between atoms: C_6  and  C_7
REMARK    4  A    between atoms: N_9  and  C_10
REMARK    5  A    between atoms: N_9  and  C_14
REMARK    6  A    between atoms: C_10  and  C_11
REMARK    7  A    between atoms: C_11  and  O_12
REMARK    8  A    between atoms: O_12  and  C_13
REMARK    9  A    between atoms: C_14  and  C_15
REMARK                            x       y       z     vdW  Elec       q    Type
REMARK                         _______ _______ _______ _____ _____    ______ ____
ROOT
ATOM      1  C   UNL     1       5.086   4.950  18.188  0.00  0.00    +0.000 C 
ATOM      2  O   UNL     1       5.547   4.125  18.979  0.00  0.00    +0.000 OA
ATOM      3  N   UNL     1       4.037   5.829  18.540  0.00  0.00    +0.000 N 
ENDROOT
BRANCH   1   7
ATOM      4  C   UNL     1       6.951   4.836  14.400  0.00  0.00    +0.000 A 
ATOM      5  N   UNL     1       5.842   4.103  14.568  0.00  0.00    +0.000 NA
ATOM      6  C   UNL     1       5.262   4.148  15.786  0.00  0.00    +0.000 A 
ATOM      7  C   UNL     1       5.689   4.925  16.833  0.00  0.00    +0.000 A 
ATOM      8  C   UNL     1       6.872   5.595  16.570  0.00  0.00    +0.000 A 
ATOM      9  N   UNL     1       7.514   5.585  15.370  0.00  0.00    +0.000 NA
BRANCH   4  11
ATOM     10  C   UNL     1       6.811   3.844  12.143  0.00  0.00    +0.000 C 
ATOM     11  C   UNL     1       7.514   4.879  13.009  0.00  0.00    +0.000 C 
ENDBRANCH   4  11
ENDBRANCH   1   7
BRANCH   3  12
ATOM     12  C   UNL     1       3.592   6.972  17.721  0.00  0.00    +0.000 C 
BRANCH  12  13
ATOM     13  C   UNL     1       2.598   8.013  18.257  0.00  0.00    +0.000 C 
BRANCH  13  14
ATOM     14  O   UNL     1       2.296   9.048  17.327  0.00  0.00    +0.000 OA
ATOM     15  C   UNL     1       1.347   9.953  17.895  0.00  0.00    +0.000 C 
ENDBRANCH  13  14
ENDBRANCH  12  13
ENDBRANCH   3  12
BRANCH   3  16
ATOM     16  C   UNL     1       3.472   5.666  19.900  0.00  0.00    +0.000 C 
BRANCH  16  17
ATOM     17  C   UNL     1       2.587   4.446  20.033  0.00  0.00    +0.000 A 
ATOM     18  C   UNL     1       2.558   3.668  21.201  0.00  0.00    +0.000 A 
ATOM     19  C   UNL     1       1.710   2.559  21.297  0.00  0.00    +0.000 A 
ATOM     20  C   UNL     1       0.864   2.227  20.239  0.00  0.00    +0.000 A 
ATOM     21  C   UNL     1       0.854   3.015  19.090  0.00  0.00    +0.000 A 
ATOM     22  C   UNL     1       1.703   4.116  19.000  0.00  0.00    +0.000 A 
ATOM     23  F   UNL     1       1.655   4.868  17.892  0.00  0.00    +0.000 F 
ENDBRANCH  16  17
ENDBRANCH   3  16
TORSDOF 7
ENDMDL
MODEL 7
REMARK VINA RESULT:      -7.0      2.639      3.679
REMARK  Name = 
REMARK  9 active torsions:
REMARK  status: ('A' for Active; 'I' for Inactive)
REMARK    1  A    between atoms: C_1  and  C_2
REMARK    2  A    between atoms: C_2  and  C_3
REMARK    3  A    between atoms: C_6  and  C_7
REMARK    4  A    between atoms: N_9  and  C_10
REMARK    5  A    between atoms: N_9  and  C_14
REMARK    6  A    between atoms: C_10  and  C_11
REMARK    7  A    between atoms: C_11  and  O_12
REMARK    8  A    between atoms: O_12  and  C_13
REMARK    9  A    between atoms: C_14  and  C_15
REMARK                            x       y       z     vdW  Elec       q    Type
REMARK                         _______ _______ _______ _____ _____    ______ ____
ROOT
ATOM      1  C   UNL     1       5.816   4.863  18.198  0.00  0.00    +0.000 C 
ATOM      2  O   UNL     1       6.465   3.903  18.616  0.00  0.00    +0.000 OA
ATOM      3  N   UNL     1       4.467   4.743  17.794  0.00  0.00    +0.000 N 
ENDROOT
BRANCH   1   7
ATOM      4  C   UNL     1       8.095   8.411  17.950  0.00  0.00    +0.000 A 
ATOM      5  N   UNL     1       7.060   8.278  17.110  0.00  0.00    +0.000 NA
ATOM      6  C   UNL     1       6.346   7.136  17.200  0.00  0.00    +0.000 A 
ATOM      7  C   UNL     1       6.566   6.140  18.117  0.00  0.00    +0.000 A 
ATOM      8  C   UNL     1       7.690   6.353  18.896  0.00  0.00    +0.000 A 
ATOM      9  N   UNL     1       8.461   7.475  18.850  0.00  0.00    +0.000 NA
BRANCH   4  11
ATOM     10  C   UNL     1       9.228  10.107  19.342  0.00  0.00    +0.000 C 
ATOM     11  C   UNL     1       8.802   9.735  17.929  0.00  0.00    +0.000 C 
ENDBRANCH   4  11
ENDBRANCH   1   7
BRANCH   3  12
ATOM     12  C   UNL     1       3.579   5.882  17.494  0.00  0.00    +0.000 C 
BRANCH  12  13
ATOM     13  C   UNL     1       3.008   6.779  18.602  0.00  0.00    +0.000 C 
BRANCH  13  14
ATOM     14  O   UNL     1       1.893   7.561  18.190  0.00  0.00    +0.000 OA
ATOM     15  C   UNL     1       2.322   8.880  17.846  0.00  0.00    +0.000 C 
ENDBRANCH  13  14
ENDBRANCH  12  13
ENDBRANCH   3  12
BRANCH   3  16
ATOM     16  C   UNL     1       3.886   3.382  17.840  0.00  0.00    +0.000 C 
BRANCH  16  17
ATOM     17  C   UNL     1       3.005   3.152  19.048  0.00  0.00    +0.000 A 
ATOM     18  C   UNL     1       3.531   2.816  20.305  0.00  0.00    +0.000 A 
ATOM     19  C   UNL     1       2.687   2.633  21.406  0.00  0.00    +0.000 A 
ATOM     20  C   UNL     1       1.310   2.807  21.272  0.00  0.00    +0.000 A 
ATOM     21  C   UNL     1       0.778   3.181  20.039  0.00  0.00    +0.000 A 
ATOM     22  C   UNL     1       1.624   3.358  18.947  0.00  0.00    +0.000 A 
ATOM     23  F   UNL     1       1.087   3.739  17.779  0.00  0.00    +0.000 F 
ENDBRANCH  16  17
ENDBRANCH   3  16
TORSDOF 7
ENDMDL
MODEL 8
REMARK VINA RESULT:      -6.9      2.575      3.625
REMARK  Name = 
REMARK  9 active torsions:
REMARK  status: ('A' for Active; 'I' for Inactive)
REMARK    1  A    between atoms: C_1  and  C_2
REMARK    2  A    between atoms: C_2  and  C_3
REMARK    3  A    between atoms: C_6  and  C_7
REMARK    4  A    between atoms: N_9  and  C_10
REMARK    5  A    between atoms: N_9  and  C_14
REMARK    6  A    between atoms: C_10  and  C_11
REMARK    7  A    between atoms: C_11  and  O_12
REMARK    8  A    between atoms: O_12  and  C_13
REMARK    9  A    between atoms: C_14  and  C_15
REMARK                            x       y       z     vdW  Elec       q    Type
REMARK                         _______ _______ _______ _____ _____    ______ ____
ROOT
ATOM      1  C   UNL     1       5.953   5.027  17.948  0.00  0.00    +0.000 C 
ATOM      2  O   UNL     1       6.666   4.030  18.079  0.00  0.00    +0.000 OA
ATOM      3  N   UNL     1       4.555   4.936  17.760  0.00  0.00    +0.000 N 
ENDROOT
BRANCH   1   7
ATOM      4  C   UNL     1       8.157   8.630  17.980  0.00  0.00    +0.000 A 
ATOM      5  N   UNL     1       7.138   8.534  17.115  0.00  0.00    +0.000 NA
ATOM      6  C   UNL     1       6.448   7.374  17.116  0.00  0.00    +0.000 A 
ATOM      7  C   UNL     1       6.676   6.322  17.967  0.00  0.00    +0.000 A 
ATOM      8  C   UNL     1       7.784   6.504  18.776  0.00  0.00    +0.000 A 
ATOM      9  N   UNL     1       8.530   7.642  18.819  0.00  0.00    +0.000 NA
BRANCH   4  11
ATOM     10  C   UNL     1       9.330  10.202  19.480  0.00  0.00    +0.000 C 
ATOM     11  C   UNL     1       8.835   9.967  18.060  0.00  0.00    +0.000 C 
ENDBRANCH   4  11
ENDBRANCH   1   7
BRANCH   3  12
ATOM     12  C   UNL     1       3.627   6.081  17.814  0.00  0.00    +0.000 C 
BRANCH  12  13
ATOM     13  C   UNL     1       3.042   6.587  19.141  0.00  0.00    +0.000 C 
BRANCH  13  14
ATOM     14  O   UNL     1       2.296   7.793  19.015  0.00  0.00    +0.000 OA
ATOM     15  C   UNL     1       2.529   8.380  17.734  0.00  0.00    +0.000 C 
ENDBRANCH  13  14
ENDBRANCH  12  13
ENDBRANCH   3  12
BRANCH   3  16
ATOM     16  C   UNL     1       3.993   3.569  17.665  0.00  0.00    +0.000 C 
BRANCH  16  17
ATOM     17  C   UNL     1       3.003   3.255  18.764  0.00  0.00    +0.000 A 
ATOM     18  C   UNL     1       1.621   3.186  18.529  0.00  0.00    +0.000 A 
ATOM     19  C   UNL     1       0.737   2.871  19.567  0.00  0.00    +0.000 A 
ATOM     20  C   UNL     1       1.222   2.598  20.845  0.00  0.00    +0.000 A 
ATOM     21  C   UNL     1       2.595   2.624  21.083  0.00  0.00    +0.000 A 
ATOM     22  C   UNL     1       3.469   2.941  20.046  0.00  0.00    +0.000 A 
ATOM     23  F   UNL     1       4.786   2.936  20.298  0.00  0.00    +0.000 F 
ENDBRANCH  16  17
ENDBRANCH   3  16
TORSDOF 7
ENDMDL
MODEL 9
REMARK VINA RESULT:      -6.7      2.952      7.182
REMARK  Name = 
REMARK  9 active torsions:
REMARK  status: ('A' for Active; 'I' for Inactive)
REMARK    1  A    between atoms: C_1  and  C_2
REMARK    2  A    between atoms: C_2  and  C_3
REMARK    3  A    between atoms: C_6  and  C_7
REMARK    4  A    between atoms: N_9  and  C_10
REMARK    5  A    between atoms: N_9  and  C_14
REMARK    6  A    between atoms: C_10  and  C_11
REMARK    7  A    between atoms: C_11  and  O_12
REMARK    8  A    between atoms: O_12  and  C_13
REMARK    9  A    between atoms: C_14  and  C_15
REMARK                            x       y       z     vdW  Elec       q    Type
REMARK                         _______ _______ _______ _____ _____    ______ ____
ROOT
ATOM      1  C   UNL     1       4.921   5.907  16.613  0.00  0.00    +0.000 C 
ATOM      2  O   UNL     1       4.565   6.823  15.870  0.00  0.00    +0.000 OA
ATOM      3  N   UNL     1       6.163   5.250  16.460  0.00  0.00    +0.000 N 
ENDROOT
BRANCH   1   7
ATOM      4  C   UNL     1       2.173   4.660  19.569  0.00  0.00    +0.000 A 
ATOM      5  N   UNL     1       2.942   5.722  19.845  0.00  0.00    +0.000 NA
ATOM      6  C   UNL     1       3.817   6.104  18.891  0.00  0.00    +0.000 A 
ATOM      7  C   UNL     1       3.935   5.525  17.652  0.00  0.00    +0.000 A 
ATOM      8  C   UNL     1       3.136   4.405  17.495  0.00  0.00    +0.000 A 
ATOM      9  N   UNL     1       2.240   3.959  18.418  0.00  0.00    +0.000 NA
BRANCH   4  11
ATOM     10  C   UNL     1       1.321   2.898  21.074  0.00  0.00    +0.000 C 
ATOM     11  C   UNL     1       1.117   4.323  20.581  0.00  0.00    +0.000 C 
ENDBRANCH   4  11
ENDBRANCH   1   7
BRANCH   3  12
ATOM     12  C   UNL     1       6.736   4.305  17.437  0.00  0.00    +0.000 C 
BRANCH  12  13
ATOM     13  C   UNL     1       7.836   4.726  18.422  0.00  0.00    +0.000 C 
BRANCH  13  14
ATOM     14  O   UNL     1       7.506   5.875  19.194  0.00  0.00    +0.000 OA
ATOM     15  C   UNL     1       8.089   7.041  18.610  0.00  0.00    +0.000 C 
ENDBRANCH  13  14
ENDBRANCH  12  13
ENDBRANCH   3  12
BRANCH   3  16
ATOM     16  C   UNL     1       6.996   5.679  15.314  0.00  0.00    +0.000 C 
BRANCH  16  17
ATOM     17  C   UNL     1       6.773   4.845  14.072  0.00  0.00    +0.000 A 
ATOM     18  C   UNL     1       5.662   4.000  13.928  0.00  0.00    +0.000 A 
ATOM     19  C   UNL     1       5.476   3.260  12.755  0.00  0.00    +0.000 A 
ATOM     20  C   UNL     1       6.383   3.372  11.702  0.00  0.00    +0.000 A 
ATOM     21  C   UNL     1       7.469   4.238  11.816  0.00  0.00    +0.000 A 
ATOM     22  C   UNL     1       7.650   4.970  12.988  0.00  0.00    +0.000 A 
ATOM     23  F   UNL     1       8.691   5.811  13.060  0.00  0.00    +0.000 F 
ENDBRANCH  16  17
ENDBRANCH   3  16
TORSDOF 7
ENDMDL
