MODEL 1
REMARK VINA RESULT:      -6.7      0.000      0.000
REMARK  Name = 
REMARK  4 active torsions:
REMARK  status: ('A' for Active; 'I' for Inactive)
REMARK    1  A    between atoms: C_2  and  C_3
REMARK    2  A    between atoms: C_9  and  N_10
REMARK    3  A    between atoms: C_11  and  C_12
REMARK    4  A    between atoms: C_14  and  C_15
REMARK                            x       y       z     vdW  Elec       q    Type
REMARK                         _______ _______ _______ _____ _____    ______ ____
ROOT
ATOM      1  N   UNL     1       2.438   6.684  18.311  0.00  0.00    +0.000 NA
ATOM      2  C   UNL     1       2.244   7.206  19.479  0.00  0.00    +0.000 C 
ENDROOT
BRANCH   1   9
ATOM      3  C   UNL     1       4.068   5.069  17.264  0.00  0.00    +0.000 A 
ATOM      4  C   UNL     1       4.417   3.718  17.068  0.00  0.00    +0.000 A 
ATOM      5  C   UNL     1       3.686   2.699  17.678  0.00  0.00    +0.000 A 
ATOM      6  C   UNL     1       2.617   3.026  18.500  0.00  0.00    +0.000 A 
ATOM      7 CL   UNL     1       1.689   1.778  19.234  0.00  0.00    +0.000 Cl
ATOM      8  C   UNL     1       2.278   4.362  18.714  0.00  0.00    +0.000 A 
ATOM      9  C   UNL     1       2.989   5.406  18.101  0.00  0.00    +0.000 A 
BRANCH   3  11
ATOM     10  N   UNL     1       5.426   6.865  15.980  0.00  0.00    +0.000 NA
ATOM     11  C   UNL     1       4.834   6.052  16.565  0.00  0.00    +0.000 C 
ENDBRANCH   3  11
ENDBRANCH   1   9
BRANCH   2  12
ATOM     12  C   UNL     1       1.604   8.545  19.663  0.00  0.00    +0.000 C 
ATOM     13 BR   UNL     1       1.068   8.979  21.398  0.00  0.00    +0.000 Br
ATOM     14  C   UNL     1       1.425   9.317  18.575  0.00  0.00    +0.000 C 
BRANCH  14  15
ATOM     15  C   UNL     1       0.790  10.635  18.576  0.00  0.00    +0.000 A 
ATOM     16  C   UNL     1      -0.596  10.746  18.414  0.00  0.00    +0.000 A 
ATOM     17  C   UNL     1      -1.192  12.007  18.339  0.00  0.00    +0.000 A 
ATOM     18  C   UNL     1      -0.410  13.157  18.442  0.00  0.00    +0.000 A 
ATOM     19  C   UNL     1       0.966  13.051  18.644  0.00  0.00    +0.000 A 
ATOM     20  C   UNL     1       1.565  11.793  18.713  0.00  0.00    +0.000 A 
ENDBRANCH  14  15
ENDBRANCH   2  12
TORSDOF 4
ENDMDL
MODEL 2
REMARK VINA RESULT:      -6.6      0.072      1.084
REMARK  Name = 
REMARK  4 active torsions:
REMARK  status: ('A' for Active; 'I' for Inactive)
REMARK    1  A    between atoms: C_2  and  C_3
REMARK    2  A    between atoms: C_9  and  N_10
REMARK    3  A    between atoms: C_11  and  C_12
REMARK    4  A    between atoms: C_14  and  C_15
REMARK                            x       y       z     vdW  Elec       q    Type
REMARK                         _______ _______ _______ _____ _____    ______ ____
ROOT
ATOM      1  N   UNL     1       2.450   6.670  18.303  0.00  0.00    +0.000 NA
ATOM      2  C   UNL     1       2.244   7.194  19.467  0.00  0.00    +0.000 C 
ENDROOT
BRANCH   1   9
ATOM      3  C   UNL     1       4.080   5.049  17.264  0.00  0.00    +0.000 A 
ATOM      4  C   UNL     1       4.430   3.698  17.077  0.00  0.00    +0.000 A 
ATOM      5  C   UNL     1       3.703   2.682  17.696  0.00  0.00    +0.000 A 
ATOM      6  C   UNL     1       2.635   3.013  18.517  0.00  0.00    +0.000 A 
ATOM      7 CL   UNL     1       1.710   1.769  19.262  0.00  0.00    +0.000 Cl
ATOM      8  C   UNL     1       2.294   4.350  18.722  0.00  0.00    +0.000 A 
ATOM      9  C   UNL     1       3.002   5.391  18.101  0.00  0.00    +0.000 A 
BRANCH   3  11
ATOM     10  N   UNL     1       5.490   6.825  16.008  0.00  0.00    +0.000 NA
ATOM     11  C   UNL     1       4.843   6.028  16.556  0.00  0.00    +0.000 C 
ENDBRANCH   3  11
ENDBRANCH   1   9
BRANCH   2  12
ATOM     12  C   UNL     1       1.603   8.534  19.643  0.00  0.00    +0.000 C 
ATOM     13 BR   UNL     1       1.034   8.964  21.367  0.00  0.00    +0.000 Br
ATOM     14  C   UNL     1       1.447   9.308  18.554  0.00  0.00    +0.000 C 
BRANCH  14  15
ATOM     15  C   UNL     1       0.815  10.629  18.545  0.00  0.00    +0.000 A 
ATOM     16  C   UNL     1       1.595  11.780  18.695  0.00  0.00    +0.000 A 
ATOM     17  C   UNL     1       0.985  13.035  18.762  0.00  0.00    +0.000 A 
ATOM     18  C   UNL     1      -0.402  13.143  18.665  0.00  0.00    +0.000 A 
ATOM     19  C   UNL     1      -1.181  12.001  18.475  0.00  0.00    +0.000 A 
ATOM     20  C   UNL     1      -0.574  10.746  18.414  0.00  0.00    +0.000 A 
ENDBRANCH  14  15
ENDBRANCH   2  12
TORSDOF 4
ENDMDL
MODEL 3
REMARK VINA RESULT:      -6.6      2.204      3.100
REMARK  Name = 
REMARK  4 active torsions:
REMARK  status: ('A' for Active; 'I' for Inactive)
REMARK    1  A    between atoms: C_2  and  C_3
REMARK    2  A    between atoms: C_9  and  N_10
REMARK    3  A    between atoms: C_11  and  C_12
REMARK    4  A    between atoms: C_14  and  C_15
REMARK                            x       y       z     vdW  Elec       q    Type
REMARK                         _______ _______ _______ _____ _____    ______ ____
ROOT
ATOM      1  N   UNL     1       2.531   6.732  18.337  0.00  0.00    +0.000 NA
ATOM      2  C   UNL     1       2.544   8.020  18.225  0.00  0.00    +0.000 C 
ENDROOT
BRANCH   1   9
ATOM      3  C   UNL     1       3.402   4.504  17.537  0.00  0.00    +0.000 A 
ATOM      4  C   UNL     1       4.524   3.773  17.100  0.00  0.00    +0.000 A 
ATOM      5  C   UNL     1       5.760   4.397  16.935  0.00  0.00    +0.000 A 
ATOM      6  C   UNL     1       5.875   5.756  17.188  0.00  0.00    +0.000 A 
ATOM      7 CL   UNL     1       7.400   6.533  17.018  0.00  0.00    +0.000 Cl
ATOM      8  C   UNL     1       4.764   6.491  17.603  0.00  0.00    +0.000 A 
ATOM      9  C   UNL     1       3.511   5.884  17.789  0.00  0.00    +0.000 A 
BRANCH   3  11
ATOM     10  N   UNL     1       1.211   3.168  17.905  0.00  0.00    +0.000 NA
ATOM     11  C   UNL     1       2.184   3.782  17.729  0.00  0.00    +0.000 C 
ENDBRANCH   3  11
ENDBRANCH   1   9
BRANCH   2  12
ATOM     12  C   UNL     1       1.514   8.892  18.871  0.00  0.00    +0.000 C 
ATOM     13 BR   UNL     1       1.172   8.577  20.678  0.00  0.00    +0.000 Br
ATOM     14  C   UNL     1       0.887   9.804  18.106  0.00  0.00    +0.000 C 
BRANCH  14  15
ATOM     15  C   UNL     1      -0.163  10.711  18.571  0.00  0.00    +0.000 A 
ATOM     16  C   UNL     1       0.165  11.810  19.373  0.00  0.00    +0.000 A 
ATOM     17  C   UNL     1      -0.844  12.633  19.878  0.00  0.00    +0.000 A 
ATOM     18  C   UNL     1      -2.179  12.370  19.572  0.00  0.00    +0.000 A 
ATOM     19  C   UNL     1      -2.507  11.300  18.740  0.00  0.00    +0.000 A 
ATOM     20  C   UNL     1      -1.502  10.473  18.238  0.00  0.00    +0.000 A 
ENDBRANCH  14  15
ENDBRANCH   2  12
TORSDOF 4
ENDMDL
MODEL 4
REMARK VINA RESULT:      -6.5      2.221      2.943
REMARK  Name = 
REMARK  4 active torsions:
REMARK  status: ('A' for Active; 'I' for Inactive)
REMARK    1  A    between atoms: C_2  and  C_3
REMARK    2  A    between atoms: C_9  and  N_10
REMARK    3  A    between atoms: C_11  and  C_12
REMARK    4  A    between atoms: C_14  and  C_15
REMARK                            x       y       z     vdW  Elec       q    Type
REMARK                         _______ _______ _______ _____ _____    ______ ____
ROOT
ATOM      1  N   UNL     1       2.535   6.709  18.342  0.00  0.00    +0.000 NA
ATOM      2  C   UNL     1       2.528   7.999  18.243  0.00  0.00    +0.000 C 
ENDROOT
BRANCH   1   9
ATOM      3  C   UNL     1       3.454   4.503  17.537  0.00  0.00    +0.000 A 
ATOM      4  C   UNL     1       4.592   3.795  17.103  0.00  0.00    +0.000 A 
ATOM      5  C   UNL     1       5.816   4.444  16.948  0.00  0.00    +0.000 A 
ATOM      6  C   UNL     1       5.903   5.805  17.207  0.00  0.00    +0.000 A 
ATOM      7 CL   UNL     1       7.414   6.611  17.049  0.00  0.00    +0.000 Cl
ATOM      8  C   UNL     1       4.776   6.515  17.619  0.00  0.00    +0.000 A 
ATOM      9  C   UNL     1       3.534   5.883  17.795  0.00  0.00    +0.000 A 
BRANCH   3  11
ATOM     10  N   UNL     1       1.265   3.144  17.831  0.00  0.00    +0.000 NA
ATOM     11  C   UNL     1       2.248   3.756  17.720  0.00  0.00    +0.000 C 
ENDBRANCH   3  11
ENDBRANCH   1   9
BRANCH   2  12
ATOM     12  C   UNL     1       1.477   8.848  18.886  0.00  0.00    +0.000 C 
ATOM     13 BR   UNL     1       1.178   8.564  20.707  0.00  0.00    +0.000 Br
ATOM     14  C   UNL     1       0.802   9.716  18.111  0.00  0.00    +0.000 C 
BRANCH  14  15
ATOM     15  C   UNL     1      -0.273  10.595  18.574  0.00  0.00    +0.000 A 
ATOM     16  C   UNL     1      -1.595  10.346  18.190  0.00  0.00    +0.000 A 
ATOM     17  C   UNL     1      -2.610  11.227  18.569  0.00  0.00    +0.000 A 
ATOM     18  C   UNL     1      -2.311  12.347  19.344  0.00  0.00    +0.000 A 
ATOM     19  C   UNL     1      -1.000  12.576  19.763  0.00  0.00    +0.000 A 
ATOM     20  C   UNL     1       0.017  11.701  19.380  0.00  0.00    +0.000 A 
ENDBRANCH  14  15
ENDBRANCH   2  12
TORSDOF 4
ENDMDL
MODEL 5
REMARK VINA RESULT:      -6.5      2.692      3.358
REMARK  Name = 
REMARK  4 active torsions:
REMARK  status: ('A' for Active; 'I' for Inactive)
REMARK    1  A    between atoms: C_2  and  C_3
REMARK    2  A    between atoms: C_9  and  N_10
REMARK    3  A    between atoms: C_11  and  C_12
REMARK    4  A    between atoms: C_14  and  C_15
REMARK                            x       y       z     vdW  Elec       q    Type
REMARK                         _______ _______ _______ _____ _____    ______ ____
ROOT
ATOM      1  N   UNL     1       4.070   5.859  17.843  0.00  0.00    +0.000 NA
ATOM      2  C   UNL     1       3.670   7.062  17.585  0.00  0.00    +0.000 C 
ENDROOT
BRANCH   1   9
ATOM      3  C   UNL     1       6.428   4.994  17.617  0.00  0.00    +0.000 A 
ATOM      4  C   UNL     1       7.397   4.441  16.757  0.00  0.00    +0.000 A 
ATOM      5  C   UNL     1       7.078   4.127  15.437  0.00  0.00    +0.000 A 
ATOM      6  C   UNL     1       5.787   4.347  14.977  0.00  0.00    +0.000 A 
ATOM      7 CL   UNL     1       5.389   3.991  13.342  0.00  0.00    +0.000 Cl
ATOM      8  C   UNL     1       4.819   4.876  15.829  0.00  0.00    +0.000 A 
ATOM      9  C   UNL     1       5.117   5.213  17.159  0.00  0.00    +0.000 A 
BRANCH   3  11
ATOM     10  N   UNL     1       7.216   5.590  20.015  0.00  0.00    +0.000 NA
ATOM     11  C   UNL     1       6.846   5.336  18.941  0.00  0.00    +0.000 C 
ENDBRANCH   3  11
ENDBRANCH   1   9
BRANCH   2  12
ATOM     12  C   UNL     1       2.591   7.735  18.372  0.00  0.00    +0.000 C 
ATOM     13 BR   UNL     1       2.139   6.951  20.004  0.00  0.00    +0.000 Br
ATOM     14  C   UNL     1       2.002   8.821  17.839  0.00  0.00    +0.000 C 
BRANCH  14  15
ATOM     15  C   UNL     1       0.913   9.577  18.460  0.00  0.00    +0.000 A 
ATOM     16  C   UNL     1       1.082  10.128  19.735  0.00  0.00    +0.000 A 
ATOM     17  C   UNL     1       0.019  10.785  20.359  0.00  0.00    +0.000 A 
ATOM     18  C   UNL     1      -1.208  10.905  19.707  0.00  0.00    +0.000 A 
ATOM     19  C   UNL     1      -1.368  10.392  18.420  0.00  0.00    +0.000 A 
ATOM     20  C   UNL     1      -0.309   9.730  17.796  0.00  0.00    +0.000 A 
ENDBRANCH  14  15
ENDBRANCH   2  12
TORSDOF 4
ENDMDL
MODEL 6
REMARK VINA RESULT:      -6.5      1.377      1.833
REMARK  Name = 
REMARK  4 active torsions:
REMARK  status: ('A' for Active; 'I' for Inactive)
REMARK    1  A    between atoms: C_2  and  C_3
REMARK    2  A    between atoms: C_9  and  N_10
REMARK    3  A    between atoms: C_11  and  C_12
REMARK    4  A    between atoms: C_14  and  C_15
REMARK                            x       y       z     vdW  Elec       q    Type
REMARK                         _______ _______ _______ _____ _____    ______ ____
ROOT
ATOM      1  N   UNL     1       2.286   6.982  19.633  0.00  0.00    +0.000 NA
ATOM      2  C   UNL     1       1.701   7.616  20.597  0.00  0.00    +0.000 C 
ENDROOT
BRANCH   1   9
ATOM      3  C   UNL     1       3.900   5.140  19.030  0.00  0.00    +0.000 A 
ATOM      4  C   UNL     1       4.239   3.782  19.184  0.00  0.00    +0.000 A 
ATOM      5  C   UNL     1       3.504   2.958  20.035  0.00  0.00    +0.000 A 
ATOM      6  C   UNL     1       2.440   3.492  20.748  0.00  0.00    +0.000 A 
ATOM      7 CL   UNL     1       1.506   2.479  21.779  0.00  0.00    +0.000 Cl
ATOM      8  C   UNL     1       2.111   4.840  20.615  0.00  0.00    +0.000 A 
ATOM      9  C   UNL     1       2.827   5.688  19.755  0.00  0.00    +0.000 A 
BRANCH   3  11
ATOM     10  N   UNL     1       5.325   6.505  17.348  0.00  0.00    +0.000 NA
ATOM     11  C   UNL     1       4.670   5.907  18.101  0.00  0.00    +0.000 C 
ENDBRANCH   3  11
ENDBRANCH   1   9
BRANCH   2  12
ATOM     12  C   UNL     1       1.088   8.968  20.413  0.00  0.00    +0.000 C 
ATOM     13 BR   UNL     1       0.269   9.721  21.912  0.00  0.00    +0.000 Br
ATOM     14  C   UNL     1       1.134   9.523  19.188  0.00  0.00    +0.000 C 
BRANCH  14  15
ATOM     15  C   UNL     1       0.559  10.821  18.832  0.00  0.00    +0.000 A 
ATOM     16  C   UNL     1       1.350  11.974  18.874  0.00  0.00    +0.000 A 
ATOM     17  C   UNL     1       0.782  13.221  18.607  0.00  0.00    +0.000 A 
ATOM     18  C   UNL     1      -0.570  13.319  18.282  0.00  0.00    +0.000 A 
ATOM     19  C   UNL     1      -1.353  12.167  18.199  0.00  0.00    +0.000 A 
ATOM     20  C   UNL     1      -0.790  10.920  18.471  0.00  0.00    +0.000 A 
ENDBRANCH  14  15
ENDBRANCH   2  12
TORSDOF 4
ENDMDL
MODEL 7
REMARK VINA RESULT:      -6.5      1.339      1.417
REMARK  Name = 
REMARK  4 active torsions:
REMARK  status: ('A' for Active; 'I' for Inactive)
REMARK    1  A    between atoms: C_2  and  C_3
REMARK    2  A    between atoms: C_9  and  N_10
REMARK    3  A    between atoms: C_11  and  C_12
REMARK    4  A    between atoms: C_14  and  C_15
REMARK                            x       y       z     vdW  Elec       q    Type
REMARK                         _______ _______ _______ _____ _____    ______ ____
ROOT
ATOM      1  N   UNL     1       2.350   7.039  19.615  0.00  0.00    +0.000 NA
ATOM      2  C   UNL     1       1.688   7.601  20.574  0.00  0.00    +0.000 C 
ENDROOT
BRANCH   1   9
ATOM      3  C   UNL     1       3.935   5.210  18.906  0.00  0.00    +0.000 A 
ATOM      4  C   UNL     1       4.278   3.848  19.016  0.00  0.00    +0.000 A 
ATOM      5  C   UNL     1       3.577   3.006  19.878  0.00  0.00    +0.000 A 
ATOM      6  C   UNL     1       2.544   3.525  20.646  0.00  0.00    +0.000 A 
ATOM      7 CL   UNL     1       1.651   2.490  21.690  0.00  0.00    +0.000 Cl
ATOM      8  C   UNL     1       2.211   4.876  20.556  0.00  0.00    +0.000 A 
ATOM      9  C   UNL     1       2.893   5.743  19.686  0.00  0.00    +0.000 A 
BRANCH   3  11
ATOM     10  N   UNL     1       5.282   6.654  17.227  0.00  0.00    +0.000 NA
ATOM     11  C   UNL     1       4.669   5.996  17.964  0.00  0.00    +0.000 C 
ENDBRANCH   3  11
ENDBRANCH   1   9
BRANCH   2  12
ATOM     12  C   UNL     1       1.077   8.959  20.440  0.00  0.00    +0.000 C 
ATOM     13 BR   UNL     1       0.294   9.674  21.976  0.00  0.00    +0.000 Br
ATOM     14  C   UNL     1       1.099   9.546  19.230  0.00  0.00    +0.000 C 
BRANCH  14  15
ATOM     15  C   UNL     1       0.521  10.855  18.921  0.00  0.00    +0.000 A 
ATOM     16  C   UNL     1      -0.817  10.955  18.525  0.00  0.00    +0.000 A 
ATOM     17  C   UNL     1      -1.347  12.193  18.157  0.00  0.00    +0.000 A 
ATOM     18  C   UNL     1      -0.549  13.336  18.200  0.00  0.00    +0.000 A 
ATOM     19  C   UNL     1       0.774  13.248  18.634  0.00  0.00    +0.000 A 
ATOM     20  C   UNL     1       1.308  12.010  18.995  0.00  0.00    +0.000 A 
ENDBRANCH  14  15
ENDBRANCH   2  12
TORSDOF 4
ENDMDL
MODEL 8
REMARK VINA RESULT:      -6.5      3.543      7.787
REMARK  Name = 
REMARK  4 active torsions:
REMARK  status: ('A' for Active; 'I' for Inactive)
REMARK    1  A    between atoms: C_2  and  C_3
REMARK    2  A    between atoms: C_9  and  N_10
REMARK    3  A    between atoms: C_11  and  C_12
REMARK    4  A    between atoms: C_14  and  C_15
REMARK                            x       y       z     vdW  Elec       q    Type
REMARK                         _______ _______ _______ _____ _____    ______ ____
ROOT
ATOM      1  N   UNL     1       1.536   8.481  19.233  0.00  0.00    +0.000 NA
ATOM      2  C   UNL     1       2.219   8.344  18.143  0.00  0.00    +0.000 C 
ENDROOT
BRANCH   1   9
ATOM      3  C   UNL     1       0.362  10.144  20.721  0.00  0.00    +0.000 A 
ATOM      4  C   UNL     1      -0.644  11.125  20.817  0.00  0.00    +0.000 A 
ATOM      5  C   UNL     1      -1.379  11.502  19.694  0.00  0.00    +0.000 A 
ATOM      6  C   UNL     1      -1.100  10.914  18.469  0.00  0.00    +0.000 A 
ATOM      7 CL   UNL     1      -2.019  11.347  17.081  0.00  0.00    +0.000 Cl
ATOM      8  C   UNL     1      -0.093   9.955  18.363  0.00  0.00    +0.000 A 
ATOM      9  C   UNL     1       0.654   9.549  19.481  0.00  0.00    +0.000 A 
BRANCH   3  11
ATOM     10  N   UNL     1       1.612   9.460  22.887  0.00  0.00    +0.000 NA
ATOM     11  C   UNL     1       1.036   9.777  21.927  0.00  0.00    +0.000 C 
ENDBRANCH   3  11
ENDBRANCH   1   9
BRANCH   2  12
ATOM     12  C   UNL     1       3.104   7.164  17.893  0.00  0.00    +0.000 C 
ATOM     13 BR   UNL     1       2.514   5.525  18.563  0.00  0.00    +0.000 Br
ATOM     14  C   UNL     1       4.266   7.370  17.247  0.00  0.00    +0.000 C 
BRANCH  14  15
ATOM     15  C   UNL     1       5.257   6.334  16.950  0.00  0.00    +0.000 A 
ATOM     16  C   UNL     1       6.189   5.956  17.922  0.00  0.00    +0.000 A 
ATOM     17  C   UNL     1       7.181   5.023  17.615  0.00  0.00    +0.000 A 
ATOM     18  C   UNL     1       7.235   4.454  16.343  0.00  0.00    +0.000 A 
ATOM     19  C   UNL     1       6.283   4.797  15.383  0.00  0.00    +0.000 A 
ATOM     20  C   UNL     1       5.294   5.734  15.686  0.00  0.00    +0.000 A 
ENDBRANCH  14  15
ENDBRANCH   2  12
TORSDOF 4
ENDMDL
MODEL 9
REMARK VINA RESULT:      -6.5      3.515      7.735
REMARK  Name = 
REMARK  4 active torsions:
REMARK  status: ('A' for Active; 'I' for Inactive)
REMARK    1  A    between atoms: C_2  and  C_3
REMARK    2  A    between atoms: C_9  and  N_10
REMARK    3  A    between atoms: C_11  and  C_12
REMARK    4  A    between atoms: C_14  and  C_15
REMARK                            x       y       z     vdW  Elec       q    Type
REMARK                         _______ _______ _______ _____ _____    ______ ____
ROOT
ATOM      1  N   UNL     1       1.687   8.554  19.372  0.00  0.00    +0.000 NA
ATOM      2  C   UNL     1       2.095   8.227  18.189  0.00  0.00    +0.000 C 
ENDROOT
BRANCH   1   9
ATOM      3  C   UNL     1       0.365  10.083  20.880  0.00  0.00    +0.000 A 
ATOM      4  C   UNL     1      -0.688  11.013  20.974  0.00  0.00    +0.000 A 
ATOM      5  C   UNL     1      -1.384  11.417  19.834  0.00  0.00    +0.000 A 
ATOM      6  C   UNL     1      -1.017  10.907  18.597  0.00  0.00    +0.000 A 
ATOM      7 CL   UNL     1      -1.886  11.373  17.188  0.00  0.00    +0.000 Cl
ATOM      8  C   UNL     1       0.037  10.000  18.495  0.00  0.00    +0.000 A 
ATOM      9  C   UNL     1       0.745   9.568  19.628  0.00  0.00    +0.000 A 
BRANCH   3  11
ATOM     10  N   UNL     1       1.495   9.388  23.108  0.00  0.00    +0.000 NA
ATOM     11  C   UNL     1       0.995   9.683  22.099  0.00  0.00    +0.000 C 
ENDBRANCH   3  11
ENDBRANCH   1   9
BRANCH   2  12
ATOM     12  C   UNL     1       3.056   7.105  17.953  0.00  0.00    +0.000 C 
ATOM     13 BR   UNL     1       2.596   5.449  18.682  0.00  0.00    +0.000 Br
ATOM     14  C   UNL     1       4.187   7.372  17.276  0.00  0.00    +0.000 C 
BRANCH  14  15
ATOM     15  C   UNL     1       5.242   6.399  16.986  0.00  0.00    +0.000 A 
ATOM     16  C   UNL     1       5.255   5.723  15.762  0.00  0.00    +0.000 A 
ATOM     17  C   UNL     1       6.217   4.741  15.515  0.00  0.00    +0.000 A 
ATOM     18  C   UNL     1       7.176   4.444  16.483  0.00  0.00    +0.000 A 
ATOM     19  C   UNL     1       7.192   5.145  17.689  0.00  0.00    +0.000 A 
ATOM     20  C   UNL     1       6.228   6.122  17.940  0.00  0.00    +0.000 A 
ENDBRANCH  14  15
ENDBRANCH   2  12
TORSDOF 4
ENDMDL
