MODEL 1
REMARK VINA RESULT:      -6.9      0.000      0.000
REMARK  Name = 
REMARK  4 active torsions:
REMARK  status: ('A' for Active; 'I' for Inactive)
REMARK    1  A    between atoms: C_1  and  C_2
REMARK    2  A    between atoms: C_5  and  C_6
REMARK    3  A    between atoms: C_6  and  O_8
REMARK    4  A    between atoms: C_10  and  N_11
REMARK                            x       y       z     vdW  Elec       q    Type
REMARK                         _______ _______ _______ _____ _____    ______ ____
ROOT
ATOM      1  C   UNL     1       2.940   6.324  18.824  0.00  0.00    +0.000 C 
ATOM      2  C   UNL     1       3.858   5.804  17.752  0.00  0.00    +0.000 A 
ATOM      3  C   UNL     1       4.622   6.751  17.046  0.00  0.00    +0.000 A 
ATOM      4  C   UNL     1       5.526   6.356  16.063  0.00  0.00    +0.000 A 
ATOM      5  C   UNL     1       5.696   5.002  15.776  0.00  0.00    +0.000 A 
ATOM      6  C   UNL     1       4.943   4.047  16.474  0.00  0.00    +0.000 A 
ATOM      7  C   UNL     1       4.007   4.432  17.453  0.00  0.00    +0.000 A 
ENDROOT
BRANCH   7   8
ATOM      8  N   UNL     1       3.247   3.445  18.098  0.00  0.00    +0.000 N 
ATOM      9  C   UNL     1       3.545   2.660  19.293  0.00  0.00    +0.000 C 
ATOM     10  C   UNL     1       2.085   2.180  19.253  0.00  0.00    +0.000 C 
ATOM     11  C   UNL     1       1.906   3.217  18.133  0.00  0.00    +0.000 C 
ATOM     12  O   UNL     1       0.973   3.659  17.503  0.00  0.00    +0.000 OA
ENDBRANCH   7   8
BRANCH   5  13
ATOM     13  C   UNL     1       6.630   4.645  14.674  0.00  0.00    +0.000 C 
ATOM     14  O   UNL     1       7.592   5.340  14.386  0.00  0.00    +0.000 OA
BRANCH  13  15
ATOM     15  O   UNL     1       6.354   3.483  14.055  0.00  0.00    +0.000 OA
ATOM     16  H   UNL     1       7.045   3.143  13.455  0.00  0.00    +0.000 HD
ENDBRANCH  13  15
ENDBRANCH   5  13
TORSDOF 3
ENDMDL
MODEL 2
REMARK VINA RESULT:      -6.9      1.241      1.662
REMARK  Name = 
REMARK  4 active torsions:
REMARK  status: ('A' for Active; 'I' for Inactive)
REMARK    1  A    between atoms: C_1  and  C_2
REMARK    2  A    between atoms: C_5  and  C_6
REMARK    3  A    between atoms: C_6  and  O_8
REMARK    4  A    between atoms: C_10  and  N_11
REMARK                            x       y       z     vdW  Elec       q    Type
REMARK                         _______ _______ _______ _____ _____    ______ ____
ROOT
ATOM      1  C   UNL     1       3.031   6.333  18.848  0.00  0.00    +0.000 C 
ATOM      2  C   UNL     1       3.904   5.814  17.738  0.00  0.00    +0.000 A 
ATOM      3  C   UNL     1       4.578   6.767  16.953  0.00  0.00    +0.000 A 
ATOM      4  C   UNL     1       5.437   6.376  15.930  0.00  0.00    +0.000 A 
ATOM      5  C   UNL     1       5.651   5.022  15.679  0.00  0.00    +0.000 A 
ATOM      6  C   UNL     1       4.988   4.061  16.455  0.00  0.00    +0.000 A 
ATOM      7  C   UNL     1       4.098   4.441  17.477  0.00  0.00    +0.000 A 
ENDROOT
BRANCH   7   8
ATOM      8  N   UNL     1       3.425   3.445  18.202  0.00  0.00    +0.000 N 
ATOM      9  C   UNL     1       2.277   2.624  17.828  0.00  0.00    +0.000 C 
ATOM     10  C   UNL     1       2.552   1.792  19.092  0.00  0.00    +0.000 C 
ATOM     11  C   UNL     1       3.836   2.629  19.210  0.00  0.00    +0.000 C 
ATOM     12  O   UNL     1       4.820   2.610  19.914  0.00  0.00    +0.000 OA
ENDBRANCH   7   8
BRANCH   5  13
ATOM     13  C   UNL     1       6.532   4.666  14.533  0.00  0.00    +0.000 C 
ATOM     14  O   UNL     1       6.256   3.763  13.757  0.00  0.00    +0.000 OA
BRANCH  13  15
ATOM     15  O   UNL     1       7.625   5.438  14.400  0.00  0.00    +0.000 OA
ATOM     16  H   UNL     1       7.462   6.392  14.269  0.00  0.00    +0.000 HD
ENDBRANCH  13  15
ENDBRANCH   5  13
TORSDOF 3
ENDMDL
MODEL 3
REMARK VINA RESULT:      -6.8      2.860      3.330
REMARK  Name = 
REMARK  4 active torsions:
REMARK  status: ('A' for Active; 'I' for Inactive)
REMARK    1  A    between atoms: C_1  and  C_2
REMARK    2  A    between atoms: C_5  and  C_6
REMARK    3  A    between atoms: C_6  and  O_8
REMARK    4  A    between atoms: C_10  and  N_11
REMARK                            x       y       z     vdW  Elec       q    Type
REMARK                         _______ _______ _______ _____ _____    ______ ____
ROOT
ATOM      1  C   UNL     1       2.555   3.569  17.089  0.00  0.00    +0.000 C 
ATOM      2  C   UNL     1       3.802   4.144  17.704  0.00  0.00    +0.000 A 
ATOM      3  C   UNL     1       4.806   4.587  16.824  0.00  0.00    +0.000 A 
ATOM      4  C   UNL     1       5.977   5.168  17.304  0.00  0.00    +0.000 A 
ATOM      5  C   UNL     1       6.161   5.332  18.676  0.00  0.00    +0.000 A 
ATOM      6  C   UNL     1       5.167   4.898  19.565  0.00  0.00    +0.000 A 
ATOM      7  C   UNL     1       3.989   4.287  19.096  0.00  0.00    +0.000 A 
ENDROOT
BRANCH   7   8
ATOM      8  N   UNL     1       3.039   3.832  20.023  0.00  0.00    +0.000 N 
ATOM      9  C   UNL     1       3.042   2.636  20.861  0.00  0.00    +0.000 C 
ATOM     10  C   UNL     1       1.827   3.232  21.591  0.00  0.00    +0.000 C 
ATOM     11  C   UNL     1       2.106   4.495  20.759  0.00  0.00    +0.000 C 
ATOM     12  O   UNL     1       1.677   5.625  20.730  0.00  0.00    +0.000 OA
ENDBRANCH   7   8
BRANCH   5  13
ATOM     13  C   UNL     1       7.458   5.903  19.133  0.00  0.00    +0.000 C 
ATOM     14  O   UNL     1       8.047   6.766  18.501  0.00  0.00    +0.000 OA
BRANCH  13  15
ATOM     15  O   UNL     1       7.904   5.422  20.307  0.00  0.00    +0.000 OA
ATOM     16  H   UNL     1       8.786   5.731  20.590  0.00  0.00    +0.000 HD
ENDBRANCH  13  15
ENDBRANCH   5  13
TORSDOF 3
ENDMDL
MODEL 4
REMARK VINA RESULT:      -6.8      1.334      1.449
REMARK  Name = 
REMARK  4 active torsions:
REMARK  status: ('A' for Active; 'I' for Inactive)
REMARK    1  A    between atoms: C_1  and  C_2
REMARK    2  A    between atoms: C_5  and  C_6
REMARK    3  A    between atoms: C_6  and  O_8
REMARK    4  A    between atoms: C_10  and  N_11
REMARK                            x       y       z     vdW  Elec       q    Type
REMARK                         _______ _______ _______ _____ _____    ______ ____
ROOT
ATOM      1  C   UNL     1       2.363   7.134  18.411  0.00  0.00    +0.000 C 
ATOM      2  C   UNL     1       3.580   6.406  17.909  0.00  0.00    +0.000 A 
ATOM      3  C   UNL     1       4.561   7.173  17.255  0.00  0.00    +0.000 A 
ATOM      4  C   UNL     1       5.737   6.589  16.792  0.00  0.00    +0.000 A 
ATOM      5  C   UNL     1       5.964   5.228  16.987  0.00  0.00    +0.000 A 
ATOM      6  C   UNL     1       4.995   4.452  17.639  0.00  0.00    +0.000 A 
ATOM      7  C   UNL     1       3.790   5.022  18.092  0.00  0.00    +0.000 A 
ENDROOT
BRANCH   7   8
ATOM      8  N   UNL     1       2.832   4.200  18.704  0.00  0.00    +0.000 N 
ATOM      9  C   UNL     1       2.646   3.862  20.113  0.00  0.00    +0.000 C 
ATOM     10  C   UNL     1       1.306   3.226  19.708  0.00  0.00    +0.000 C 
ATOM     11  C   UNL     1       1.576   3.840  18.325  0.00  0.00    +0.000 C 
ATOM     12  O   UNL     1       0.957   3.955  17.292  0.00  0.00    +0.000 OA
ENDBRANCH   7   8
BRANCH   5  13
ATOM     13  C   UNL     1       7.210   4.649  16.416  0.00  0.00    +0.000 C 
ATOM     14  O   UNL     1       7.454   4.680  15.219  0.00  0.00    +0.000 OA
BRANCH  13  15
ATOM     15  O   UNL     1       8.057   4.128  17.322  0.00  0.00    +0.000 OA
ATOM     16  H   UNL     1       8.867   3.715  16.964  0.00  0.00    +0.000 HD
ENDBRANCH  13  15
ENDBRANCH   5  13
TORSDOF 3
ENDMDL
MODEL 5
REMARK VINA RESULT:      -6.7      1.804      5.034
REMARK  Name = 
REMARK  4 active torsions:
REMARK  status: ('A' for Active; 'I' for Inactive)
REMARK    1  A    between atoms: C_1  and  C_2
REMARK    2  A    between atoms: C_5  and  C_6
REMARK    3  A    between atoms: C_6  and  O_8
REMARK    4  A    between atoms: C_10  and  N_11
REMARK                            x       y       z     vdW  Elec       q    Type
REMARK                         _______ _______ _______ _____ _____    ______ ____
ROOT
ATOM      1  C   UNL     1       4.496   7.131  17.228  0.00  0.00    +0.000 C 
ATOM      2  C   UNL     1       3.789   5.835  17.515  0.00  0.00    +0.000 A 
ATOM      3  C   UNL     1       2.648   5.894  18.336  0.00  0.00    +0.000 A 
ATOM      4  C   UNL     1       1.910   4.749  18.623  0.00  0.00    +0.000 A 
ATOM      5  C   UNL     1       2.290   3.521  18.082  0.00  0.00    +0.000 A 
ATOM      6  C   UNL     1       3.424   3.448  17.261  0.00  0.00    +0.000 A 
ATOM      7  C   UNL     1       4.194   4.592  16.982  0.00  0.00    +0.000 A 
ENDROOT
BRANCH   7   8
ATOM      8  N   UNL     1       5.344   4.465  16.187  0.00  0.00    +0.000 N 
ATOM      9  C   UNL     1       5.536   4.729  14.764  0.00  0.00    +0.000 C 
ATOM     10  C   UNL     1       7.045   4.560  15.011  0.00  0.00    +0.000 C 
ATOM     11  C   UNL     1       6.667   4.509  16.500  0.00  0.00    +0.000 C 
ATOM     12  O   UNL     1       7.273   4.492  17.547  0.00  0.00    +0.000 OA
ENDBRANCH   7   8
BRANCH   5  13
ATOM     13  C   UNL     1       1.499   2.323  18.474  0.00  0.00    +0.000 C 
ATOM     14  O   UNL     1       0.278   2.331  18.507  0.00  0.00    +0.000 OA
BRANCH  13  15
ATOM     15  O   UNL     1       2.231   1.228  18.748  0.00  0.00    +0.000 OA
ATOM     16  H   UNL     1       3.199   1.354  18.770  0.00  0.00    +0.000 HD
ENDBRANCH  13  15
ENDBRANCH   5  13
TORSDOF 3
ENDMDL
MODEL 6
REMARK VINA RESULT:      -6.7      2.841      5.712
REMARK  Name = 
REMARK  4 active torsions:
REMARK  status: ('A' for Active; 'I' for Inactive)
REMARK    1  A    between atoms: C_1  and  C_2
REMARK    2  A    between atoms: C_5  and  C_6
REMARK    3  A    between atoms: C_6  and  O_8
REMARK    4  A    between atoms: C_10  and  N_11
REMARK                            x       y       z     vdW  Elec       q    Type
REMARK                         _______ _______ _______ _____ _____    ______ ____
ROOT
ATOM      1  C   UNL     1       5.377   3.976  15.869  0.00  0.00    +0.000 C 
ATOM      2  C   UNL     1       4.506   4.332  17.042  0.00  0.00    +0.000 A 
ATOM      3  C   UNL     1       3.227   3.748  17.094  0.00  0.00    +0.000 A 
ATOM      4  C   UNL     1       2.369   3.991  18.163  0.00  0.00    +0.000 A 
ATOM      5  C   UNL     1       2.778   4.813  19.212  0.00  0.00    +0.000 A 
ATOM      6  C   UNL     1       4.051   5.400  19.175  0.00  0.00    +0.000 A 
ATOM      7  C   UNL     1       4.920   5.184  18.089  0.00  0.00    +0.000 A 
ENDROOT
BRANCH   7   8
ATOM      8  N   UNL     1       6.169   5.824  18.076  0.00  0.00    +0.000 N 
ATOM      9  C   UNL     1       6.608   7.012  17.349  0.00  0.00    +0.000 C 
ATOM     10  C   UNL     1       7.885   6.974  18.204  0.00  0.00    +0.000 C 
ATOM     11  C   UNL     1       7.174   5.863  18.992  0.00  0.00    +0.000 C 
ATOM     12  O   UNL     1       7.397   5.240  20.005  0.00  0.00    +0.000 OA
ENDBRANCH   7   8
BRANCH   5  13
ATOM     13  C   UNL     1       1.795   5.085  20.296  0.00  0.00    +0.000 C 
ATOM     14  O   UNL     1       0.854   4.340  20.523  0.00  0.00    +0.000 OA
BRANCH  13  15
ATOM     15  O   UNL     1       2.048   6.188  21.024  0.00  0.00    +0.000 OA
ATOM     16  H   UNL     1       1.671   7.022  20.684  0.00  0.00    +0.000 HD
ENDBRANCH  13  15
ENDBRANCH   5  13
TORSDOF 3
ENDMDL
MODEL 7
REMARK VINA RESULT:      -6.6      2.380      5.442
REMARK  Name = 
REMARK  4 active torsions:
REMARK  status: ('A' for Active; 'I' for Inactive)
REMARK    1  A    between atoms: C_1  and  C_2
REMARK    2  A    between atoms: C_5  and  C_6
REMARK    3  A    between atoms: C_6  and  O_8
REMARK    4  A    between atoms: C_10  and  N_11
REMARK                            x       y       z     vdW  Elec       q    Type
REMARK                         _______ _______ _______ _____ _____    ______ ____
ROOT
ATOM      1  C   UNL     1       3.909   7.205  17.598  0.00  0.00    +0.000 C 
ATOM      2  C   UNL     1       3.501   6.085  18.515  0.00  0.00    +0.000 A 
ATOM      3  C   UNL     1       2.499   6.364  19.462  0.00  0.00    +0.000 A 
ATOM      4  C   UNL     1       2.032   5.376  20.326  0.00  0.00    +0.000 A 
ATOM      5  C   UNL     1       2.548   4.083  20.249  0.00  0.00    +0.000 A 
ATOM      6  C   UNL     1       3.546   3.791  19.308  0.00  0.00    +0.000 A 
ATOM      7  C   UNL     1       4.045   4.784  18.445  0.00  0.00    +0.000 A 
ENDROOT
BRANCH   7   8
ATOM      8  N   UNL     1       5.071   4.456  17.547  0.00  0.00    +0.000 N 
ATOM      9  C   UNL     1       5.053   4.373  16.089  0.00  0.00    +0.000 C 
ATOM     10  C   UNL     1       6.584   4.245  16.149  0.00  0.00    +0.000 C 
ATOM     11  C   UNL     1       6.425   4.553  17.647  0.00  0.00    +0.000 C 
ATOM     12  O   UNL     1       7.174   4.775  18.570  0.00  0.00    +0.000 OA
ENDBRANCH   7   8
BRANCH   5  13
ATOM     13  C   UNL     1       2.055   3.087  21.239  0.00  0.00    +0.000 C 
ATOM     14  O   UNL     1       2.799   2.543  22.041  0.00  0.00    +0.000 OA
BRANCH  13  15
ATOM     15  O   UNL     1       0.729   2.865  21.203  0.00  0.00    +0.000 OA
ATOM     16  H   UNL     1       0.291   3.019  20.344  0.00  0.00    +0.000 HD
ENDBRANCH  13  15
ENDBRANCH   5  13
TORSDOF 3
ENDMDL
MODEL 8
REMARK VINA RESULT:      -6.6      2.353      3.465
REMARK  Name = 
REMARK  4 active torsions:
REMARK  status: ('A' for Active; 'I' for Inactive)
REMARK    1  A    between atoms: C_1  and  C_2
REMARK    2  A    between atoms: C_5  and  C_6
REMARK    3  A    between atoms: C_6  and  O_8
REMARK    4  A    between atoms: C_10  and  N_11
REMARK                            x       y       z     vdW  Elec       q    Type
REMARK                         _______ _______ _______ _____ _____    ______ ____
ROOT
ATOM      1  C   UNL     1       1.487   4.117  17.791  0.00  0.00    +0.000 C 
ATOM      2  C   UNL     1       2.924   4.513  17.590  0.00  0.00    +0.000 A 
ATOM      3  C   UNL     1       3.770   3.571  16.976  0.00  0.00    +0.000 A 
ATOM      4  C   UNL     1       5.105   3.866  16.716  0.00  0.00    +0.000 A 
ATOM      5  C   UNL     1       5.620   5.118  17.051  0.00  0.00    +0.000 A 
ATOM      6  C   UNL     1       4.788   6.068  17.661  0.00  0.00    +0.000 A 
ATOM      7  C   UNL     1       3.442   5.775  17.952  0.00  0.00    +0.000 A 
ENDROOT
BRANCH   7   8
ATOM      8  N   UNL     1       2.657   6.742  18.599  0.00  0.00    +0.000 N 
ATOM      9  C   UNL     1       2.318   6.884  20.013  0.00  0.00    +0.000 C 
ATOM     10  C   UNL     1       1.743   8.267  19.660  0.00  0.00    +0.000 C 
ATOM     11  C   UNL     1       2.355   8.027  18.271  0.00  0.00    +0.000 C 
ATOM     12  O   UNL     1       2.504   8.683  17.266  0.00  0.00    +0.000 OA
ENDBRANCH   7   8
BRANCH   5  13
ATOM     13  C   UNL     1       7.069   5.354  16.805  0.00  0.00    +0.000 C 
ATOM     14  O   UNL     1       7.498   6.435  16.431  0.00  0.00    +0.000 OA
BRANCH  13  15
ATOM     15  O   UNL     1       7.864   4.301  17.065  0.00  0.00    +0.000 OA
ATOM     16  H   UNL     1       8.825   4.471  17.035  0.00  0.00    +0.000 HD
ENDBRANCH  13  15
ENDBRANCH   5  13
TORSDOF 3
ENDMDL
MODEL 9
REMARK VINA RESULT:      -6.5      2.079      4.789
REMARK  Name = 
REMARK  4 active torsions:
REMARK  status: ('A' for Active; 'I' for Inactive)
REMARK    1  A    between atoms: C_1  and  C_2
REMARK    2  A    between atoms: C_5  and  C_6
REMARK    3  A    between atoms: C_6  and  O_8
REMARK    4  A    between atoms: C_10  and  N_11
REMARK                            x       y       z     vdW  Elec       q    Type
REMARK                         _______ _______ _______ _____ _____    ______ ____
ROOT
ATOM      1  C   UNL     1       3.139   7.691  17.834  0.00  0.00    +0.000 C 
ATOM      2  C   UNL     1       3.120   6.196  17.994  0.00  0.00    +0.000 A 
ATOM      3  C   UNL     1       1.861   5.577  18.100  0.00  0.00    +0.000 A 
ATOM      4  C   UNL     1       1.747   4.194  18.212  0.00  0.00    +0.000 A 
ATOM      5  C   UNL     1       2.892   3.398  18.208  0.00  0.00    +0.000 A 
ATOM      6  C   UNL     1       4.154   4.001  18.101  0.00  0.00    +0.000 A 
ATOM      7  C   UNL     1       4.285   5.400  18.011  0.00  0.00    +0.000 A 
ENDROOT
BRANCH   7   8
ATOM      8  N   UNL     1       5.570   5.962  17.946  0.00  0.00    +0.000 N 
ATOM      9  C   UNL     1       6.709   5.809  18.847  0.00  0.00    +0.000 C 
ATOM     10  C   UNL     1       7.554   6.530  17.784  0.00  0.00    +0.000 C 
ATOM     11  C   UNL     1       6.305   6.416  16.895  0.00  0.00    +0.000 C 
ATOM     12  O   UNL     1       6.042   6.645  15.737  0.00  0.00    +0.000 OA
ENDBRANCH   7   8
BRANCH   5  13
ATOM     13  C   UNL     1       2.711   1.933  18.393  0.00  0.00    +0.000 C 
ATOM     14  O   UNL     1       3.656   1.160  18.428  0.00  0.00    +0.000 OA
BRANCH  13  15
ATOM     15  O   UNL     1       1.436   1.538  18.558  0.00  0.00    +0.000 OA
ATOM     16  H   UNL     1       0.751   2.194  18.325  0.00  0.00    +0.000 HD
ENDBRANCH  13  15
ENDBRANCH   5  13
TORSDOF 3
ENDMDL
