MODEL 1
REMARK VINA RESULT:      -8.4      0.000      0.000
REMARK  Name = 
REMARK  6 active torsions:
REMARK  status: ('A' for Active; 'I' for Inactive)
REMARK    1  A    between atoms: C_1  and  C_2
REMARK    2  A    between atoms: C_2  and  C_4
REMARK    3  A    between atoms: C_8  and  N_9
REMARK    4  A    between atoms: C_10  and  C_12
REMARK    5  A    between atoms: C_12  and  S_13
REMARK    6  A    between atoms: S_13  and  C_14
REMARK                            x       y       z     vdW  Elec       q    Type
REMARK                         _______ _______ _______ _____ _____    ______ ____
ROOT
ATOM      1  N   UNL     1       6.111   4.697  16.050  0.00  0.00    +0.000 N 
ATOM      2  C   UNL     1       6.942   4.506  17.145  0.00  0.00    +0.000 C 
ATOM      3  O   UNL     1       8.141   4.229  17.093  0.00  0.00    +0.000 OA
ATOM      4  H   UNL     1       5.198   5.100  16.232  0.00  0.00    +0.000 HD
ENDROOT
BRANCH   1   9
ATOM      5  C   UNL     1       6.045   3.585  12.496  0.00  0.00    +0.000 A 
ATOM      6  C   UNL     1       7.130   4.285  11.959  0.00  0.00    +0.000 A 
ATOM      7  C   UNL     1       7.898   5.103  12.782  0.00  0.00    +0.000 A 
ATOM      8  C   UNL     1       7.582   5.235  14.135  0.00  0.00    +0.000 A 
ATOM      9  C   UNL     1       6.481   4.573  14.687  0.00  0.00    +0.000 A 
ATOM     10  C   UNL     1       5.720   3.739  13.858  0.00  0.00    +0.000 A 
BRANCH   5  12
ATOM     11  C   UNL     1       3.871   3.140  11.169  0.00  0.00    +0.000 C 
ATOM     12  C   UNL     1       5.221   2.671  11.650  0.00  0.00    +0.000 C 
ATOM     13  O   UNL     1       5.659   1.562  11.350  0.00  0.00    +0.000 OA
ENDBRANCH   5  12
ENDBRANCH   1   9
BRANCH   2  14
ATOM     14  C   UNL     1       6.258   4.672  18.495  0.00  0.00    +0.000 C 
BRANCH  14  15
ATOM     15  S   UNL     1       4.576   3.979  18.445  0.00  0.00    +0.000 S 
BRANCH  15  16
ATOM     16  C   UNL     1       3.656   5.430  18.553  0.00  0.00    +0.000 A 
ATOM     17  N   UNL     1       3.458   6.301  17.589  0.00  0.00    +0.000 NA
ATOM     18  C   UNL     1       2.714   7.291  18.185  0.00  0.00    +0.000 A 
ATOM     19  C   UNL     1       2.194   8.487  17.681  0.00  0.00    +0.000 A 
ATOM     20  C   UNL     1       1.495   9.304  18.575  0.00  0.00    +0.000 A 
ATOM     21  C   UNL     1       1.344   8.894  19.899  0.00  0.00    +0.000 A 
ATOM     22  N   UNL     1       1.814   7.740  20.432  0.00  0.00    +0.000 NA
ATOM     23  C   UNL     1       2.481   7.003  19.526  0.00  0.00    +0.000 A 
ATOM     24  N   UNL     1       3.092   5.801  19.735  0.00  0.00    +0.000 N 
ATOM     25  H   UNL     1       3.141   5.305  20.613  0.00  0.00    +0.000 HD
ENDBRANCH  15  16
ENDBRANCH  14  15
ENDBRANCH   2  14
TORSDOF 5
ENDMDL
MODEL 2
REMARK VINA RESULT:      -8.3      1.892      2.818
REMARK  Name = 
REMARK  6 active torsions:
REMARK  status: ('A' for Active; 'I' for Inactive)
REMARK    1  A    between atoms: C_1  and  C_2
REMARK    2  A    between atoms: C_2  and  C_4
REMARK    3  A    between atoms: C_8  and  N_9
REMARK    4  A    between atoms: C_10  and  C_12
REMARK    5  A    between atoms: C_12  and  S_13
REMARK    6  A    between atoms: S_13  and  C_14
REMARK                            x       y       z     vdW  Elec       q    Type
REMARK                         _______ _______ _______ _____ _____    ______ ____
ROOT
ATOM      1  N   UNL     1       6.380   5.247  15.694  0.00  0.00    +0.000 N 
ATOM      2  C   UNL     1       7.096   4.851  16.816  0.00  0.00    +0.000 C 
ATOM      3  O   UNL     1       8.128   4.179  16.805  0.00  0.00    +0.000 OA
ATOM      4  H   UNL     1       5.660   5.948  15.835  0.00  0.00    +0.000 HD
ENDROOT
BRANCH   1   9
ATOM      5  C   UNL     1       6.141   3.645  12.341  0.00  0.00    +0.000 A 
ATOM      6  C   UNL     1       7.210   4.239  11.665  0.00  0.00    +0.000 A 
ATOM      7  C   UNL     1       8.026   5.150  12.330  0.00  0.00    +0.000 A 
ATOM      8  C   UNL     1       7.772   5.478  13.662  0.00  0.00    +0.000 A 
ATOM      9  C   UNL     1       6.688   4.924  14.348  0.00  0.00    +0.000 A 
ATOM     10  C   UNL     1       5.879   3.996  13.680  0.00  0.00    +0.000 A 
BRANCH   5  12
ATOM     11  C   UNL     1       3.905   3.061  11.181  0.00  0.00    +0.000 C 
ATOM     12  C   UNL     1       5.267   2.636  11.670  0.00  0.00    +0.000 C 
ATOM     13  O   UNL     1       5.675   1.487  11.515  0.00  0.00    +0.000 OA
ENDBRANCH   5  12
ENDBRANCH   1   9
BRANCH   2  14
ATOM     14  C   UNL     1       6.508   5.319  18.140  0.00  0.00    +0.000 C 
BRANCH  14  15
ATOM     15  S   UNL     1       5.117   6.458  17.850  0.00  0.00    +0.000 S 
BRANCH  15  16
ATOM     16  C   UNL     1       3.822   5.499  18.454  0.00  0.00    +0.000 A 
ATOM     17  N   UNL     1       3.410   5.440  19.700  0.00  0.00    +0.000 NA
ATOM     18  C   UNL     1       2.400   4.508  19.672  0.00  0.00    +0.000 A 
ATOM     19  C   UNL     1       1.575   4.006  20.684  0.00  0.00    +0.000 A 
ATOM     20  C   UNL     1       0.651   3.022  20.322  0.00  0.00    +0.000 A 
ATOM     21  C   UNL     1       0.587   2.600  18.995  0.00  0.00    +0.000 A 
ATOM     22  N   UNL     1       1.352   3.064  17.976  0.00  0.00    +0.000 NA
ATOM     23  C   UNL     1       2.223   4.000  18.388  0.00  0.00    +0.000 A 
ATOM     24  N   UNL     1       3.145   4.657  17.625  0.00  0.00    +0.000 N 
ATOM     25  H   UNL     1       3.310   4.513  16.640  0.00  0.00    +0.000 HD
ENDBRANCH  15  16
ENDBRANCH  14  15
ENDBRANCH   2  14
TORSDOF 5
ENDMDL
MODEL 3
REMARK VINA RESULT:      -8.0      2.032      2.679
REMARK  Name = 
REMARK  6 active torsions:
REMARK  status: ('A' for Active; 'I' for Inactive)
REMARK    1  A    between atoms: C_1  and  C_2
REMARK    2  A    between atoms: C_2  and  C_4
REMARK    3  A    between atoms: C_8  and  N_9
REMARK    4  A    between atoms: C_10  and  C_12
REMARK    5  A    between atoms: C_12  and  S_13
REMARK    6  A    between atoms: S_13  and  C_14
REMARK                            x       y       z     vdW  Elec       q    Type
REMARK                         _______ _______ _______ _____ _____    ______ ____
ROOT
ATOM      1  N   UNL     1       6.394   5.104  15.782  0.00  0.00    +0.000 N 
ATOM      2  C   UNL     1       7.169   4.750  16.877  0.00  0.00    +0.000 C 
ATOM      3  O   UNL     1       8.253   4.166  16.828  0.00  0.00    +0.000 OA
ATOM      4  H   UNL     1       5.622   5.740  15.953  0.00  0.00    +0.000 HD
ENDROOT
BRANCH   1   9
ATOM      5  C   UNL     1       6.129   3.624  12.374  0.00  0.00    +0.000 A 
ATOM      6  C   UNL     1       7.194   4.242  11.713  0.00  0.00    +0.000 A 
ATOM      7  C   UNL     1       8.015   5.128  12.404  0.00  0.00    +0.000 A 
ATOM      8  C   UNL     1       7.771   5.408  13.749  0.00  0.00    +0.000 A 
ATOM      9  C   UNL     1       6.692   4.830  14.423  0.00  0.00    +0.000 A 
ATOM     10  C   UNL     1       5.878   3.927  13.727  0.00  0.00    +0.000 A 
BRANCH   5  12
ATOM     11  C   UNL     1       3.895   3.091  11.186  0.00  0.00    +0.000 C 
ATOM     12  C   UNL     1       5.250   2.641  11.673  0.00  0.00    +0.000 C 
ATOM     13  O   UNL     1       5.647   1.491  11.494  0.00  0.00    +0.000 OA
ENDBRANCH   5  12
ENDBRANCH   1   9
BRANCH   2  14
ATOM     14  C   UNL     1       6.579   5.146  18.225  0.00  0.00    +0.000 C 
BRANCH  14  15
ATOM     15  S   UNL     1       5.124   6.214  17.991  0.00  0.00    +0.000 S 
BRANCH  15  16
ATOM     16  C   UNL     1       3.899   5.183  18.623  0.00  0.00    +0.000 A 
ATOM     17  N   UNL     1       2.990   4.536  17.929  0.00  0.00    +0.000 NA
ATOM     18  C   UNL     1       2.231   3.904  18.884  0.00  0.00    +0.000 A 
ATOM     19  C   UNL     1       1.114   3.070  18.775  0.00  0.00    +0.000 A 
ATOM     20  C   UNL     1       0.545   2.609  19.967  0.00  0.00    +0.000 A 
ATOM     21  C   UNL     1       1.109   2.988  21.184  0.00  0.00    +0.000 A 
ATOM     22  N   UNL     1       2.197   3.781  21.342  0.00  0.00    +0.000 NA
ATOM     23  C   UNL     1       2.693   4.196  20.164  0.00  0.00    +0.000 A 
ATOM     24  N   UNL     1       3.767   5.014  19.967  0.00  0.00    +0.000 N 
ATOM     25  H   UNL     1       4.330   5.437  20.690  0.00  0.00    +0.000 HD
ENDBRANCH  15  16
ENDBRANCH  14  15
ENDBRANCH   2  14
TORSDOF 5
ENDMDL
MODEL 4
REMARK VINA RESULT:      -7.9      3.619      8.005
REMARK  Name = 
REMARK  6 active torsions:
REMARK  status: ('A' for Active; 'I' for Inactive)
REMARK    1  A    between atoms: C_1  and  C_2
REMARK    2  A    between atoms: C_2  and  C_4
REMARK    3  A    between atoms: C_8  and  N_9
REMARK    4  A    between atoms: C_10  and  C_12
REMARK    5  A    between atoms: C_12  and  S_13
REMARK    6  A    between atoms: S_13  and  C_14
REMARK                            x       y       z     vdW  Elec       q    Type
REMARK                         _______ _______ _______ _____ _____    ______ ____
ROOT
ATOM      1  N   UNL     1       2.741   5.912  20.375  0.00  0.00    +0.000 N 
ATOM      2  C   UNL     1       2.028   4.736  20.567  0.00  0.00    +0.000 C 
ATOM      3  O   UNL     1       0.836   4.572  20.307  0.00  0.00    +0.000 OA
ATOM      4  H   UNL     1       3.750   5.855  20.456  0.00  0.00    +0.000 HD
ENDROOT
BRANCH   1   9
ATOM      5  C   UNL     1       0.962   9.184  20.312  0.00  0.00    +0.000 A 
ATOM      6  C   UNL     1       1.166   9.593  18.991  0.00  0.00    +0.000 A 
ATOM      7  C   UNL     1       1.870   8.771  18.115  0.00  0.00    +0.000 A 
ATOM      8  C   UNL     1       2.380   7.549  18.555  0.00  0.00    +0.000 A 
ATOM      9  C   UNL     1       2.220   7.135  19.880  0.00  0.00    +0.000 A 
ATOM     10  C   UNL     1       1.497   7.957  20.754  0.00  0.00    +0.000 A 
BRANCH   5  12
ATOM     11  C   UNL     1      -0.084   9.494  22.656  0.00  0.00    +0.000 C 
ATOM     12  C   UNL     1       0.181  10.023  21.269  0.00  0.00    +0.000 C 
ATOM     13  O   UNL     1      -0.220  11.131  20.918  0.00  0.00    +0.000 OA
ENDBRANCH   5  12
ENDBRANCH   1   9
BRANCH   2  14
ATOM     14  C   UNL     1       2.846   3.589  21.147  0.00  0.00    +0.000 C 
BRANCH  14  15
ATOM     15  S   UNL     1       3.091   2.289  19.897  0.00  0.00    +0.000 S 
BRANCH  15  16
ATOM     16  C   UNL     1       4.062   3.149  18.765  0.00  0.00    +0.000 A 
ATOM     17  N   UNL     1       3.764   3.393  17.509  0.00  0.00    +0.000 NA
ATOM     18  C   UNL     1       4.868   4.056  17.029  0.00  0.00    +0.000 A 
ATOM     19  C   UNL     1       5.158   4.574  15.763  0.00  0.00    +0.000 A 
ATOM     20  C   UNL     1       6.409   5.175  15.592  0.00  0.00    +0.000 A 
ATOM     21  C   UNL     1       7.289   5.237  16.671  0.00  0.00    +0.000 A 
ATOM     22  N   UNL     1       7.050   4.764  17.919  0.00  0.00    +0.000 NA
ATOM     23  C   UNL     1       5.838   4.194  18.017  0.00  0.00    +0.000 A 
ATOM     24  N   UNL     1       5.293   3.608  19.123  0.00  0.00    +0.000 N 
ATOM     25  H   UNL     1       5.740   3.507  20.022  0.00  0.00    +0.000 HD
ENDBRANCH  15  16
ENDBRANCH  14  15
ENDBRANCH   2  14
TORSDOF 5
ENDMDL
MODEL 5
REMARK VINA RESULT:      -7.9      3.709      7.932
REMARK  Name = 
REMARK  6 active torsions:
REMARK  status: ('A' for Active; 'I' for Inactive)
REMARK    1  A    between atoms: C_1  and  C_2
REMARK    2  A    between atoms: C_2  and  C_4
REMARK    3  A    between atoms: C_8  and  N_9
REMARK    4  A    between atoms: C_10  and  C_12
REMARK    5  A    between atoms: C_12  and  S_13
REMARK    6  A    between atoms: S_13  and  C_14
REMARK                            x       y       z     vdW  Elec       q    Type
REMARK                         _______ _______ _______ _____ _____    ______ ____
ROOT
ATOM      1  N   UNL     1       2.676   5.761  20.419  0.00  0.00    +0.000 N 
ATOM      2  C   UNL     1       2.068   4.523  20.263  0.00  0.00    +0.000 C 
ATOM      3  O   UNL     1       1.040   4.307  19.619  0.00  0.00    +0.000 OA
ATOM      4  H   UNL     1       3.610   5.766  20.815  0.00  0.00    +0.000 HD
ENDROOT
BRANCH   1   9
ATOM      5  C   UNL     1       0.969   9.067  20.257  0.00  0.00    +0.000 A 
ATOM      6  C   UNL     1       1.260   9.473  18.952  0.00  0.00    +0.000 A 
ATOM      7  C   UNL     1       1.998   8.639  18.118  0.00  0.00    +0.000 A 
ATOM      8  C   UNL     1       2.457   7.407  18.585  0.00  0.00    +0.000 A 
ATOM      9  C   UNL     1       2.209   6.994  19.897  0.00  0.00    +0.000 A 
ATOM     10  C   UNL     1       1.452   7.830  20.727  0.00  0.00    +0.000 A 
BRANCH   5  12
ATOM     11  C   UNL     1       0.061   9.556  22.629  0.00  0.00    +0.000 C 
ATOM     12  C   UNL     1       0.148   9.920  21.168  0.00  0.00    +0.000 C 
ATOM     13  O   UNL     1      -0.429  10.908  20.718  0.00  0.00    +0.000 OA
ENDBRANCH   5  12
ENDBRANCH   1   9
BRANCH   2  14
ATOM     14  C   UNL     1       2.779   3.375  20.968  0.00  0.00    +0.000 C 
BRANCH  14  15
ATOM     15  S   UNL     1       3.501   2.231  19.749  0.00  0.00    +0.000 S 
BRANCH  15  16
ATOM     16  C   UNL     1       4.579   3.304  18.943  0.00  0.00    +0.000 A 
ATOM     17  N   UNL     1       5.370   4.186  19.509  0.00  0.00    +0.000 NA
ATOM     18  C   UNL     1       5.978   4.815  18.450  0.00  0.00    +0.000 A 
ATOM     19  C   UNL     1       6.920   5.848  18.404  0.00  0.00    +0.000 A 
ATOM     20  C   UNL     1       7.319   6.290  17.139  0.00  0.00    +0.000 A 
ATOM     21  C   UNL     1       6.778   5.689  16.004  0.00  0.00    +0.000 A 
ATOM     22  N   UNL     1       5.875   4.677  15.994  0.00  0.00    +0.000 NA
ATOM     23  C   UNL     1       5.527   4.303  17.237  0.00  0.00    +0.000 A 
ATOM     24  N   UNL     1       4.634   3.330  17.582  0.00  0.00    +0.000 N 
ATOM     25  H   UNL     1       4.094   2.767  16.942  0.00  0.00    +0.000 HD
ENDBRANCH  15  16
ENDBRANCH  14  15
ENDBRANCH   2  14
TORSDOF 5
ENDMDL
MODEL 6
REMARK VINA RESULT:      -7.9      2.591      3.045
REMARK  Name = 
REMARK  6 active torsions:
REMARK  status: ('A' for Active; 'I' for Inactive)
REMARK    1  A    between atoms: C_1  and  C_2
REMARK    2  A    between atoms: C_2  and  C_4
REMARK    3  A    between atoms: C_8  and  N_9
REMARK    4  A    between atoms: C_10  and  C_12
REMARK    5  A    between atoms: C_12  and  S_13
REMARK    6  A    between atoms: S_13  and  C_14
REMARK                            x       y       z     vdW  Elec       q    Type
REMARK                         _______ _______ _______ _____ _____    ______ ____
ROOT
ATOM      1  N   UNL     1       6.616   5.186  15.642  0.00  0.00    +0.000 N 
ATOM      2  C   UNL     1       5.824   6.213  16.139  0.00  0.00    +0.000 C 
ATOM      3  O   UNL     1       5.169   7.004  15.459  0.00  0.00    +0.000 OA
ATOM      4  H   UNL     1       6.949   4.500  16.311  0.00  0.00    +0.000 HD
ENDROOT
BRANCH   1   9
ATOM      5  C   UNL     1       6.173   3.629  12.288  0.00  0.00    +0.000 A 
ATOM      6  C   UNL     1       7.187   4.250  11.551  0.00  0.00    +0.000 A 
ATOM      7  C   UNL     1       8.032   5.162  12.174  0.00  0.00    +0.000 A 
ATOM      8  C   UNL     1       7.865   5.468  13.525  0.00  0.00    +0.000 A 
ATOM      9  C   UNL     1       6.836   4.888  14.274  0.00  0.00    +0.000 A 
ATOM     10  C   UNL     1       5.998   3.957  13.647  0.00  0.00    +0.000 A 
BRANCH   5  12
ATOM     11  C   UNL     1       3.896   3.046  11.211  0.00  0.00    +0.000 C 
ATOM     12  C   UNL     1       5.270   2.618  11.661  0.00  0.00    +0.000 C 
ATOM     13  O   UNL     1       5.664   1.463  11.511  0.00  0.00    +0.000 OA
ENDBRANCH   5  12
ENDBRANCH   1   9
BRANCH   2  14
ATOM     14  C   UNL     1       5.802   6.317  17.658  0.00  0.00    +0.000 C 
BRANCH  14  15
ATOM     15  S   UNL     1       6.267   4.725  18.410  0.00  0.00    +0.000 S 
BRANCH  15  16
ATOM     16  C   UNL     1       4.702   4.075  18.712  0.00  0.00    +0.000 A 
ATOM     17  N   UNL     1       4.071   3.187  17.978  0.00  0.00    +0.000 NA
ATOM     18  C   UNL     1       2.858   3.040  18.605  0.00  0.00    +0.000 A 
ATOM     19  C   UNL     1       1.750   2.241  18.301  0.00  0.00    +0.000 A 
ATOM     20  C   UNL     1       0.637   2.351  19.140  0.00  0.00    +0.000 A 
ATOM     21  C   UNL     1       0.682   3.227  20.223  0.00  0.00    +0.000 A 
ATOM     22  N   UNL     1       1.734   4.010  20.568  0.00  0.00    +0.000 NA
ATOM     23  C   UNL     1       2.767   3.865  19.722  0.00  0.00    +0.000 A 
ATOM     24  N   UNL     1       3.967   4.514  19.771  0.00  0.00    +0.000 N 
ATOM     25  H   UNL     1       4.235   5.213  20.448  0.00  0.00    +0.000 HD
ENDBRANCH  15  16
ENDBRANCH  14  15
ENDBRANCH   2  14
TORSDOF 5
ENDMDL
MODEL 7
REMARK VINA RESULT:      -7.8      2.354      2.993
REMARK  Name = 
REMARK  6 active torsions:
REMARK  status: ('A' for Active; 'I' for Inactive)
REMARK    1  A    between atoms: C_1  and  C_2
REMARK    2  A    between atoms: C_2  and  C_4
REMARK    3  A    between atoms: C_8  and  N_9
REMARK    4  A    between atoms: C_10  and  C_12
REMARK    5  A    between atoms: C_12  and  S_13
REMARK    6  A    between atoms: S_13  and  C_14
REMARK                            x       y       z     vdW  Elec       q    Type
REMARK                         _______ _______ _______ _____ _____    ______ ____
ROOT
ATOM      1  N   UNL     1       7.230   5.336  15.467  0.00  0.00    +0.000 N 
ATOM      2  C   UNL     1       6.350   6.189  16.120  0.00  0.00    +0.000 C 
ATOM      3  O   UNL     1       5.418   6.796  15.591  0.00  0.00    +0.000 OA
ATOM      4  H   UNL     1       7.829   4.761  16.051  0.00  0.00    +0.000 HD
ENDROOT
BRANCH   1   9
ATOM      5  C   UNL     1       6.312   3.742  12.228  0.00  0.00    +0.000 A 
ATOM      6  C   UNL     1       7.159   4.405  11.336  0.00  0.00    +0.000 A 
ATOM      7  C   UNL     1       8.053   5.360  11.812  0.00  0.00    +0.000 A 
ATOM      8  C   UNL     1       8.097   5.664  13.173  0.00  0.00    +0.000 A 
ATOM      9  C   UNL     1       7.235   5.041  14.080  0.00  0.00    +0.000 A 
ATOM     10  C   UNL     1       6.349   4.069  13.599  0.00  0.00    +0.000 A 
BRANCH   5  12
ATOM     11  C   UNL     1       3.979   3.090  11.325  0.00  0.00    +0.000 C 
ATOM     12  C   UNL     1       5.366   2.686  11.758  0.00  0.00    +0.000 C 
ATOM     13  O   UNL     1       5.736   1.515  11.717  0.00  0.00    +0.000 OA
ENDBRANCH   5  12
ENDBRANCH   1   9
BRANCH   2  14
ATOM     14  C   UNL     1       6.607   6.341  17.613  0.00  0.00    +0.000 C 
BRANCH  14  15
ATOM     15  S   UNL     1       6.858   4.711  18.384  0.00  0.00    +0.000 S 
BRANCH  15  16
ATOM     16  C   UNL     1       5.262   4.407  18.953  0.00  0.00    +0.000 A 
ATOM     17  N   UNL     1       4.379   5.308  19.321  0.00  0.00    +0.000 NA
ATOM     18  C   UNL     1       3.299   4.566  19.734  0.00  0.00    +0.000 A 
ATOM     19  C   UNL     1       2.053   4.949  20.239  0.00  0.00    +0.000 A 
ATOM     20  C   UNL     1       1.172   3.926  20.603  0.00  0.00    +0.000 A 
ATOM     21  C   UNL     1       1.563   2.598  20.440  0.00  0.00    +0.000 A 
ATOM     22  N   UNL     1       2.751   2.176  19.942  0.00  0.00    +0.000 NA
ATOM     23  C   UNL     1       3.555   3.203  19.619  0.00  0.00    +0.000 A 
ATOM     24  N   UNL     1       4.819   3.129  19.111  0.00  0.00    +0.000 N 
ATOM     25  H   UNL     1       5.334   2.281  18.924  0.00  0.00    +0.000 HD
ENDBRANCH  15  16
ENDBRANCH  14  15
ENDBRANCH   2  14
TORSDOF 5
ENDMDL
MODEL 8
REMARK VINA RESULT:      -7.8      4.153      7.696
REMARK  Name = 
REMARK  6 active torsions:
REMARK  status: ('A' for Active; 'I' for Inactive)
REMARK    1  A    between atoms: C_1  and  C_2
REMARK    2  A    between atoms: C_2  and  C_4
REMARK    3  A    between atoms: C_8  and  N_9
REMARK    4  A    between atoms: C_10  and  C_12
REMARK    5  A    between atoms: C_12  and  S_13
REMARK    6  A    between atoms: S_13  and  C_14
REMARK                            x       y       z     vdW  Elec       q    Type
REMARK                         _______ _______ _______ _____ _____    ______ ____
ROOT
ATOM      1  N   UNL     1       2.747   5.284  19.707  0.00  0.00    +0.000 N 
ATOM      2  C   UNL     1       1.952   4.146  19.760  0.00  0.00    +0.000 C 
ATOM      3  O   UNL     1       0.729   4.121  19.618  0.00  0.00    +0.000 OA
ATOM      4  H   UNL     1       3.749   5.140  19.654  0.00  0.00    +0.000 HD
ENDROOT
BRANCH   1   9
ATOM      5  C   UNL     1       1.378   8.657  20.496  0.00  0.00    +0.000 A 
ATOM      6  C   UNL     1       1.392   9.269  19.239  0.00  0.00    +0.000 A 
ATOM      7  C   UNL     1       1.829   8.555  18.128  0.00  0.00    +0.000 A 
ATOM      8  C   UNL     1       2.263   7.236  18.267  0.00  0.00    +0.000 A 
ATOM      9  C   UNL     1       2.292   6.613  19.518  0.00  0.00    +0.000 A 
ATOM     10  C   UNL     1       1.836   7.331  20.631  0.00  0.00    +0.000 A 
BRANCH   5  12
ATOM     11  C   UNL     1      -0.517   9.946  21.692  0.00  0.00    +0.000 C 
ATOM     12  C   UNL     1       0.881   9.381  21.703  0.00  0.00    +0.000 C 
ATOM     13  O   UNL     1       1.610   9.493  22.687  0.00  0.00    +0.000 OA
ENDBRANCH   5  12
ENDBRANCH   1   9
BRANCH   2  14
ATOM     14  C   UNL     1       2.716   2.852  20.011  0.00  0.00    +0.000 C 
BRANCH  14  15
ATOM     15  S   UNL     1       3.588   2.326  18.502  0.00  0.00    +0.000 S 
BRANCH  15  16
ATOM     16  C   UNL     1       4.670   3.652  18.312  0.00  0.00    +0.000 A 
ATOM     17  N   UNL     1       4.679   4.516  17.323  0.00  0.00    +0.000 NA
ATOM     18  C   UNL     1       5.748   5.332  17.604  0.00  0.00    +0.000 A 
ATOM     19  C   UNL     1       6.273   6.436  16.924  0.00  0.00    +0.000 A 
ATOM     20  C   UNL     1       7.411   7.037  17.471  0.00  0.00    +0.000 A 
ATOM     21  C   UNL     1       7.954   6.527  18.649  0.00  0.00    +0.000 A 
ATOM     22  N   UNL     1       7.475   5.472  19.353  0.00  0.00    +0.000 NA
ATOM     23  C   UNL     1       6.388   4.934  18.774  0.00  0.00    +0.000 A 
ATOM     24  N   UNL     1       5.673   3.856  19.211  0.00  0.00    +0.000 N 
ATOM     25  H   UNL     1       5.878   3.301  20.028  0.00  0.00    +0.000 HD
ENDBRANCH  15  16
ENDBRANCH  14  15
ENDBRANCH   2  14
TORSDOF 5
ENDMDL
MODEL 9
REMARK VINA RESULT:      -7.8      2.859      8.253
REMARK  Name = 
REMARK  6 active torsions:
REMARK  status: ('A' for Active; 'I' for Inactive)
REMARK    1  A    between atoms: C_1  and  C_2
REMARK    2  A    between atoms: C_2  and  C_4
REMARK    3  A    between atoms: C_8  and  N_9
REMARK    4  A    between atoms: C_10  and  C_12
REMARK    5  A    between atoms: C_12  and  S_13
REMARK    6  A    between atoms: S_13  and  C_14
REMARK                            x       y       z     vdW  Elec       q    Type
REMARK                         _______ _______ _______ _____ _____    ______ ____
ROOT
ATOM      1  N   UNL     1       3.622   6.320  18.535  0.00  0.00    +0.000 N 
ATOM      2  C   UNL     1       3.292   4.971  18.531  0.00  0.00    +0.000 C 
ATOM      3  O   UNL     1       2.155   4.513  18.653  0.00  0.00    +0.000 OA
ATOM      4  H   UNL     1       4.562   6.562  18.241  0.00  0.00    +0.000 HD
ENDROOT
BRANCH   1   9
ATOM      5  C   UNL     1       1.158   8.585  20.169  0.00  0.00    +0.000 A 
ATOM      6  C   UNL     1       0.933   9.531  19.164  0.00  0.00    +0.000 A 
ATOM      7  C   UNL     1       1.576   9.401  17.937  0.00  0.00    +0.000 A 
ATOM      8  C   UNL     1       2.453   8.339  17.712  0.00  0.00    +0.000 A 
ATOM      9  C   UNL     1       2.722   7.401  18.713  0.00  0.00    +0.000 A 
ATOM     10  C   UNL     1       2.059   7.526  19.941  0.00  0.00    +0.000 A 
BRANCH   5  12
ATOM     11  C   UNL     1       1.108   9.437  22.609  0.00  0.00    +0.000 C 
ATOM     12  C   UNL     1       0.457   8.673  21.484  0.00  0.00    +0.000 C 
ATOM     13  O   UNL     1      -0.640   8.136  21.625  0.00  0.00    +0.000 OA
ENDBRANCH   5  12
ENDBRANCH   1   9
BRANCH   2  14
ATOM     14  C   UNL     1       4.476   4.030  18.353  0.00  0.00    +0.000 C 
BRANCH  14  15
ATOM     15  S   UNL     1       6.016   4.979  18.147  0.00  0.00    +0.000 S 
BRANCH  15  16
ATOM     16  C   UNL     1       6.255   4.786  16.453  0.00  0.00    +0.000 A 
ATOM     17  N   UNL     1       5.637   3.930  15.670  0.00  0.00    +0.000 NA
ATOM     18  C   UNL     1       6.209   4.135  14.438  0.00  0.00    +0.000 A 
ATOM     19  C   UNL     1       5.980   3.527  13.200  0.00  0.00    +0.000 A 
ATOM     20  C   UNL     1       6.771   3.951  12.127  0.00  0.00    +0.000 A 
ATOM     21  C   UNL     1       7.725   4.945  12.333  0.00  0.00    +0.000 A 
ATOM     22  N   UNL     1       7.975   5.575  13.507  0.00  0.00    +0.000 NA
ATOM     23  C   UNL     1       7.191   5.120  14.499  0.00  0.00    +0.000 A 
ATOM     24  N   UNL     1       7.196   5.525  15.802  0.00  0.00    +0.000 N 
ATOM     25  H   UNL     1       7.809   6.217  16.205  0.00  0.00    +0.000 HD
ENDBRANCH  15  16
ENDBRANCH  14  15
ENDBRANCH   2  14
TORSDOF 5
ENDMDL
