MODEL 1
REMARK VINA RESULT:      -6.7      0.000      0.000
REMARK  Name = 
REMARK  15 active torsions:
REMARK  status: ('A' for Active; 'I' for Inactive)
REMARK    1  A    between atoms: C_1  and  C_2
REMARK    2  A    between atoms: C_2  and  O_4
REMARK    3  A    between atoms: O_4  and  C_5
REMARK    4  A    between atoms: C_5  and  C_6
REMARK    5  A    between atoms: C_8  and  O_9
REMARK    6  A    between atoms: O_9  and  C_10
REMARK    7  A    between atoms: C_10  and  C_11
REMARK    8  A    between atoms: C_13  and  N_14
REMARK    9  A    between atoms: C_15  and  C_17
REMARK   10  A    between atoms: C_19  and  O_20
REMARK   11  A    between atoms: O_20  and  C_21
REMARK   12  A    between atoms: C_21  and  C_22
REMARK   13  A    between atoms: C_24  and  O_25
REMARK   14  A    between atoms: O_25  and  C_26
REMARK   15  A    between atoms: C_26  and  C_27
REMARK                            x       y       z     vdW  Elec       q    Type
REMARK                         _______ _______ _______ _____ _____    ______ ____
ROOT
ATOM      1  C   UNL     1       3.050   5.161  19.588  0.00  0.00    +0.000 C 
ATOM      2  O   UNL     1       2.613   4.269  18.554  0.00  0.00    +0.000 OA
ATOM      3  C   UNL     1       3.687   3.779  17.743  0.00  0.00    +0.000 C 
ATOM      4  C   UNL     1       4.365   4.965  17.010  0.00  0.00    +0.000 C 
ATOM      5  C   UNL     1       4.881   5.968  18.068  0.00  0.00    +0.000 C 
ATOM      6  C   UNL     1       3.718   6.414  18.987  0.00  0.00    +0.000 C 
ENDROOT
BRANCH   4   7
ATOM      7  N   UNL     1       5.442   4.505  16.128  0.00  0.00    +0.000 N 
ATOM      8  C   UNL     1       5.798   5.162  14.969  0.00  0.00    +0.000 C 
ATOM      9  O   UNL     1       5.222   6.171  14.566  0.00  0.00    +0.000 OA
ATOM     10  H   UNL     1       6.080   3.801  16.489  0.00  0.00    +0.000 HD
BRANCH   8  11
ATOM     11  C   UNL     1       6.999   4.572  14.256  0.00  0.00    +0.000 C 
ATOM     12 CL   UNL     1       6.461   3.722  12.792  0.00  0.00    +0.000 Cl
ENDBRANCH   8  11
ENDBRANCH   4   7
BRANCH   1  13
ATOM     13  C   UNL     1       1.832   5.483  20.465  0.00  0.00    +0.000 C 
BRANCH  13  14
ATOM     14  O   UNL     1       0.891   4.401  20.492  0.00  0.00    +0.000 OA
BRANCH  14  16
ATOM     15  C   UNL     1       0.992   2.072  20.237  0.00  0.00    +0.000 C 
ATOM     16  C   UNL     1       1.336   3.260  21.085  0.00  0.00    +0.000 C 
ATOM     17  O   UNL     1       1.896   3.193  22.169  0.00  0.00    +0.000 OA
ENDBRANCH  14  16
ENDBRANCH  13  14
ENDBRANCH   1  13
BRANCH   3  18
ATOM     18  O   UNL     1       4.677   3.090  18.530  0.00  0.00    +0.000 OA
BRANCH  18  19
ATOM     19  C   UNL     1       4.293   1.885  19.026  0.00  0.00    +0.000 C 
ATOM     20  C   UNL     1       4.671   1.779  20.474  0.00  0.00    +0.000 C 
ATOM     21  O   UNL     1       3.686   1.019  18.413  0.00  0.00    +0.000 OA
ENDBRANCH  18  19
ENDBRANCH   3  18
BRANCH   5  22
ATOM     22  O   UNL     1       5.463   7.138  17.448  0.00  0.00    +0.000 OA
BRANCH  22  23
ATOM     23  C   UNL     1       6.802   7.318  17.586  0.00  0.00    +0.000 C 
ATOM     24  C   UNL     1       7.397   6.236  18.437  0.00  0.00    +0.000 C 
ATOM     25  O   UNL     1       7.451   8.221  17.073  0.00  0.00    +0.000 OA
ENDBRANCH  22  23
ENDBRANCH   5  22
BRANCH   6  26
ATOM     26  O   UNL     1       2.725   7.140  18.220  0.00  0.00    +0.000 OA
BRANCH  26  27
ATOM     27  C   UNL     1       2.235   8.283  18.777  0.00  0.00    +0.000 C 
ATOM     28  C   UNL     1       2.074   9.353  17.745  0.00  0.00    +0.000 C 
ATOM     29  O   UNL     1       1.928   8.420  19.956  0.00  0.00    +0.000 OA
ENDBRANCH  26  27
ENDBRANCH   6  26
TORSDOF 11
ENDMDL
MODEL 2
REMARK VINA RESULT:      -6.6      2.206      4.811
REMARK  Name = 
REMARK  15 active torsions:
REMARK  status: ('A' for Active; 'I' for Inactive)
REMARK    1  A    between atoms: C_1  and  C_2
REMARK    2  A    between atoms: C_2  and  O_4
REMARK    3  A    between atoms: O_4  and  C_5
REMARK    4  A    between atoms: C_5  and  C_6
REMARK    5  A    between atoms: C_8  and  O_9
REMARK    6  A    between atoms: O_9  and  C_10
REMARK    7  A    between atoms: C_10  and  C_11
REMARK    8  A    between atoms: C_13  and  N_14
REMARK    9  A    between atoms: C_15  and  C_17
REMARK   10  A    between atoms: C_19  and  O_20
REMARK   11  A    between atoms: O_20  and  C_21
REMARK   12  A    between atoms: C_21  and  C_22
REMARK   13  A    between atoms: C_24  and  O_25
REMARK   14  A    between atoms: O_25  and  C_26
REMARK   15  A    between atoms: C_26  and  C_27
REMARK                            x       y       z     vdW  Elec       q    Type
REMARK                         _______ _______ _______ _____ _____    ______ ____
ROOT
ATOM      1  C   UNL     1       2.396   4.893  17.909  0.00  0.00    +0.000 C 
ATOM      2  O   UNL     1       2.768   5.802  18.954  0.00  0.00    +0.000 OA
ATOM      3  C   UNL     1       3.667   6.826  18.516  0.00  0.00    +0.000 C 
ATOM      4  C   UNL     1       4.992   6.181  18.035  0.00  0.00    +0.000 C 
ATOM      5  C   UNL     1       4.672   5.195  16.888  0.00  0.00    +0.000 C 
ATOM      6  C   UNL     1       3.632   4.151  17.361  0.00  0.00    +0.000 C 
ENDROOT
BRANCH   4   7
ATOM      7  N   UNL     1       5.964   7.198  17.621  0.00  0.00    +0.000 N 
ATOM      8  C   UNL     1       7.280   7.193  18.034  0.00  0.00    +0.000 C 
ATOM      9  O   UNL     1       7.738   6.353  18.806  0.00  0.00    +0.000 OA
ATOM     10  H   UNL     1       5.713   7.802  16.843  0.00  0.00    +0.000 HD
BRANCH   8  11
ATOM     11  C   UNL     1       8.136   8.279  17.413  0.00  0.00    +0.000 C 
ATOM     12 CL   UNL     1       8.697   9.390  18.680  0.00  0.00    +0.000 Cl
ENDBRANCH   8  11
ENDBRANCH   4   7
BRANCH   1  13
ATOM     13  C   UNL     1       1.323   3.952  18.475  0.00  0.00    +0.000 C 
BRANCH  13  14
ATOM     14  O   UNL     1       1.069   4.205  19.864  0.00  0.00    +0.000 OA
BRANCH  14  16
ATOM     15  C   UNL     1       2.333   3.745  21.784  0.00  0.00    +0.000 C 
ATOM     16  C   UNL     1       1.435   3.206  20.711  0.00  0.00    +0.000 C 
ATOM     17  O   UNL     1       1.122   2.030  20.604  0.00  0.00    +0.000 OA
ENDBRANCH  14  16
ENDBRANCH  13  14
ENDBRANCH   1  13
BRANCH   3  18
ATOM     18  O   UNL     1       3.107   7.600  17.438  0.00  0.00    +0.000 OA
BRANCH  18  19
ATOM     19  C   UNL     1       2.363   8.672  17.815  0.00  0.00    +0.000 C 
ATOM     20  C   UNL     1       1.800   8.452  19.188  0.00  0.00    +0.000 C 
ATOM     21  O   UNL     1       2.201   9.695  17.166  0.00  0.00    +0.000 OA
ENDBRANCH  18  19
ENDBRANCH   3  18
BRANCH   5  22
ATOM     22  O   UNL     1       5.860   4.502  16.439  0.00  0.00    +0.000 OA
BRANCH  22  23
ATOM     23  C   UNL     1       6.371   4.855  15.232  0.00  0.00    +0.000 C 
ATOM     24  C   UNL     1       5.597   4.213  14.121  0.00  0.00    +0.000 C 
ATOM     25  O   UNL     1       7.320   5.611  15.059  0.00  0.00    +0.000 OA
ENDBRANCH  22  23
ENDBRANCH   5  22
BRANCH   6  26
ATOM     26  O   UNL     1       4.188   3.338  18.425  0.00  0.00    +0.000 OA
BRANCH  26  27
ATOM     27  C   UNL     1       3.897   2.007  18.395  0.00  0.00    +0.000 C 
ATOM     28  C   UNL     1       4.477   1.308  19.583  0.00  0.00    +0.000 C 
ATOM     29  O   UNL     1       3.222   1.450  17.537  0.00  0.00    +0.000 OA
ENDBRANCH  26  27
ENDBRANCH   6  26
TORSDOF 11
ENDMDL
MODEL 3
REMARK VINA RESULT:      -6.6      2.631      6.452
REMARK  Name = 
REMARK  15 active torsions:
REMARK  status: ('A' for Active; 'I' for Inactive)
REMARK    1  A    between atoms: C_1  and  C_2
REMARK    2  A    between atoms: C_2  and  O_4
REMARK    3  A    between atoms: O_4  and  C_5
REMARK    4  A    between atoms: C_5  and  C_6
REMARK    5  A    between atoms: C_8  and  O_9
REMARK    6  A    between atoms: O_9  and  C_10
REMARK    7  A    between atoms: C_10  and  C_11
REMARK    8  A    between atoms: C_13  and  N_14
REMARK    9  A    between atoms: C_15  and  C_17
REMARK   10  A    between atoms: C_19  and  O_20
REMARK   11  A    between atoms: O_20  and  C_21
REMARK   12  A    between atoms: C_21  and  C_22
REMARK   13  A    between atoms: C_24  and  O_25
REMARK   14  A    between atoms: O_25  and  C_26
REMARK   15  A    between atoms: C_26  and  C_27
REMARK                            x       y       z     vdW  Elec       q    Type
REMARK                         _______ _______ _______ _____ _____    ______ ____
ROOT
ATOM      1  C   UNL     1       5.346   6.802  17.752  0.00  0.00    +0.000 C 
ATOM      2  O   UNL     1       3.985   6.916  17.315  0.00  0.00    +0.000 OA
ATOM      3  C   UNL     1       3.055   6.279  18.198  0.00  0.00    +0.000 C 
ATOM      4  C   UNL     1       3.349   4.758  18.251  0.00  0.00    +0.000 C 
ATOM      5  C   UNL     1       4.803   4.553  18.734  0.00  0.00    +0.000 C 
ATOM      6  C   UNL     1       5.781   5.323  17.813  0.00  0.00    +0.000 C 
ENDROOT
BRANCH   4   7
ATOM      7  N   UNL     1       2.389   4.055  19.108  0.00  0.00    +0.000 N 
ATOM      8  C   UNL     1       1.182   3.571  18.648  0.00  0.00    +0.000 C 
ATOM      9  O   UNL     1       0.801   3.715  17.488  0.00  0.00    +0.000 OA
ATOM     10  H   UNL     1       2.714   3.733  20.016  0.00  0.00    +0.000 HD
BRANCH   8  11
ATOM     11  C   UNL     1       0.384   2.794  19.676  0.00  0.00    +0.000 C 
ATOM     12 CL   UNL     1       1.163   2.939  21.265  0.00  0.00    +0.000 Cl
ENDBRANCH   8  11
ENDBRANCH   4   7
BRANCH   1  13
ATOM     13  C   UNL     1       6.207   7.649  16.806  0.00  0.00    +0.000 C 
BRANCH  13  14
ATOM     14  O   UNL     1       7.607   7.382  16.973  0.00  0.00    +0.000 OA
BRANCH  14  16
ATOM     15  C   UNL     1       8.276   9.363  18.034  0.00  0.00    +0.000 C 
ATOM     16  C   UNL     1       8.158   7.871  18.117  0.00  0.00    +0.000 C 
ATOM     17  O   UNL     1       8.544   7.202  19.063  0.00  0.00    +0.000 OA
ENDBRANCH  14  16
ENDBRANCH  13  14
ENDBRANCH   1  13
BRANCH   3  18
ATOM     18  O   UNL     1       3.136   6.815  19.532  0.00  0.00    +0.000 OA
BRANCH  18  19
ATOM     19  C   UNL     1       2.057   7.534  19.939  0.00  0.00    +0.000 C 
ATOM     20  C   UNL     1       1.742   8.603  18.935  0.00  0.00    +0.000 C 
ATOM     21  O   UNL     1       1.396   7.327  20.946  0.00  0.00    +0.000 OA
ENDBRANCH  18  19
ENDBRANCH   3  18
BRANCH   5  22
ATOM     22  O   UNL     1       5.168   3.153  18.737  0.00  0.00    +0.000 OA
BRANCH  22  23
ATOM     23  C   UNL     1       4.456   2.323  19.541  0.00  0.00    +0.000 C 
ATOM     24  C   UNL     1       3.915   1.164  18.759  0.00  0.00    +0.000 C 
ATOM     25  O   UNL     1       4.289   2.475  20.745  0.00  0.00    +0.000 OA
ENDBRANCH  22  23
ENDBRANCH   5  22
BRANCH   6  26
ATOM     26  O   UNL     1       5.740   4.776  16.472  0.00  0.00    +0.000 OA
BRANCH  26  27
ATOM     27  C   UNL     1       6.933   4.420  15.918  0.00  0.00    +0.000 C 
ATOM     28  C   UNL     1       6.852   4.430  14.425  0.00  0.00    +0.000 C 
ATOM     29  O   UNL     1       7.954   4.160  16.545  0.00  0.00    +0.000 OA
ENDBRANCH  26  27
ENDBRANCH   6  26
TORSDOF 11
ENDMDL
MODEL 4
REMARK VINA RESULT:      -6.4      2.161      4.704
REMARK  Name = 
REMARK  15 active torsions:
REMARK  status: ('A' for Active; 'I' for Inactive)
REMARK    1  A    between atoms: C_1  and  C_2
REMARK    2  A    between atoms: C_2  and  O_4
REMARK    3  A    between atoms: O_4  and  C_5
REMARK    4  A    between atoms: C_5  and  C_6
REMARK    5  A    between atoms: C_8  and  O_9
REMARK    6  A    between atoms: O_9  and  C_10
REMARK    7  A    between atoms: C_10  and  C_11
REMARK    8  A    between atoms: C_13  and  N_14
REMARK    9  A    between atoms: C_15  and  C_17
REMARK   10  A    between atoms: C_19  and  O_20
REMARK   11  A    between atoms: O_20  and  C_21
REMARK   12  A    between atoms: C_21  and  C_22
REMARK   13  A    between atoms: C_24  and  O_25
REMARK   14  A    between atoms: O_25  and  C_26
REMARK   15  A    between atoms: C_26  and  C_27
REMARK                            x       y       z     vdW  Elec       q    Type
REMARK                         _______ _______ _______ _____ _____    ______ ____
ROOT
ATOM      1  C   UNL     1       2.471   4.967  18.478  0.00  0.00    +0.000 C 
ATOM      2  O   UNL     1       2.880   6.005  19.379  0.00  0.00    +0.000 OA
ATOM      3  C   UNL     1       3.740   6.973  18.768  0.00  0.00    +0.000 C 
ATOM      4  C   UNL     1       5.050   6.285  18.306  0.00  0.00    +0.000 C 
ATOM      5  C   UNL     1       4.690   5.157  17.311  0.00  0.00    +0.000 C 
ATOM      6  C   UNL     1       3.690   4.172  17.966  0.00  0.00    +0.000 C 
ENDROOT
BRANCH   4   7
ATOM      7  N   UNL     1       5.985   7.249  17.717  0.00  0.00    +0.000 N 
ATOM      8  C   UNL     1       7.321   7.302  18.051  0.00  0.00    +0.000 C 
ATOM      9  O   UNL     1       7.832   6.564  18.891  0.00  0.00    +0.000 OA
ATOM     10  H   UNL     1       5.682   7.753  16.888  0.00  0.00    +0.000 HD
BRANCH   8  11
ATOM     11  C   UNL     1       8.128   8.310  17.255  0.00  0.00    +0.000 C 
ATOM     12 CL   UNL     1       8.666   9.618  18.328  0.00  0.00    +0.000 Cl
ENDBRANCH   8  11
ENDBRANCH   4   7
BRANCH   1  13
ATOM     13  C   UNL     1       1.443   4.096  19.212  0.00  0.00    +0.000 C 
BRANCH  13  14
ATOM     14  O   UNL     1       1.419   4.369  20.620  0.00  0.00    +0.000 OA
BRANCH  14  16
ATOM     15  C   UNL     1       1.259   2.041  20.842  0.00  0.00    +0.000 C 
ATOM     16  C   UNL     1       1.770   3.327  21.419  0.00  0.00    +0.000 C 
ATOM     17  O   UNL     1       2.376   3.413  22.477  0.00  0.00    +0.000 OA
ENDBRANCH  14  16
ENDBRANCH  13  14
ENDBRANCH   1  13
BRANCH   3  18
ATOM     18  O   UNL     1       3.116   7.598  17.631  0.00  0.00    +0.000 OA
BRANCH  18  19
ATOM     19  C   UNL     1       2.356   8.690  17.909  0.00  0.00    +0.000 C 
ATOM     20  C   UNL     1       1.728   8.549  19.264  0.00  0.00    +0.000 C 
ATOM     21  O   UNL     1       2.227   9.673  17.195  0.00  0.00    +0.000 OA
ENDBRANCH  18  19
ENDBRANCH   3  18
BRANCH   5  22
ATOM     22  O   UNL     1       5.864   4.424  16.894  0.00  0.00    +0.000 OA
BRANCH  22  23
ATOM     23  C   UNL     1       6.368   4.697  15.663  0.00  0.00    +0.000 C 
ATOM     24  C   UNL     1       5.519   4.077  14.594  0.00  0.00    +0.000 C 
ATOM     25  O   UNL     1       7.363   5.375  15.441  0.00  0.00    +0.000 OA
ENDBRANCH  22  23
ENDBRANCH   5  22
BRANCH   6  26
ATOM     26  O   UNL     1       4.311   3.507  19.094  0.00  0.00    +0.000 OA
BRANCH  26  27
ATOM     27  C   UNL     1       4.316   2.144  19.075  0.00  0.00    +0.000 C 
ATOM     28  C   UNL     1       3.600   1.625  17.868  0.00  0.00    +0.000 C 
ATOM     29  O   UNL     1       4.860   1.428  19.907  0.00  0.00    +0.000 OA
ENDBRANCH  26  27
ENDBRANCH   6  26
TORSDOF 11
ENDMDL
MODEL 5
REMARK VINA RESULT:      -6.3      2.645      6.387
REMARK  Name = 
REMARK  15 active torsions:
REMARK  status: ('A' for Active; 'I' for Inactive)
REMARK    1  A    between atoms: C_1  and  C_2
REMARK    2  A    between atoms: C_2  and  O_4
REMARK    3  A    between atoms: O_4  and  C_5
REMARK    4  A    between atoms: C_5  and  C_6
REMARK    5  A    between atoms: C_8  and  O_9
REMARK    6  A    between atoms: O_9  and  C_10
REMARK    7  A    between atoms: C_10  and  C_11
REMARK    8  A    between atoms: C_13  and  N_14
REMARK    9  A    between atoms: C_15  and  C_17
REMARK   10  A    between atoms: C_19  and  O_20
REMARK   11  A    between atoms: O_20  and  C_21
REMARK   12  A    between atoms: C_21  and  C_22
REMARK   13  A    between atoms: C_24  and  O_25
REMARK   14  A    between atoms: O_25  and  C_26
REMARK   15  A    between atoms: C_26  and  C_27
REMARK                            x       y       z     vdW  Elec       q    Type
REMARK                         _______ _______ _______ _____ _____    ______ ____
ROOT
ATOM      1  C   UNL     1       5.138   6.798  17.398  0.00  0.00    +0.000 C 
ATOM      2  O   UNL     1       3.789   7.101  17.017  0.00  0.00    +0.000 OA
ATOM      3  C   UNL     1       2.814   6.539  17.902  0.00  0.00    +0.000 C 
ATOM      4  C   UNL     1       2.917   4.992  17.872  0.00  0.00    +0.000 C 
ATOM      5  C   UNL     1       4.349   4.585  18.291  0.00  0.00    +0.000 C 
ATOM      6  C   UNL     1       5.387   5.276  17.373  0.00  0.00    +0.000 C 
ENDROOT
BRANCH   4   7
ATOM      7  N   UNL     1       1.903   4.369  18.728  0.00  0.00    +0.000 N 
ATOM      8  C   UNL     1       1.313   3.158  18.437  0.00  0.00    +0.000 C 
ATOM      9  O   UNL     1       1.568   2.515  17.421  0.00  0.00    +0.000 OA
ATOM     10  H   UNL     1       1.786   4.742  19.667  0.00  0.00    +0.000 HD
BRANCH   8  11
ATOM     11  C   UNL     1       0.361   2.651  19.503  0.00  0.00    +0.000 C 
ATOM     12 CL   UNL     1       1.149   2.742  21.093  0.00  0.00    +0.000 Cl
ENDBRANCH   8  11
ENDBRANCH   4   7
BRANCH   1  13
ATOM     13  C   UNL     1       6.069   7.581  16.463  0.00  0.00    +0.000 C 
BRANCH  13  14
ATOM     14  O   UNL     1       7.452   7.331  16.753  0.00  0.00    +0.000 OA
BRANCH  14  16
ATOM     15  C   UNL     1       8.297   6.971  18.910  0.00  0.00    +0.000 C 
ATOM     16  C   UNL     1       7.939   7.969  17.851  0.00  0.00    +0.000 C 
ATOM     17  O   UNL     1       8.036   9.180  17.986  0.00  0.00    +0.000 OA
ENDBRANCH  14  16
ENDBRANCH  13  14
ENDBRANCH   1  13
BRANCH   3  18
ATOM     18  O   UNL     1       3.002   6.991  19.256  0.00  0.00    +0.000 OA
BRANCH  18  19
ATOM     19  C   UNL     1       2.043   7.831  19.728  0.00  0.00    +0.000 C 
ATOM     20  C   UNL     1       1.477   7.297  21.011  0.00  0.00    +0.000 C 
ATOM     21  O   UNL     1       1.710   8.893  19.224  0.00  0.00    +0.000 OA
ENDBRANCH  18  19
ENDBRANCH   3  18
BRANCH   5  22
ATOM     22  O   UNL     1       4.536   3.153  18.215  0.00  0.00    +0.000 OA
BRANCH  22  23
ATOM     23  C   UNL     1       4.588   2.466  19.384  0.00  0.00    +0.000 C 
ATOM     24  C   UNL     1       4.161   1.043  19.181  0.00  0.00    +0.000 C 
ATOM     25  O   UNL     1       4.954   2.925  20.459  0.00  0.00    +0.000 OA
ENDBRANCH  22  23
ENDBRANCH   5  22
BRANCH   6  26
ATOM     26  O   UNL     1       5.237   4.808  16.010  0.00  0.00    +0.000 OA
BRANCH  26  27
ATOM     27  C   UNL     1       6.355   4.314  15.405  0.00  0.00    +0.000 C 
ATOM     28  C   UNL     1       6.071   3.938  13.986  0.00  0.00    +0.000 C 
ATOM     29  O   UNL     1       7.458   4.218  15.929  0.00  0.00    +0.000 OA
ENDBRANCH  26  27
ENDBRANCH   6  26
TORSDOF 11
ENDMDL
MODEL 6
REMARK VINA RESULT:      -6.3      5.972      9.098
REMARK  Name = 
REMARK  15 active torsions:
REMARK  status: ('A' for Active; 'I' for Inactive)
REMARK    1  A    between atoms: C_1  and  C_2
REMARK    2  A    between atoms: C_2  and  O_4
REMARK    3  A    between atoms: O_4  and  C_5
REMARK    4  A    between atoms: C_5  and  C_6
REMARK    5  A    between atoms: C_8  and  O_9
REMARK    6  A    between atoms: O_9  and  C_10
REMARK    7  A    between atoms: C_10  and  C_11
REMARK    8  A    between atoms: C_13  and  N_14
REMARK    9  A    between atoms: C_15  and  C_17
REMARK   10  A    between atoms: C_19  and  O_20
REMARK   11  A    between atoms: O_20  and  C_21
REMARK   12  A    between atoms: C_21  and  C_22
REMARK   13  A    between atoms: C_24  and  O_25
REMARK   14  A    between atoms: O_25  and  C_26
REMARK   15  A    between atoms: C_26  and  C_27
REMARK                            x       y       z     vdW  Elec       q    Type
REMARK                         _______ _______ _______ _____ _____    ______ ____
ROOT
ATOM      1  C   UNL     1      -2.562  12.289  20.149  0.00  0.00    +0.000 C 
ATOM      2  O   UNL     1      -2.157  12.442  18.782  0.00  0.00    +0.000 OA
ATOM      3  C   UNL     1      -1.509  11.280  18.253  0.00  0.00    +0.000 C 
ATOM      4  C   UNL     1      -0.204  11.009  19.046  0.00  0.00    +0.000 C 
ATOM      5  C   UNL     1      -0.564  10.814  20.537  0.00  0.00    +0.000 C 
ATOM      6  C   UNL     1      -1.342  12.047  21.060  0.00  0.00    +0.000 C 
ENDROOT
BRANCH   4   7
ATOM      7  N   UNL     1       0.521   9.854  18.508  0.00  0.00    +0.000 N 
ATOM      8  C   UNL     1       1.805   9.935  18.014  0.00  0.00    +0.000 C 
ATOM      9  O   UNL     1       2.437  10.988  17.957  0.00  0.00    +0.000 OA
ATOM     10  H   UNL     1       0.142   8.929  18.697  0.00  0.00    +0.000 HD
BRANCH   8  11
ATOM     11  C   UNL     1       2.402   8.605  17.595  0.00  0.00    +0.000 C 
ATOM     12 CL   UNL     1       2.369   7.481  18.970  0.00  0.00    +0.000 Cl
ENDBRANCH   8  11
ENDBRANCH   4   7
BRANCH   1  13
ATOM     13  C   UNL     1      -3.370  13.535  20.534  0.00  0.00    +0.000 C 
BRANCH  13  14
ATOM     14  O   UNL     1      -4.774  13.358  20.295  0.00  0.00    +0.000 OA
BRANCH  14  16
ATOM     15  C   UNL     1      -6.489  11.766  20.456  0.00  0.00    +0.000 C 
ATOM     16  C   UNL     1      -5.410  12.529  21.166  0.00  0.00    +0.000 C 
ATOM     17  O   UNL     1      -5.177  12.438  22.362  0.00  0.00    +0.000 OA
ENDBRANCH  14  16
ENDBRANCH  13  14
ENDBRANCH   1  13
BRANCH   3  18
ATOM     18  O   UNL     1      -2.353  10.116  18.335  0.00  0.00    +0.000 OA
BRANCH  18  19
ATOM     19  C   UNL     1      -3.426  10.114  17.502  0.00  0.00    +0.000 C 
ATOM     20  C   UNL     1      -2.994   9.772  16.106  0.00  0.00    +0.000 C 
ATOM     21  O   UNL     1      -4.587  10.313  17.828  0.00  0.00    +0.000 OA
ENDBRANCH  18  19
ENDBRANCH   3  18
BRANCH   5  22
ATOM     22  O   UNL     1       0.619  10.629  21.348  0.00  0.00    +0.000 OA
BRANCH  22  23
ATOM     23  C   UNL     1       0.557   9.708  22.343  0.00  0.00    +0.000 C 
ATOM     24  C   UNL     1       0.969   8.357  21.841  0.00  0.00    +0.000 C 
ATOM     25  O   UNL     1       0.232   9.939  23.502  0.00  0.00    +0.000 OA
ENDBRANCH  22  23
ENDBRANCH   5  22
BRANCH   6  26
ATOM     26  O   UNL     1      -0.497  13.225  21.018  0.00  0.00    +0.000 OA
BRANCH  26  27
ATOM     27  C   UNL     1      -0.104  13.740  22.217  0.00  0.00    +0.000 C 
ATOM     28  C   UNL     1       0.803  14.913  22.021  0.00  0.00    +0.000 C 
ATOM     29  O   UNL     1      -0.464  13.331  23.315  0.00  0.00    +0.000 OA
ENDBRANCH  26  27
ENDBRANCH   6  26
TORSDOF 11
ENDMDL
MODEL 7
REMARK VINA RESULT:      -6.2      3.329      5.771
REMARK  Name = 
REMARK  15 active torsions:
REMARK  status: ('A' for Active; 'I' for Inactive)
REMARK    1  A    between atoms: C_1  and  C_2
REMARK    2  A    between atoms: C_2  and  O_4
REMARK    3  A    between atoms: O_4  and  C_5
REMARK    4  A    between atoms: C_5  and  C_6
REMARK    5  A    between atoms: C_8  and  O_9
REMARK    6  A    between atoms: O_9  and  C_10
REMARK    7  A    between atoms: C_10  and  C_11
REMARK    8  A    between atoms: C_13  and  N_14
REMARK    9  A    between atoms: C_15  and  C_17
REMARK   10  A    between atoms: C_19  and  O_20
REMARK   11  A    between atoms: O_20  and  C_21
REMARK   12  A    between atoms: C_21  and  C_22
REMARK   13  A    between atoms: C_24  and  O_25
REMARK   14  A    between atoms: O_25  and  C_26
REMARK   15  A    between atoms: C_26  and  C_27
REMARK                            x       y       z     vdW  Elec       q    Type
REMARK                         _______ _______ _______ _____ _____    ______ ____
ROOT
ATOM      1  C   UNL     1       3.535   4.788  18.561  0.00  0.00    +0.000 C 
ATOM      2  O   UNL     1       3.483   5.000  19.978  0.00  0.00    +0.000 OA
ATOM      3  C   UNL     1       2.339   5.754  20.393  0.00  0.00    +0.000 C 
ATOM      4  C   UNL     1       2.395   7.169  19.763  0.00  0.00    +0.000 C 
ATOM      5  C   UNL     1       2.435   7.023  18.224  0.00  0.00    +0.000 C 
ATOM      6  C   UNL     1       3.630   6.130  17.808  0.00  0.00    +0.000 C 
ENDROOT
BRANCH   4   7
ATOM      7  N   UNL     1       1.266   7.997  20.199  0.00  0.00    +0.000 N 
ATOM      8  C   UNL     1       1.263   8.703  21.383  0.00  0.00    +0.000 C 
ATOM      9  O   UNL     1       2.197   8.673  22.183  0.00  0.00    +0.000 OA
ATOM     10  H   UNL     1       0.551   8.220  19.511  0.00  0.00    +0.000 HD
BRANCH   8  11
ATOM     11  C   UNL     1       0.037   9.568  21.596  0.00  0.00    +0.000 C 
ATOM     12 CL   UNL     1      -0.322   9.672  23.332  0.00  0.00    +0.000 Cl
ENDBRANCH   8  11
ENDBRANCH   4   7
BRANCH   1  13
ATOM     13  C   UNL     1       4.714   3.847  18.277  0.00  0.00    +0.000 C 
BRANCH  13  14
ATOM     14  O   UNL     1       5.290   3.332  19.485  0.00  0.00    +0.000 OA
BRANCH  14  16
ATOM     15  C   UNL     1       3.890   1.553  18.874  0.00  0.00    +0.000 C 
ATOM     16  C   UNL     1       4.743   2.172  19.940  0.00  0.00    +0.000 C 
ATOM     17  O   UNL     1       4.883   1.711  21.063  0.00  0.00    +0.000 OA
ENDBRANCH  14  16
ENDBRANCH  13  14
ENDBRANCH   1  13
BRANCH   3  18
ATOM     18  O   UNL     1       1.110   5.117  19.998  0.00  0.00    +0.000 OA
BRANCH  18  19
ATOM     19  C   UNL     1       0.982   3.816  20.370  0.00  0.00    +0.000 C 
ATOM     20  C   UNL     1       0.518   2.991  19.205  0.00  0.00    +0.000 C 
ATOM     21  O   UNL     1       1.245   3.356  21.471  0.00  0.00    +0.000 OA
ENDBRANCH  18  19
ENDBRANCH   3  18
BRANCH   5  22
ATOM     22  O   UNL     1       2.561   8.307  17.572  0.00  0.00    +0.000 OA
BRANCH  22  23
ATOM     23  C   UNL     1       1.540   9.189  17.726  0.00  0.00    +0.000 C 
ATOM     24  C   UNL     1       2.065  10.555  18.054  0.00  0.00    +0.000 C 
ATOM     25  O   UNL     1       0.351   8.925  17.595  0.00  0.00    +0.000 OA
ENDBRANCH  22  23
ENDBRANCH   5  22
BRANCH   6  26
ATOM     26  O   UNL     1       4.880   6.771  18.166  0.00  0.00    +0.000 OA
BRANCH  26  27
ATOM     27  C   UNL     1       5.824   6.863  17.187  0.00  0.00    +0.000 C 
ATOM     28  C   UNL     1       7.200   6.867  17.773  0.00  0.00    +0.000 C 
ATOM     29  O   UNL     1       5.593   6.903  15.984  0.00  0.00    +0.000 OA
ENDBRANCH  26  27
ENDBRANCH   6  26
TORSDOF 11
ENDMDL
MODEL 8
REMARK VINA RESULT:      -6.2      3.071      6.035
REMARK  Name = 
REMARK  15 active torsions:
REMARK  status: ('A' for Active; 'I' for Inactive)
REMARK    1  A    between atoms: C_1  and  C_2
REMARK    2  A    between atoms: C_2  and  O_4
REMARK    3  A    between atoms: O_4  and  C_5
REMARK    4  A    between atoms: C_5  and  C_6
REMARK    5  A    between atoms: C_8  and  O_9
REMARK    6  A    between atoms: O_9  and  C_10
REMARK    7  A    between atoms: C_10  and  C_11
REMARK    8  A    between atoms: C_13  and  N_14
REMARK    9  A    between atoms: C_15  and  C_17
REMARK   10  A    between atoms: C_19  and  O_20
REMARK   11  A    between atoms: O_20  and  C_21
REMARK   12  A    between atoms: C_21  and  C_22
REMARK   13  A    between atoms: C_24  and  O_25
REMARK   14  A    between atoms: O_25  and  C_26
REMARK   15  A    between atoms: C_26  and  C_27
REMARK                            x       y       z     vdW  Elec       q    Type
REMARK                         _______ _______ _______ _____ _____    ______ ____
ROOT
ATOM      1  C   UNL     1       3.937   4.752  18.109  0.00  0.00    +0.000 C 
ATOM      2  O   UNL     1       3.763   4.614  19.526  0.00  0.00    +0.000 OA
ATOM      3  C   UNL     1       2.548   5.201  20.004  0.00  0.00    +0.000 C 
ATOM      4  C   UNL     1       2.569   6.728  19.734  0.00  0.00    +0.000 C 
ATOM      5  C   UNL     1       2.736   6.958  18.214  0.00  0.00    +0.000 C 
ATOM      6  C   UNL     1       4.010   6.239  17.707  0.00  0.00    +0.000 C 
ENDROOT
BRANCH   4   7
ATOM      7  N   UNL     1       1.362   7.381  20.252  0.00  0.00    +0.000 N 
ATOM      8  C   UNL     1       1.371   8.221  21.344  0.00  0.00    +0.000 C 
ATOM      9  O   UNL     1       2.387   8.470  21.991  0.00  0.00    +0.000 OA
ATOM     10  H   UNL     1       0.534   7.377  19.662  0.00  0.00    +0.000 HD
BRANCH   8  11
ATOM     11  C   UNL     1       0.033   8.865  21.652  0.00  0.00    +0.000 C 
ATOM     12 CL   UNL     1      -0.386  10.010  20.362  0.00  0.00    +0.000 Cl
ENDBRANCH   8  11
ENDBRANCH   4   7
BRANCH   1  13
ATOM     13  C   UNL     1       5.188   3.954  17.717  0.00  0.00    +0.000 C 
BRANCH  13  14
ATOM     14  O   UNL     1       5.215   3.658  16.313  0.00  0.00    +0.000 OA
BRANCH  14  16
ATOM     15  C   UNL     1       6.165   3.952  14.190  0.00  0.00    +0.000 C 
ATOM     16  C   UNL     1       6.372   3.980  15.675  0.00  0.00    +0.000 C 
ATOM     17  O   UNL     1       7.441   4.216  16.216  0.00  0.00    +0.000 OA
ENDBRANCH  14  16
ENDBRANCH  13  14
ENDBRANCH   1  13
BRANCH   3  18
ATOM     18  O   UNL     1       1.393   4.631  19.361  0.00  0.00    +0.000 OA
BRANCH  18  19
ATOM     19  C   UNL     1       1.001   3.419  19.835  0.00  0.00    +0.000 C 
ATOM     20  C   UNL     1       0.776   2.469  18.695  0.00  0.00    +0.000 C 
ATOM     21  O   UNL     1       0.887   3.112  21.012  0.00  0.00    +0.000 OA
ENDBRANCH  18  19
ENDBRANCH   3  18
BRANCH   5  22
ATOM     22  O   UNL     1       2.836   8.366  17.899  0.00  0.00    +0.000 OA
BRANCH  22  23
ATOM     23  C   UNL     1       1.677   9.053  17.731  0.00  0.00    +0.000 C 
ATOM     24  C   UNL     1       1.902  10.523  17.917  0.00  0.00    +0.000 C 
ATOM     25  O   UNL     1       0.595   8.556  17.444  0.00  0.00    +0.000 OA
ENDBRANCH  22  23
ENDBRANCH   5  22
BRANCH   6  26
ATOM     26  O   UNL     1       5.189   6.822  18.317  0.00  0.00    +0.000 OA
BRANCH  26  27
ATOM     27  C   UNL     1       6.230   7.110  17.486  0.00  0.00    +0.000 C 
ATOM     28  C   UNL     1       7.534   7.015  18.213  0.00  0.00    +0.000 C 
ATOM     29  O   UNL     1       6.131   7.378  16.295  0.00  0.00    +0.000 OA
ENDBRANCH  26  27
ENDBRANCH   6  26
TORSDOF 11
ENDMDL
MODEL 9
REMARK VINA RESULT:      -6.2      2.452      4.837
REMARK  Name = 
REMARK  15 active torsions:
REMARK  status: ('A' for Active; 'I' for Inactive)
REMARK    1  A    between atoms: C_1  and  C_2
REMARK    2  A    between atoms: C_2  and  O_4
REMARK    3  A    between atoms: O_4  and  C_5
REMARK    4  A    between atoms: C_5  and  C_6
REMARK    5  A    between atoms: C_8  and  O_9
REMARK    6  A    between atoms: O_9  and  C_10
REMARK    7  A    between atoms: C_10  and  C_11
REMARK    8  A    between atoms: C_13  and  N_14
REMARK    9  A    between atoms: C_15  and  C_17
REMARK   10  A    between atoms: C_19  and  O_20
REMARK   11  A    between atoms: O_20  and  C_21
REMARK   12  A    between atoms: C_21  and  C_22
REMARK   13  A    between atoms: C_24  and  O_25
REMARK   14  A    between atoms: O_25  and  C_26
REMARK   15  A    between atoms: C_26  and  C_27
REMARK                            x       y       z     vdW  Elec       q    Type
REMARK                         _______ _______ _______ _____ _____    ______ ____
ROOT
ATOM      1  C   UNL     1       3.305   6.410  18.508  0.00  0.00    +0.000 C 
ATOM      2  O   UNL     1       2.588   5.193  18.259  0.00  0.00    +0.000 OA
ATOM      3  C   UNL     1       2.986   4.120  19.119  0.00  0.00    +0.000 C 
ATOM      4  C   UNL     1       4.478   3.782  18.869  0.00  0.00    +0.000 C 
ATOM      5  C   UNL     1       5.323   5.049  19.136  0.00  0.00    +0.000 C 
ATOM      6  C   UNL     1       4.815   6.219  18.257  0.00  0.00    +0.000 C 
ENDROOT
BRANCH   4   7
ATOM      7  N   UNL     1       4.919   2.653  19.695  0.00  0.00    +0.000 N 
ATOM      8  C   UNL     1       4.544   1.349  19.450  0.00  0.00    +0.000 C 
ATOM      9  O   UNL     1       3.786   1.030  18.536  0.00  0.00    +0.000 OA
ATOM     10  H   UNL     1       5.689   2.812  20.340  0.00  0.00    +0.000 HD
BRANCH   8  11
ATOM     11  C   UNL     1       5.188   0.327  20.366  0.00  0.00    +0.000 C 
ATOM     12 CL   UNL     1       5.560   1.084  21.930  0.00  0.00    +0.000 Cl
ENDBRANCH   8  11
ENDBRANCH   4   7
BRANCH   1  13
ATOM     13  C   UNL     1       2.678   7.503  17.632  0.00  0.00    +0.000 C 
BRANCH  13  14
ATOM     14  O   UNL     1       1.414   7.943  18.149  0.00  0.00    +0.000 OA
BRANCH  14  16
ATOM     15  C   UNL     1       1.748  10.263  18.201  0.00  0.00    +0.000 C 
ATOM     16  C   UNL     1       1.470   9.014  18.984  0.00  0.00    +0.000 C 
ATOM     17  O   UNL     1       1.356   8.976  20.200  0.00  0.00    +0.000 OA
ENDBRANCH  14  16
ENDBRANCH  13  14
ENDBRANCH   1  13
BRANCH   3  18
ATOM     18  O   UNL     1       2.812   4.458  20.508  0.00  0.00    +0.000 OA
BRANCH  18  19
ATOM     19  C   UNL     1       2.107   3.559  21.244  0.00  0.00    +0.000 C 
ATOM     20  C   UNL     1       0.908   3.091  20.473  0.00  0.00    +0.000 C 
ATOM     21  O   UNL     1       2.411   3.145  22.352  0.00  0.00    +0.000 OA
ENDBRANCH  18  19
ENDBRANCH   3  18
BRANCH   5  22
ATOM     22  O   UNL     1       6.722   4.823  18.850  0.00  0.00    +0.000 OA
BRANCH  22  23
ATOM     23  C   UNL     1       7.631   5.465  19.628  0.00  0.00    +0.000 C 
ATOM     24  C   UNL     1       8.243   6.616  18.887  0.00  0.00    +0.000 C 
ATOM     25  O   UNL     1       7.907   5.171  20.785  0.00  0.00    +0.000 OA
ENDBRANCH  22  23
ENDBRANCH   5  22
BRANCH   6  26
ATOM     26  O   UNL     1       5.013   5.912  16.855  0.00  0.00    +0.000 OA
BRANCH  26  27
ATOM     27  C   UNL     1       6.187   6.323  16.297  0.00  0.00    +0.000 C 
ATOM     28  C   UNL     1       6.773   5.248  15.438  0.00  0.00    +0.000 C 
ATOM     29  O   UNL     1       6.689   7.431  16.442  0.00  0.00    +0.000 OA
ENDBRANCH  26  27
ENDBRANCH   6  26
TORSDOF 11
ENDMDL
