MODEL 1
REMARK VINA RESULT:      -6.5      0.000      0.000
REMARK  Name = 
REMARK  13 active torsions:
REMARK  status: ('A' for Active; 'I' for Inactive)
REMARK    1  A    between atoms: C_1  and  C_2
REMARK    2  A    between atoms: C_2  and  N_3
REMARK    3  A    between atoms: N_3  and  C_4
REMARK    4  A    between atoms: C_4  and  C_5
REMARK    5  A    between atoms: C_6  and  C_8
REMARK    6  A    between atoms: N_12  and  C_13
REMARK    7  A    between atoms: C_18  and  N_19
REMARK    8  A    between atoms: C_24  and  C_25
REMARK    9  A    between atoms: C_25  and  O_27
REMARK   10  A    between atoms: N_29  and  C_30
REMARK   11  A    between atoms: C_30  and  C_31
REMARK   12  A    between atoms: C_30  and  C_32
REMARK   13  A    between atoms: C_30  and  C_33
REMARK                            x       y       z     vdW  Elec       q    Type
REMARK                         _______ _______ _______ _____ _____    ______ ____
ROOT
ATOM      1  C   UNL     1      -4.526  12.548  19.747  0.00  0.00    +0.000 A 
ATOM      2  N   UNL     1      -3.229  12.635  20.236  0.00  0.00    +0.000 NA
ATOM      3  C   UNL     1      -2.182  11.902  19.711  0.00  0.00    +0.000 A 
ATOM      4  C   UNL     1      -2.411  11.113  18.575  0.00  0.00    +0.000 A 
ATOM      5  C   UNL     1      -3.684  11.054  18.011  0.00  0.00    +0.000 A 
ATOM      6  C   UNL     1      -4.721  11.770  18.604  0.00  0.00    +0.000 A 
ATOM      7  C   UNL     1      -1.331  10.354  17.917  0.00  0.00    +0.000 A 
ATOM      8  O   UNL     1      -1.542   9.669  16.917  0.00  0.00    +0.000 OA
ATOM      9  C   UNL     1       0.018  10.435  18.470  0.00  0.00    +0.000 A 
ATOM     10  C   UNL     1       0.152  11.175  19.580  0.00  0.00    +0.000 A 
ATOM     11  N   UNL     1      -0.841  11.876  20.265  0.00  0.00    +0.000 N 
ENDROOT
BRANCH   1  16
ATOM     12  C   UNL     1      -5.889  14.920  22.213  0.00  0.00    +0.000 C 
ATOM     13  C   UNL     1      -7.267  14.327  22.528  0.00  0.00    +0.000 C 
ATOM     14  C   UNL     1      -7.327  12.846  22.165  0.00  0.00    +0.000 C 
ATOM     15  C   UNL     1      -6.869  12.566  20.732  0.00  0.00    +0.000 C 
ATOM     16  N   UNL     1      -5.562  13.177  20.441  0.00  0.00    +0.000 N 
ATOM     17  C   UNL     1      -5.464  14.605  20.762  0.00  0.00    +0.000 C 
BRANCH  12  19
ATOM     18  N   UNL     1      -4.252  15.246  24.130  0.00  0.00    +0.000 N 
ATOM     19  C   UNL     1      -4.880  14.385  23.228  0.00  0.00    +0.000 C 
ATOM     20  O   UNL     1      -4.699  13.171  23.329  0.00  0.00    +0.000 OA
BRANCH  18  22
ATOM     21  C   UNL     1      -1.843  15.196  24.886  0.00  0.00    +0.000 C 
ATOM     22  C   UNL     1      -3.250  14.613  24.997  0.00  0.00    +0.000 C 
ENDBRANCH  18  22
BRANCH  18  23
ATOM     23  C   UNL     1      -4.222  16.709  24.020  0.00  0.00    +0.000 C 
ATOM     24  C   UNL     1      -5.061  17.441  25.058  0.00  0.00    +0.000 C 
ENDBRANCH  18  23
ENDBRANCH  12  19
ENDBRANCH   1  16
BRANCH  11  25
ATOM     25  C   UNL     1      -0.486  12.770  21.425  0.00  0.00    +0.000 C 
ATOM     26  C   UNL     1      -0.931  12.072  22.719  0.00  0.00    +0.000 C 
ATOM     27  C   UNL     1       0.995  13.158  21.399  0.00  0.00    +0.000 C 
ATOM     28  C   UNL     1      -1.228  14.144  21.391  0.00  0.00    +0.000 C 
ENDBRANCH  11  25
BRANCH   6  29
ATOM     29  N   UNL     1      -5.977  11.736  17.900  0.00  0.00    +0.000 N 
ATOM     30  O   UNL     1      -6.743  10.788  18.129  0.00  0.00    +0.000 OA
ATOM     31  O   UNL     1      -6.226  12.694  17.154  0.00  0.00    +0.000 OA
ENDBRANCH   6  29
BRANCH   9  32
ATOM     32  C   UNL     1       1.220   9.794  17.890  0.00  0.00    +0.000 C 
ATOM     33  O   UNL     1       1.403   8.586  17.885  0.00  0.00    +0.000 OA
BRANCH  32  34
ATOM     34  O   UNL     1       2.111  10.664  17.374  0.00  0.00    +0.000 OA
ATOM     35  H   UNL     1       2.286  11.449  17.941  0.00  0.00    +0.000 HD
ENDBRANCH  32  34
ENDBRANCH   9  32
TORSDOF 8
ENDMDL
MODEL 2
REMARK VINA RESULT:      -6.5      2.107      4.989
REMARK  Name = 
REMARK  13 active torsions:
REMARK  status: ('A' for Active; 'I' for Inactive)
REMARK    1  A    between atoms: C_1  and  C_2
REMARK    2  A    between atoms: C_2  and  N_3
REMARK    3  A    between atoms: N_3  and  C_4
REMARK    4  A    between atoms: C_4  and  C_5
REMARK    5  A    between atoms: C_6  and  C_8
REMARK    6  A    between atoms: N_12  and  C_13
REMARK    7  A    between atoms: C_18  and  N_19
REMARK    8  A    between atoms: C_24  and  C_25
REMARK    9  A    between atoms: C_25  and  O_27
REMARK   10  A    between atoms: N_29  and  C_30
REMARK   11  A    between atoms: C_30  and  C_31
REMARK   12  A    between atoms: C_30  and  C_32
REMARK   13  A    between atoms: C_30  and  C_33
REMARK                            x       y       z     vdW  Elec       q    Type
REMARK                         _______ _______ _______ _____ _____    ______ ____
ROOT
ATOM      1  C   UNL     1      -2.405  12.342  21.458  0.00  0.00    +0.000 A 
ATOM      2  N   UNL     1      -3.503  12.410  20.611  0.00  0.00    +0.000 NA
ATOM      3  C   UNL     1      -3.462  11.979  19.299  0.00  0.00    +0.000 A 
ATOM      4  C   UNL     1      -2.297  11.356  18.828  0.00  0.00    +0.000 A 
ATOM      5  C   UNL     1      -1.197  11.204  19.669  0.00  0.00    +0.000 A 
ATOM      6  C   UNL     1      -1.267  11.700  20.969  0.00  0.00    +0.000 A 
ATOM      7  C   UNL     1      -2.198  10.810  17.461  0.00  0.00    +0.000 A 
ATOM      8  O   UNL     1      -1.175  10.259  17.060  0.00  0.00    +0.000 OA
ATOM      9  C   UNL     1      -3.356  10.924  16.577  0.00  0.00    +0.000 A 
ATOM     10  C   UNL     1      -4.417  11.568  17.082  0.00  0.00    +0.000 A 
ATOM     11  N   UNL     1      -4.547  12.140  18.349  0.00  0.00    +0.000 N 
ENDROOT
BRANCH   1  16
ATOM     12  C   UNL     1      -4.177  13.753  24.363  0.00  0.00    +0.000 C 
ATOM     13  C   UNL     1      -3.143  14.716  24.956  0.00  0.00    +0.000 C 
ATOM     14  C   UNL     1      -2.090  15.102  23.921  0.00  0.00    +0.000 C 
ATOM     15  C   UNL     1      -1.455  13.889  23.237  0.00  0.00    +0.000 C 
ATOM     16  N   UNL     1      -2.468  12.961  22.709  0.00  0.00    +0.000 N 
ATOM     17  C   UNL     1      -3.493  12.552  23.675  0.00  0.00    +0.000 C 
BRANCH  12  19
ATOM     18  N   UNL     1      -6.460  14.427  23.470  0.00  0.00    +0.000 N 
ATOM     19  C   UNL     1      -5.069  14.528  23.393  0.00  0.00    +0.000 C 
ATOM     20  O   UNL     1      -4.567  15.333  22.609  0.00  0.00    +0.000 OA
BRANCH  18  22
ATOM     21  C   UNL     1      -7.914  16.417  22.919  0.00  0.00    +0.000 C 
ATOM     22  C   UNL     1      -7.194  15.163  22.432  0.00  0.00    +0.000 C 
ENDBRANCH  18  22
BRANCH  18  23
ATOM     23  C   UNL     1      -7.193  13.394  24.211  0.00  0.00    +0.000 C 
ATOM     24  C   UNL     1      -7.822  12.316  23.341  0.00  0.00    +0.000 C 
ENDBRANCH  18  23
ENDBRANCH  12  19
ENDBRANCH   1  16
BRANCH  11  25
ATOM     25  C   UNL     1      -5.867  12.710  18.800  0.00  0.00    +0.000 C 
ATOM     26  C   UNL     1      -5.595  14.060  19.481  0.00  0.00    +0.000 C 
ATOM     27  C   UNL     1      -6.869  12.781  17.644  0.00  0.00    +0.000 C 
ATOM     28  C   UNL     1      -6.589  11.821  19.861  0.00  0.00    +0.000 C 
ENDBRANCH  11  25
BRANCH   6  29
ATOM     29  N   UNL     1      -0.127  11.411  21.802  0.00  0.00    +0.000 N 
ATOM     30  O   UNL     1      -0.256  10.544  22.678  0.00  0.00    +0.000 OA
ATOM     31  O   UNL     1       0.923  12.016  21.541  0.00  0.00    +0.000 OA
ENDBRANCH   6  29
BRANCH   9  32
ATOM     32  C   UNL     1      -3.443  10.368  15.208  0.00  0.00    +0.000 C 
ATOM     33  O   UNL     1      -2.477  10.239  14.471  0.00  0.00    +0.000 OA
BRANCH  32  34
ATOM     34  O   UNL     1      -4.692  10.027  14.832  0.00  0.00    +0.000 OA
ATOM     35  H   UNL     1      -4.798   9.078  14.595  0.00  0.00    +0.000 HD
ENDBRANCH  32  34
ENDBRANCH   9  32
TORSDOF 8
ENDMDL
MODEL 3
REMARK VINA RESULT:      -6.4      2.245      7.100
REMARK  Name = 
REMARK  13 active torsions:
REMARK  status: ('A' for Active; 'I' for Inactive)
REMARK    1  A    between atoms: C_1  and  C_2
REMARK    2  A    between atoms: C_2  and  N_3
REMARK    3  A    between atoms: N_3  and  C_4
REMARK    4  A    between atoms: C_4  and  C_5
REMARK    5  A    between atoms: C_6  and  C_8
REMARK    6  A    between atoms: N_12  and  C_13
REMARK    7  A    between atoms: C_18  and  N_19
REMARK    8  A    between atoms: C_24  and  C_25
REMARK    9  A    between atoms: C_25  and  O_27
REMARK   10  A    between atoms: N_29  and  C_30
REMARK   11  A    between atoms: C_30  and  C_31
REMARK   12  A    between atoms: C_30  and  C_32
REMARK   13  A    between atoms: C_30  and  C_33
REMARK                            x       y       z     vdW  Elec       q    Type
REMARK                         _______ _______ _______ _____ _____    ______ ____
ROOT
ATOM      1  C   UNL     1      -2.645  12.184  19.621  0.00  0.00    +0.000 A 
ATOM      2  N   UNL     1      -2.628  12.798  20.866  0.00  0.00    +0.000 NA
ATOM      3  C   UNL     1      -3.777  13.217  21.509  0.00  0.00    +0.000 A 
ATOM      4  C   UNL     1      -5.020  12.925  20.930  0.00  0.00    +0.000 A 
ATOM      5  C   UNL     1      -5.083  12.246  19.715  0.00  0.00    +0.000 A 
ATOM      6  C   UNL     1      -3.897  11.887  19.079  0.00  0.00    +0.000 A 
ATOM      7  C   UNL     1      -6.293  13.280  21.586  0.00  0.00    +0.000 A 
ATOM      8  O   UNL     1      -7.378  13.013  21.074  0.00  0.00    +0.000 OA
ATOM      9  C   UNL     1      -6.248  13.956  22.881  0.00  0.00    +0.000 A 
ATOM     10  C   UNL     1      -5.025  14.240  23.350  0.00  0.00    +0.000 A 
ATOM     11  N   UNL     1      -3.794  13.965  22.752  0.00  0.00    +0.000 N 
ENDROOT
BRANCH   1  16
ATOM     12  C   UNL     1       0.486  10.348  18.996  0.00  0.00    +0.000 C 
ATOM     13  C   UNL     1       1.365  11.400  18.312  0.00  0.00    +0.000 C 
ATOM     14  C   UNL     1       0.871  12.813  18.612  0.00  0.00    +0.000 C 
ATOM     15  C   UNL     1      -0.619  12.997  18.320  0.00  0.00    +0.000 C 
ATOM     16  N   UNL     1      -1.439  11.953  18.956  0.00  0.00    +0.000 N 
ATOM     17  C   UNL     1      -1.008  10.578  18.682  0.00  0.00    +0.000 C 
BRANCH  12  19
ATOM     18  N   UNL     1       1.104   9.215  21.186  0.00  0.00    +0.000 N 
ATOM     19  C   UNL     1       0.760  10.381  20.499  0.00  0.00    +0.000 C 
ATOM     20  O   UNL     1       0.787  11.459  21.093  0.00  0.00    +0.000 OA
BRANCH  18  22
ATOM     21  C   UNL     1      -0.040   9.447  23.426  0.00  0.00    +0.000 C 
ATOM     22  C   UNL     1       1.265   9.374  22.638  0.00  0.00    +0.000 C 
ENDBRANCH  18  22
BRANCH  18  23
ATOM     23  C   UNL     1       0.939   7.851  20.671  0.00  0.00    +0.000 C 
ATOM     24  C   UNL     1       2.177   7.271  20.003  0.00  0.00    +0.000 C 
ENDBRANCH  18  23
ENDBRANCH  12  19
ENDBRANCH   1  16
BRANCH  11  25
ATOM     25  C   UNL     1      -2.507  14.236  23.488  0.00  0.00    +0.000 C 
ATOM     26  C   UNL     1      -1.696  12.933  23.524  0.00  0.00    +0.000 C 
ATOM     27  C   UNL     1      -1.758  15.427  22.885  0.00  0.00    +0.000 C 
ATOM     28  C   UNL     1      -2.729  14.655  24.977  0.00  0.00    +0.000 C 
ENDBRANCH  11  25
BRANCH   6  29
ATOM     29  N   UNL     1      -4.052  11.101  17.882  0.00  0.00    +0.000 N 
ATOM     30  O   UNL     1      -4.331   9.901  18.010  0.00  0.00    +0.000 OA
ATOM     31  O   UNL     1      -3.949  11.701  16.802  0.00  0.00    +0.000 OA
ENDBRANCH   6  29
BRANCH   9  32
ATOM     32  C   UNL     1      -7.428  14.316  23.698  0.00  0.00    +0.000 C 
ATOM     33  O   UNL     1      -7.916  15.436  23.719  0.00  0.00    +0.000 OA
BRANCH  32  34
ATOM     34  O   UNL     1      -7.916  13.299  24.436  0.00  0.00    +0.000 OA
ATOM     35  H   UNL     1      -7.726  12.406  24.070  0.00  0.00    +0.000 HD
ENDBRANCH  32  34
ENDBRANCH   9  32
TORSDOF 8
ENDMDL
MODEL 4
REMARK VINA RESULT:      -6.3      0.419      1.017
REMARK  Name = 
REMARK  13 active torsions:
REMARK  status: ('A' for Active; 'I' for Inactive)
REMARK    1  A    between atoms: C_1  and  C_2
REMARK    2  A    between atoms: C_2  and  N_3
REMARK    3  A    between atoms: N_3  and  C_4
REMARK    4  A    between atoms: C_4  and  C_5
REMARK    5  A    between atoms: C_6  and  C_8
REMARK    6  A    between atoms: N_12  and  C_13
REMARK    7  A    between atoms: C_18  and  N_19
REMARK    8  A    between atoms: C_24  and  C_25
REMARK    9  A    between atoms: C_25  and  O_27
REMARK   10  A    between atoms: N_29  and  C_30
REMARK   11  A    between atoms: C_30  and  C_31
REMARK   12  A    between atoms: C_30  and  C_32
REMARK   13  A    between atoms: C_30  and  C_33
REMARK                            x       y       z     vdW  Elec       q    Type
REMARK                         _______ _______ _______ _____ _____    ______ ____
ROOT
ATOM      1  C   UNL     1      -4.635  12.538  19.727  0.00  0.00    +0.000 A 
ATOM      2  N   UNL     1      -3.335  12.719  20.179  0.00  0.00    +0.000 NA
ATOM      3  C   UNL     1      -2.263  12.005  19.678  0.00  0.00    +0.000 A 
ATOM      4  C   UNL     1      -2.476  11.131  18.603  0.00  0.00    +0.000 A 
ATOM      5  C   UNL     1      -3.756  10.974  18.073  0.00  0.00    +0.000 A 
ATOM      6  C   UNL     1      -4.814  11.677  18.643  0.00  0.00    +0.000 A 
ATOM      7  C   UNL     1      -1.374  10.383  17.970  0.00  0.00    +0.000 A 
ATOM      8  O   UNL     1      -1.570   9.624  17.023  0.00  0.00    +0.000 OA
ATOM      9  C   UNL     1      -0.019  10.565  18.485  0.00  0.00    +0.000 A 
ATOM     10  C   UNL     1       0.101  11.383  19.540  0.00  0.00    +0.000 A 
ATOM     11  N   UNL     1      -0.912  12.079  20.202  0.00  0.00    +0.000 N 
ENDROOT
BRANCH   1  16
ATOM     12  C   UNL     1      -6.086  15.112  21.927  0.00  0.00    +0.000 C 
ATOM     13  C   UNL     1      -7.369  14.443  22.430  0.00  0.00    +0.000 C 
ATOM     14  C   UNL     1      -7.294  12.925  22.288  0.00  0.00    +0.000 C 
ATOM     15  C   UNL     1      -6.900  12.478  20.879  0.00  0.00    +0.000 C 
ATOM     16  N   UNL     1      -5.687  13.162  20.403  0.00  0.00    +0.000 N 
ATOM     17  C   UNL     1      -5.721  14.624  20.508  0.00  0.00    +0.000 C 
BRANCH  12  19
ATOM     18  N   UNL     1      -4.696  15.730  23.963  0.00  0.00    +0.000 N 
ATOM     19  C   UNL     1      -4.964  14.834  22.926  0.00  0.00    +0.000 C 
ATOM     20  O   UNL     1      -4.360  13.762  22.888  0.00  0.00    +0.000 OA
BRANCH  18  22
ATOM     21  C   UNL     1      -2.192  15.845  24.269  0.00  0.00    +0.000 C 
ATOM     22  C   UNL     1      -3.544  15.381  24.805  0.00  0.00    +0.000 C 
ENDBRANCH  18  22
BRANCH  18  23
ATOM     23  C   UNL     1      -5.191  17.110  24.037  0.00  0.00    +0.000 C 
ATOM     24  C   UNL     1      -4.997  17.782  25.388  0.00  0.00    +0.000 C 
ENDBRANCH  18  23
ENDBRANCH  12  19
ENDBRANCH   1  16
BRANCH  11  25
ATOM     25  C   UNL     1      -0.577  13.064  21.292  0.00  0.00    +0.000 C 
ATOM     26  C   UNL     1      -1.220  14.412  20.930  0.00  0.00    +0.000 C 
ATOM     27  C   UNL     1      -0.975  12.529  22.670  0.00  0.00    +0.000 C 
ATOM     28  C   UNL     1       0.955  13.332  21.428  0.00  0.00    +0.000 C 
ENDBRANCH  11  25
BRANCH   6  29
ATOM     29  N   UNL     1      -6.082  11.536  17.972  0.00  0.00    +0.000 N 
ATOM     30  O   UNL     1      -6.390  12.393  17.132  0.00  0.00    +0.000 OA
ATOM     31  O   UNL     1      -6.750  10.529  18.247  0.00  0.00    +0.000 OA
ENDBRANCH   6  29
BRANCH   9  32
ATOM     32  C   UNL     1       1.201   9.945  17.920  0.00  0.00    +0.000 C 
ATOM     33  O   UNL     1       1.393   8.739  17.894  0.00  0.00    +0.000 OA
BRANCH  32  34
ATOM     34  O   UNL     1       2.098  10.832  17.444  0.00  0.00    +0.000 OA
ATOM     35  H   UNL     1       1.872  11.203  16.562  0.00  0.00    +0.000 HD
ENDBRANCH  32  34
ENDBRANCH   9  32
TORSDOF 8
ENDMDL
MODEL 5
REMARK VINA RESULT:      -6.3      0.900      1.232
REMARK  Name = 
REMARK  13 active torsions:
REMARK  status: ('A' for Active; 'I' for Inactive)
REMARK    1  A    between atoms: C_1  and  C_2
REMARK    2  A    between atoms: C_2  and  N_3
REMARK    3  A    between atoms: N_3  and  C_4
REMARK    4  A    between atoms: C_4  and  C_5
REMARK    5  A    between atoms: C_6  and  C_8
REMARK    6  A    between atoms: N_12  and  C_13
REMARK    7  A    between atoms: C_18  and  N_19
REMARK    8  A    between atoms: C_24  and  C_25
REMARK    9  A    between atoms: C_25  and  O_27
REMARK   10  A    between atoms: N_29  and  C_30
REMARK   11  A    between atoms: C_30  and  C_31
REMARK   12  A    between atoms: C_30  and  C_32
REMARK   13  A    between atoms: C_30  and  C_33
REMARK                            x       y       z     vdW  Elec       q    Type
REMARK                         _______ _______ _______ _____ _____    ______ ____
ROOT
ATOM      1  C   UNL     1      -4.636  12.512  19.740  0.00  0.00    +0.000 A 
ATOM      2  N   UNL     1      -3.345  12.663  20.229  0.00  0.00    +0.000 NA
ATOM      3  C   UNL     1      -2.267  11.965  19.719  0.00  0.00    +0.000 A 
ATOM      4  C   UNL     1      -2.461  11.144  18.600  0.00  0.00    +0.000 A 
ATOM      5  C   UNL     1      -3.729  11.020  18.035  0.00  0.00    +0.000 A 
ATOM      6  C   UNL     1      -4.796  11.703  18.613  0.00  0.00    +0.000 A 
ATOM      7  C   UNL     1      -1.349  10.418  17.958  0.00  0.00    +0.000 A 
ATOM      8  O   UNL     1      -1.528   9.706  16.972  0.00  0.00    +0.000 OA
ATOM      9  C   UNL     1      -0.004  10.568  18.511  0.00  0.00    +0.000 A 
ATOM     10  C   UNL     1       0.096  11.335  19.605  0.00  0.00    +0.000 A 
ATOM     11  N   UNL     1      -0.927  12.006  20.276  0.00  0.00    +0.000 N 
ENDROOT
BRANCH   1  16
ATOM     12  C   UNL     1      -6.219  15.220  21.671  0.00  0.00    +0.000 C 
ATOM     13  C   UNL     1      -7.358  14.497  22.398  0.00  0.00    +0.000 C 
ATOM     14  C   UNL     1      -7.099  12.995  22.476  0.00  0.00    +0.000 C 
ATOM     15  C   UNL     1      -6.769  12.377  21.116  0.00  0.00    +0.000 C 
ATOM     16  N   UNL     1      -5.700  13.110  20.421  0.00  0.00    +0.000 N 
ATOM     17  C   UNL     1      -5.915  14.557  20.310  0.00  0.00    +0.000 C 
BRANCH  12  19
ATOM     18  N   UNL     1      -4.301  16.428  22.822  0.00  0.00    +0.000 N 
ATOM     19  C   UNL     1      -4.990  15.238  22.579  0.00  0.00    +0.000 C 
ATOM     20  O   UNL     1      -4.666  14.220  23.192  0.00  0.00    +0.000 OA
BRANCH  18  22
ATOM     21  C   UNL     1      -3.202  16.895  25.047  0.00  0.00    +0.000 C 
ATOM     22  C   UNL     1      -3.095  16.290  23.650  0.00  0.00    +0.000 C 
ENDBRANCH  18  22
BRANCH  18  23
ATOM     23  C   UNL     1      -4.445  17.662  22.041  0.00  0.00    +0.000 C 
ATOM     24  C   UNL     1      -3.536  17.753  20.824  0.00  0.00    +0.000 C 
ENDBRANCH  18  23
ENDBRANCH  12  19
ENDBRANCH   1  16
BRANCH  11  25
ATOM     25  C   UNL     1      -0.612  12.938  21.418  0.00  0.00    +0.000 C 
ATOM     26  C   UNL     1      -1.128  12.293  22.714  0.00  0.00    +0.000 C 
ATOM     27  C   UNL     1       0.874  13.304  21.447  0.00  0.00    +0.000 C 
ATOM     28  C   UNL     1      -1.331  14.319  21.299  0.00  0.00    +0.000 C 
ENDBRANCH  11  25
BRANCH   6  29
ATOM     29  N   UNL     1      -6.049  11.602  17.909  0.00  0.00    +0.000 N 
ATOM     30  O   UNL     1      -6.302  12.461  17.053  0.00  0.00    +0.000 OA
ATOM     31  O   UNL     1      -6.761  10.623  18.174  0.00  0.00    +0.000 OA
ENDBRANCH   6  29
BRANCH   9  32
ATOM     32  C   UNL     1       1.224   9.966  17.945  0.00  0.00    +0.000 C 
ATOM     33  O   UNL     1       1.440   8.764  17.930  0.00  0.00    +0.000 OA
BRANCH  32  34
ATOM     34  O   UNL     1       2.101  10.866  17.455  0.00  0.00    +0.000 OA
ATOM     35  H   UNL     1       2.858  10.469  16.969  0.00  0.00    +0.000 HD
ENDBRANCH  32  34
ENDBRANCH   9  32
TORSDOF 8
ENDMDL
MODEL 6
REMARK VINA RESULT:      -6.2      2.779      4.033
REMARK  Name = 
REMARK  13 active torsions:
REMARK  status: ('A' for Active; 'I' for Inactive)
REMARK    1  A    between atoms: C_1  and  C_2
REMARK    2  A    between atoms: C_2  and  N_3
REMARK    3  A    between atoms: N_3  and  C_4
REMARK    4  A    between atoms: C_4  and  C_5
REMARK    5  A    between atoms: C_6  and  C_8
REMARK    6  A    between atoms: N_12  and  C_13
REMARK    7  A    between atoms: C_18  and  N_19
REMARK    8  A    between atoms: C_24  and  C_25
REMARK    9  A    between atoms: C_25  and  O_27
REMARK   10  A    between atoms: N_29  and  C_30
REMARK   11  A    between atoms: C_30  and  C_31
REMARK   12  A    between atoms: C_30  and  C_32
REMARK   13  A    between atoms: C_30  and  C_33
REMARK                            x       y       z     vdW  Elec       q    Type
REMARK                         _______ _______ _______ _____ _____    ______ ____
ROOT
ATOM      1  C   UNL     1      -3.687  13.021  22.015  0.00  0.00    +0.000 A 
ATOM      2  N   UNL     1      -2.992  12.494  20.935  0.00  0.00    +0.000 NA
ATOM      3  C   UNL     1      -1.884  11.683  21.084  0.00  0.00    +0.000 A 
ATOM      4  C   UNL     1      -1.500  11.292  22.374  0.00  0.00    +0.000 A 
ATOM      5  C   UNL     1      -2.215  11.742  23.482  0.00  0.00    +0.000 A 
ATOM      6  C   UNL     1      -3.295  12.599  23.287  0.00  0.00    +0.000 A 
ATOM      7  C   UNL     1      -0.369  10.376  22.612  0.00  0.00    +0.000 A 
ATOM      8  O   UNL     1      -0.044  10.034  23.748  0.00  0.00    +0.000 OA
ATOM      9  C   UNL     1       0.369   9.861  21.461  0.00  0.00    +0.000 A 
ATOM     10  C   UNL     1      -0.029  10.310  20.263  0.00  0.00    +0.000 A 
ATOM     11  N   UNL     1      -1.061  11.208  19.986  0.00  0.00    +0.000 N 
ENDROOT
BRANCH   1  16
ATOM     12  C   UNL     1      -5.005  16.459  21.894  0.00  0.00    +0.000 C 
ATOM     13  C   UNL     1      -6.517  16.247  22.024  0.00  0.00    +0.000 C 
ATOM     14  C   UNL     1      -6.833  14.888  22.644  0.00  0.00    +0.000 C 
ATOM     15  C   UNL     1      -6.126  13.731  21.934  0.00  0.00    +0.000 C 
ATOM     16  N   UNL     1      -4.683  13.975  21.788  0.00  0.00    +0.000 N 
ATOM     17  C   UNL     1      -4.333  15.264  21.182  0.00  0.00    +0.000 C 
BRANCH  12  19
ATOM     18  N   UNL     1      -3.096  17.106  23.442  0.00  0.00    +0.000 N 
ATOM     19  C   UNL     1      -4.420  16.690  23.286  0.00  0.00    +0.000 C 
ATOM     20  O   UNL     1      -5.148  16.617  24.277  0.00  0.00    +0.000 OA
BRANCH  18  22
ATOM     21  C   UNL     1      -1.333  16.491  25.142  0.00  0.00    +0.000 C 
ATOM     22  C   UNL     1      -2.639  17.217  24.834  0.00  0.00    +0.000 C 
ENDBRANCH  18  22
BRANCH  18  23
ATOM     23  C   UNL     1      -2.067  17.062  22.396  0.00  0.00    +0.000 C 
ATOM     24  C   UNL     1      -1.733  18.411  21.777  0.00  0.00    +0.000 C 
ENDBRANCH  18  23
ENDBRANCH  12  19
ENDBRANCH   1  16
BRANCH  11  25
ATOM     25  C   UNL     1      -1.460  11.501  18.562  0.00  0.00    +0.000 C 
ATOM     26  C   UNL     1      -0.857  12.858  18.168  0.00  0.00    +0.000 C 
ATOM     27  C   UNL     1      -1.081  10.350  17.627  0.00  0.00    +0.000 C 
ATOM     28  C   UNL     1      -3.005  11.637  18.374  0.00  0.00    +0.000 C 
ENDBRANCH  11  25
BRANCH   6  29
ATOM     29  N   UNL     1      -4.041  12.935  24.473  0.00  0.00    +0.000 N 
ATOM     30  O   UNL     1      -3.703  13.949  25.100  0.00  0.00    +0.000 OA
ATOM     31  O   UNL     1      -5.007  12.209  24.750  0.00  0.00    +0.000 OA
ENDBRANCH   6  29
BRANCH   9  32
ATOM     32  C   UNL     1       1.478   8.883  21.524  0.00  0.00    +0.000 C 
ATOM     33  O   UNL     1       1.619   7.971  20.723  0.00  0.00    +0.000 OA
BRANCH  32  34
ATOM     34  O   UNL     1       2.321   9.075  22.558  0.00  0.00    +0.000 OA
ATOM     35  H   UNL     1       3.180   8.603  22.473  0.00  0.00    +0.000 HD
ENDBRANCH  32  34
ENDBRANCH   9  32
TORSDOF 8
ENDMDL
MODEL 7
REMARK VINA RESULT:      -6.2      2.300      3.977
REMARK  Name = 
REMARK  13 active torsions:
REMARK  status: ('A' for Active; 'I' for Inactive)
REMARK    1  A    between atoms: C_1  and  C_2
REMARK    2  A    between atoms: C_2  and  N_3
REMARK    3  A    between atoms: N_3  and  C_4
REMARK    4  A    between atoms: C_4  and  C_5
REMARK    5  A    between atoms: C_6  and  C_8
REMARK    6  A    between atoms: N_12  and  C_13
REMARK    7  A    between atoms: C_18  and  N_19
REMARK    8  A    between atoms: C_24  and  C_25
REMARK    9  A    between atoms: C_25  and  O_27
REMARK   10  A    between atoms: N_29  and  C_30
REMARK   11  A    between atoms: C_30  and  C_31
REMARK   12  A    between atoms: C_30  and  C_32
REMARK   13  A    between atoms: C_30  and  C_33
REMARK                            x       y       z     vdW  Elec       q    Type
REMARK                         _______ _______ _______ _____ _____    ______ ____
ROOT
ATOM      1  C   UNL     1      -4.271  13.320  21.032  0.00  0.00    +0.000 A 
ATOM      2  N   UNL     1      -3.166  12.765  20.403  0.00  0.00    +0.000 NA
ATOM      3  C   UNL     1      -3.244  12.125  19.180  0.00  0.00    +0.000 A 
ATOM      4  C   UNL     1      -4.469  12.119  18.498  0.00  0.00    +0.000 A 
ATOM      5  C   UNL     1      -5.587  12.728  19.064  0.00  0.00    +0.000 A 
ATOM      6  C   UNL     1      -5.472  13.317  20.321  0.00  0.00    +0.000 A 
ATOM      7  C   UNL     1      -4.618  11.516  17.160  0.00  0.00    +0.000 A 
ATOM      8  O   UNL     1      -5.695  11.522  16.567  0.00  0.00    +0.000 OA
ATOM      9  C   UNL     1      -3.447  10.908  16.533  0.00  0.00    +0.000 A 
ATOM     10  C   UNL     1      -2.322  10.914  17.262  0.00  0.00    +0.000 A 
ATOM     11  N   UNL     1      -2.139  11.432  18.545  0.00  0.00    +0.000 N 
ENDROOT
BRANCH   1  16
ATOM     12  C   UNL     1      -2.668  15.284  23.705  0.00  0.00    +0.000 C 
ATOM     13  C   UNL     1      -3.124  14.560  24.976  0.00  0.00    +0.000 C 
ATOM     14  C   UNL     1      -3.566  13.132  24.672  0.00  0.00    +0.000 C 
ATOM     15  C   UNL     1      -4.592  13.054  23.539  0.00  0.00    +0.000 C 
ATOM     16  N   UNL     1      -4.149  13.788  22.343  0.00  0.00    +0.000 N 
ATOM     17  C   UNL     1      -3.729  15.171  22.588  0.00  0.00    +0.000 C 
BRANCH  12  19
ATOM     18  N   UNL     1      -0.516  15.393  22.358  0.00  0.00    +0.000 N 
ATOM     19  C   UNL     1      -1.323  14.707  23.268  0.00  0.00    +0.000 C 
ATOM     20  O   UNL     1      -0.891  13.685  23.802  0.00  0.00    +0.000 OA
BRANCH  18  22
ATOM     21  C   UNL     1       1.989  15.524  22.064  0.00  0.00    +0.000 C 
ATOM     22  C   UNL     1       0.714  14.691  21.966  0.00  0.00    +0.000 C 
ENDBRANCH  18  22
BRANCH  18  23
ATOM     23  C   UNL     1      -0.957  16.506  21.509  0.00  0.00    +0.000 C 
ATOM     24  C   UNL     1      -1.210  16.134  20.055  0.00  0.00    +0.000 C 
ENDBRANCH  18  23
ENDBRANCH  12  19
ENDBRANCH   1  16
BRANCH  11  25
ATOM     25  C   UNL     1      -0.765  11.473  19.165  0.00  0.00    +0.000 C 
ATOM     26  C   UNL     1      -0.124  12.824  18.813  0.00  0.00    +0.000 C 
ATOM     27  C   UNL     1      -0.821  11.177  20.666  0.00  0.00    +0.000 C 
ATOM     28  C   UNL     1       0.193  10.374  18.606  0.00  0.00    +0.000 C 
ENDBRANCH  11  25
BRANCH   6  29
ATOM     29  N   UNL     1      -6.646  14.011  20.787  0.00  0.00    +0.000 N 
ATOM     30  O   UNL     1      -7.480  13.365  21.436  0.00  0.00    +0.000 OA
ATOM     31  O   UNL     1      -6.707  15.227  20.550  0.00  0.00    +0.000 OA
ENDBRANCH   6  29
BRANCH   9  32
ATOM     32  C   UNL     1      -3.412  10.325  15.173  0.00  0.00    +0.000 C 
ATOM     33  O   UNL     1      -2.387  10.199  14.520  0.00  0.00    +0.000 OA
BRANCH  32  34
ATOM     34  O   UNL     1      -4.620   9.953  14.703  0.00  0.00    +0.000 OA
ATOM     35  H   UNL     1      -4.608   9.614  13.780  0.00  0.00    +0.000 HD
ENDBRANCH  32  34
ENDBRANCH   9  32
TORSDOF 8
ENDMDL
MODEL 8
REMARK VINA RESULT:      -6.1      1.899      7.022
REMARK  Name = 
REMARK  13 active torsions:
REMARK  status: ('A' for Active; 'I' for Inactive)
REMARK    1  A    between atoms: C_1  and  C_2
REMARK    2  A    between atoms: C_2  and  N_3
REMARK    3  A    between atoms: N_3  and  C_4
REMARK    4  A    between atoms: C_4  and  C_5
REMARK    5  A    between atoms: C_6  and  C_8
REMARK    6  A    between atoms: N_12  and  C_13
REMARK    7  A    between atoms: C_18  and  N_19
REMARK    8  A    between atoms: C_24  and  C_25
REMARK    9  A    between atoms: C_25  and  O_27
REMARK   10  A    between atoms: N_29  and  C_30
REMARK   11  A    between atoms: C_30  and  C_31
REMARK   12  A    between atoms: C_30  and  C_32
REMARK   13  A    between atoms: C_30  and  C_33
REMARK                            x       y       z     vdW  Elec       q    Type
REMARK                         _______ _______ _______ _____ _____    ______ ____
ROOT
ATOM      1  C   UNL     1      -4.488  12.100  19.121  0.00  0.00    +0.000 A 
ATOM      2  N   UNL     1      -3.720  12.661  20.132  0.00  0.00    +0.000 NA
ATOM      3  C   UNL     1      -4.207  13.625  20.994  0.00  0.00    +0.000 A 
ATOM      4  C   UNL     1      -5.560  13.983  20.913  0.00  0.00    +0.000 A 
ATOM      5  C   UNL     1      -6.384  13.390  19.958  0.00  0.00    +0.000 A 
ATOM      6  C   UNL     1      -5.836  12.460  19.077  0.00  0.00    +0.000 A 
ATOM      7  C   UNL     1      -6.171  14.954  21.840  0.00  0.00    +0.000 A 
ATOM      8  O   UNL     1      -7.361  15.256  21.765  0.00  0.00    +0.000 OA
ATOM      9  C   UNL     1      -5.334  15.556  22.875  0.00  0.00    +0.000 A 
ATOM     10  C   UNL     1      -4.042  15.197  22.864  0.00  0.00    +0.000 A 
ATOM     11  N   UNL     1      -3.406  14.319  21.985  0.00  0.00    +0.000 N 
ENDROOT
BRANCH   1  16
ATOM     12  C   UNL     1      -1.751   9.979  17.866  0.00  0.00    +0.000 C 
ATOM     13  C   UNL     1      -1.968  10.008  16.350  0.00  0.00    +0.000 C 
ATOM     14  C   UNL     1      -2.805  11.214  15.933  0.00  0.00    +0.000 C 
ATOM     15  C   UNL     1      -4.108  11.338  16.727  0.00  0.00    +0.000 C 
ATOM     16  N   UNL     1      -3.877  11.269  18.179  0.00  0.00    +0.000 N 
ATOM     17  C   UNL     1      -3.089  10.116  18.625  0.00  0.00    +0.000 C 
BRANCH  12  19
ATOM     18  N   UNL     1       0.538  10.785  18.624  0.00  0.00    +0.000 N 
ATOM     19  C   UNL     1      -0.771  11.089  18.242  0.00  0.00    +0.000 C 
ATOM     20  O   UNL     1      -1.097  12.268  18.103  0.00  0.00    +0.000 OA
BRANCH  18  22
ATOM     21  C   UNL     1       2.462  12.320  18.059  0.00  0.00    +0.000 C 
ATOM     22  C   UNL     1       1.350  11.939  19.033  0.00  0.00    +0.000 C 
ENDBRANCH  18  22
BRANCH  18  23
ATOM     23  C   UNL     1       1.017   9.452  19.009  0.00  0.00    +0.000 C 
ATOM     24  C   UNL     1       1.772   8.710  17.916  0.00  0.00    +0.000 C 
ENDBRANCH  18  23
ENDBRANCH  12  19
ENDBRANCH   1  16
BRANCH  11  25
ATOM     25  C   UNL     1      -1.968  13.926  22.204  0.00  0.00    +0.000 C 
ATOM     26  C   UNL     1      -1.160  14.372  20.976  0.00  0.00    +0.000 C 
ATOM     27  C   UNL     1      -1.437  14.465  23.534  0.00  0.00    +0.000 C 
ATOM     28  C   UNL     1      -1.765  12.382  22.324  0.00  0.00    +0.000 C 
ENDBRANCH  11  25
BRANCH   6  29
ATOM     29  N   UNL     1      -6.776  11.822  18.190  0.00  0.00    +0.000 N 
ATOM     30  O   UNL     1      -7.068  10.638  18.413  0.00  0.00    +0.000 OA
ATOM     31  O   UNL     1      -7.269  12.526  17.297  0.00  0.00    +0.000 OA
ENDBRANCH   6  29
BRANCH   9  32
ATOM     32  C   UNL     1      -5.807  16.489  23.921  0.00  0.00    +0.000 C 
ATOM     33  O   UNL     1      -5.185  16.723  24.946  0.00  0.00    +0.000 OA
BRANCH  32  34
ATOM     34  O   UNL     1      -7.000  17.057  23.653  0.00  0.00    +0.000 OA
ATOM     35  H   UNL     1      -7.547  16.560  23.003  0.00  0.00    +0.000 HD
ENDBRANCH  32  34
ENDBRANCH   9  32
TORSDOF 8
ENDMDL
MODEL 9
REMARK VINA RESULT:      -6.1      2.456      4.954
REMARK  Name = 
REMARK  13 active torsions:
REMARK  status: ('A' for Active; 'I' for Inactive)
REMARK    1  A    between atoms: C_1  and  C_2
REMARK    2  A    between atoms: C_2  and  N_3
REMARK    3  A    between atoms: N_3  and  C_4
REMARK    4  A    between atoms: C_4  and  C_5
REMARK    5  A    between atoms: C_6  and  C_8
REMARK    6  A    between atoms: N_12  and  C_13
REMARK    7  A    between atoms: C_18  and  N_19
REMARK    8  A    between atoms: C_24  and  C_25
REMARK    9  A    between atoms: C_25  and  O_27
REMARK   10  A    between atoms: N_29  and  C_30
REMARK   11  A    between atoms: C_30  and  C_31
REMARK   12  A    between atoms: C_30  and  C_32
REMARK   13  A    between atoms: C_30  and  C_33
REMARK                            x       y       z     vdW  Elec       q    Type
REMARK                         _______ _______ _______ _____ _____    ______ ____
ROOT
ATOM      1  C   UNL     1      -3.185  13.086  21.596  0.00  0.00    +0.000 A 
ATOM      2  N   UNL     1      -4.174  12.938  20.633  0.00  0.00    +0.000 NA
ATOM      3  C   UNL     1      -3.931  12.383  19.392  0.00  0.00    +0.000 A 
ATOM      4  C   UNL     1      -2.659  11.856  19.124  0.00  0.00    +0.000 A 
ATOM      5  C   UNL     1      -1.658  11.921  20.091  0.00  0.00    +0.000 A 
ATOM      6  C   UNL     1      -1.935  12.536  21.310  0.00  0.00    +0.000 A 
ATOM      7  C   UNL     1      -2.340  11.188  17.848  0.00  0.00    +0.000 A 
ATOM      8  O   UNL     1      -1.223  10.724  17.626  0.00  0.00    +0.000 OA
ATOM      9  C   UNL     1      -3.388  11.074  16.837  0.00  0.00    +0.000 A 
ATOM     10  C   UNL     1      -4.564  11.637  17.147  0.00  0.00    +0.000 A 
ATOM     11  N   UNL     1      -4.905  12.316  18.318  0.00  0.00    +0.000 N 
ENDROOT
BRANCH   1  16
ATOM     12  C   UNL     1      -2.794  15.967  23.859  0.00  0.00    +0.000 C 
ATOM     13  C   UNL     1      -3.242  15.400  25.210  0.00  0.00    +0.000 C 
ATOM     14  C   UNL     1      -3.163  13.876  25.224  0.00  0.00    +0.000 C 
ATOM     15  C   UNL     1      -3.882  13.232  24.036  0.00  0.00    +0.000 C 
ATOM     16  N   UNL     1      -3.463  13.819  22.754  0.00  0.00    +0.000 N 
ATOM     17  C   UNL     1      -3.537  15.282  22.691  0.00  0.00    +0.000 C 
BRANCH  12  19
ATOM     18  N   UNL     1      -0.559  16.543  22.795  0.00  0.00    +0.000 N 
ATOM     19  C   UNL     1      -1.279  15.806  23.737  0.00  0.00    +0.000 C 
ATOM     20  O   UNL     1      -0.670  15.107  24.547  0.00  0.00    +0.000 OA
BRANCH  18  22
ATOM     21  C   UNL     1       1.792  17.454  22.644  0.00  0.00    +0.000 C 
ATOM     22  C   UNL     1       0.877  16.236  22.733  0.00  0.00    +0.000 C 
ENDBRANCH  18  22
BRANCH  18  23
ATOM     23  C   UNL     1      -1.144  17.264  21.658  0.00  0.00    +0.000 C 
ATOM     24  C   UNL     1      -1.058  16.529  20.329  0.00  0.00    +0.000 C 
ENDBRANCH  18  23
ENDBRANCH  12  19
ENDBRANCH   1  16
BRANCH  11  25
ATOM     25  C   UNL     1      -6.322  12.771  18.555  0.00  0.00    +0.000 C 
ATOM     26  C   UNL     1      -7.015  11.727  19.445  0.00  0.00    +0.000 C 
ATOM     27  C   UNL     1      -6.366  14.197  19.109  0.00  0.00    +0.000 C 
ATOM     28  C   UNL     1      -7.166  12.857  17.243  0.00  0.00    +0.000 C 
ENDBRANCH  11  25
BRANCH   6  29
ATOM     29  N   UNL     1      -0.880  12.470  22.289  0.00  0.00    +0.000 N 
ATOM     30  O   UNL     1      -1.040  11.721  23.263  0.00  0.00    +0.000 OA
ATOM     31  O   UNL     1       0.143  13.130  22.053  0.00  0.00    +0.000 OA
ENDBRANCH   6  29
BRANCH   9  32
ATOM     32  C   UNL     1      -3.252  10.375  15.539  0.00  0.00    +0.000 C 
ATOM     33  O   UNL     1      -3.673  10.825  14.484  0.00  0.00    +0.000 OA
BRANCH  32  34
ATOM     34  O   UNL     1      -2.629   9.182  15.621  0.00  0.00    +0.000 OA
ATOM     35  H   UNL     1      -1.708   9.228  15.963  0.00  0.00    +0.000 HD
ENDBRANCH  32  34
ENDBRANCH   9  32
TORSDOF 8
ENDMDL
