MODEL 1
REMARK VINA RESULT:      -9.0      0.000      0.000
REMARK  Name = 
REMARK  7 active torsions:
REMARK  status: ('A' for Active; 'I' for Inactive)
REMARK    1  A    between atoms: C_5  and  C_6
REMARK    2  A    between atoms: C_6  and  O_7
REMARK    3  A    between atoms: C_6  and  C_27
REMARK    4  A    between atoms: O_7  and  C_8
REMARK    5  A    between atoms: N_15  and  C_16
REMARK    6  A    between atoms: C_16  and  C_17
REMARK    7  A    between atoms: C_17  and  N_18
REMARK                            x       y       z     vdW  Elec       q    Type
REMARK                         _______ _______ _______ _____ _____    ______ ____
ROOT
ATOM      1  C   UNL     1       4.010   4.414  16.662  0.00  0.00    +0.000 C 
ATOM      2  C   UNL     1       3.997   5.435  17.761  0.00  0.00    +0.000 C 
ATOM      3  C   UNL     1       3.974   4.764  19.159  0.00  0.00    +0.000 C 
ATOM      4  C   UNL     1       4.621   3.399  19.421  0.00  0.00    +0.000 C 
ATOM      5  C   UNL     1       3.561   2.369  18.992  0.00  0.00    +0.000 C 
ATOM      6  C   UNL     1       2.422   3.237  18.410  0.00  0.00    +0.000 C 
ATOM      7  C   UNL     1       2.753   3.505  16.905  0.00  0.00    +0.000 C 
ATOM      8  N   UNL     1       2.583   4.356  19.329  0.00  0.00    +0.000 NA
ENDROOT
BRANCH   1   9
ATOM      9  O   UNL     1       5.229   3.701  16.752  0.00  0.00    +0.000 OA
BRANCH   9  10
ATOM     10  C   UNL     1       6.505   4.314  16.437  0.00  0.00    +0.000 C 
BRANCH  10  15
ATOM     11  F   UNL     1       8.736   8.837  19.199  0.00  0.00    +0.000 F 
ATOM     12  C   UNL     1       8.215   7.766  18.565  0.00  0.00    +0.000 A 
ATOM     13  C   UNL     1       7.645   7.920  17.310  0.00  0.00    +0.000 A 
ATOM     14  C   UNL     1       7.097   6.801  16.654  0.00  0.00    +0.000 A 
ATOM     15  C   UNL     1       7.124   5.504  17.229  0.00  0.00    +0.000 A 
ATOM     16  C   UNL     1       7.751   5.386  18.493  0.00  0.00    +0.000 A 
ATOM     17  C   UNL     1       8.278   6.516  19.157  0.00  0.00    +0.000 A 
ENDBRANCH  10  15
BRANCH  10  18
ATOM     18  C   UNL     1       6.703   4.178  14.931  0.00  0.00    +0.000 A 
ATOM     19  C   UNL     1       7.732   4.964  14.357  0.00  0.00    +0.000 A 
ATOM     20  C   UNL     1       7.860   5.103  12.980  0.00  0.00    +0.000 A 
ATOM     21  C   UNL     1       6.963   4.442  12.161  0.00  0.00    +0.000 A 
ATOM     22  F   UNL     1       7.017   4.640  10.839  0.00  0.00    +0.000 F 
ATOM     23  C   UNL     1       5.985   3.607  12.692  0.00  0.00    +0.000 A 
ATOM     24  C   UNL     1       5.854   3.469  14.076  0.00  0.00    +0.000 A 
ENDBRANCH  10  18
ENDBRANCH   9  10
ENDBRANCH   1   9
BRANCH   8  25
ATOM     25  C   UNL     1       1.810   5.519  19.696  0.00  0.00    +0.000 C 
BRANCH  25  26
ATOM     26  C   UNL     1       1.983   6.464  20.872  0.00  0.00    +0.000 C 
BRANCH  26  27
ATOM     27  N   UNL     1       1.752   7.816  20.315  0.00  0.00    +0.000 N 
ATOM     28  C   UNL     1       2.003   8.090  18.989  0.00  0.00    +0.000 A 
ATOM     29  C   UNL     1       1.415   9.290  18.677  0.00  0.00    +0.000 A 
ATOM     30  C   UNL     1       0.782   9.779  19.849  0.00  0.00    +0.000 A 
ATOM     31  C   UNL     1       0.037  10.946  20.120  0.00  0.00    +0.000 A 
ATOM     32  C   UNL     1      -0.538  11.123  21.379  0.00  0.00    +0.000 A 
ATOM     33  C   UNL     1      -0.410  10.135  22.351  0.00  0.00    +0.000 A 
ATOM     34  C   UNL     1       0.329   8.966  22.109  0.00  0.00    +0.000 A 
ATOM     35  C   UNL     1       0.954   8.819  20.856  0.00  0.00    +0.000 A 
ENDBRANCH  26  27
ENDBRANCH  25  26
ENDBRANCH   8  25
TORSDOF 7
ENDMDL
MODEL 2
REMARK VINA RESULT:      -8.7      1.010      4.067
REMARK  Name = 
REMARK  7 active torsions:
REMARK  status: ('A' for Active; 'I' for Inactive)
REMARK    1  A    between atoms: C_5  and  C_6
REMARK    2  A    between atoms: C_6  and  O_7
REMARK    3  A    between atoms: C_6  and  C_27
REMARK    4  A    between atoms: O_7  and  C_8
REMARK    5  A    between atoms: N_15  and  C_16
REMARK    6  A    between atoms: C_16  and  C_17
REMARK    7  A    between atoms: C_17  and  N_18
REMARK                            x       y       z     vdW  Elec       q    Type
REMARK                         _______ _______ _______ _____ _____    ______ ____
ROOT
ATOM      1  C   UNL     1       3.003   5.104  17.122  0.00  0.00    +0.000 C 
ATOM      2  C   UNL     1       3.030   6.301  18.027  0.00  0.00    +0.000 C 
ATOM      3  C   UNL     1       3.449   5.915  19.469  0.00  0.00    +0.000 C 
ATOM      4  C   UNL     1       4.395   4.744  19.759  0.00  0.00    +0.000 C 
ATOM      5  C   UNL     1       3.493   3.497  19.767  0.00  0.00    +0.000 C 
ATOM      6  C   UNL     1       2.105   4.048  19.368  0.00  0.00    +0.000 C 
ATOM      7  C   UNL     1       2.037   4.073  17.806  0.00  0.00    +0.000 C 
ATOM      8  N   UNL     1       2.239   5.332  20.042  0.00  0.00    +0.000 NA
ENDROOT
BRANCH   1   9
ATOM      9  O   UNL     1       4.329   4.623  17.008  0.00  0.00    +0.000 OA
BRANCH   9  10
ATOM     10  C   UNL     1       5.324   5.294  16.194  0.00  0.00    +0.000 C 
BRANCH  10  15
ATOM     11  F   UNL     1       7.451   3.408  11.196  0.00  0.00    +0.000 F 
ATOM     12  C   UNL     1       6.938   3.839  12.368  0.00  0.00    +0.000 A 
ATOM     13  C   UNL     1       7.668   4.717  13.155  0.00  0.00    +0.000 A 
ATOM     14  C   UNL     1       7.133   5.160  14.379  0.00  0.00    +0.000 A 
ATOM     15  C   UNL     1       5.851   4.752  14.832  0.00  0.00    +0.000 A 
ATOM     16  C   UNL     1       5.125   3.888  13.977  0.00  0.00    +0.000 A 
ATOM     17  C   UNL     1       5.677   3.428  12.762  0.00  0.00    +0.000 A 
ENDBRANCH  10  15
BRANCH  10  18
ATOM     18  C   UNL     1       6.237   6.056  17.148  0.00  0.00    +0.000 A 
ATOM     19  C   UNL     1       6.284   7.463  16.988  0.00  0.00    +0.000 A 
ATOM     20  C   UNL     1       7.241   8.238  17.633  0.00  0.00    +0.000 A 
ATOM     21  C   UNL     1       8.153   7.611  18.461  0.00  0.00    +0.000 A 
ATOM     22  F   UNL     1       9.135   8.331  19.017  0.00  0.00    +0.000 F 
ATOM     23  C   UNL     1       8.089   6.241  18.695  0.00  0.00    +0.000 A 
ATOM     24  C   UNL     1       7.131   5.461  18.044  0.00  0.00    +0.000 A 
ENDBRANCH  10  18
ENDBRANCH   9  10
ENDBRANCH   1   9
BRANCH   8  25
ATOM     25  C   UNL     1       1.350   6.408  20.415  0.00  0.00    +0.000 C 
BRANCH  25  26
ATOM     26  C   UNL     1       1.483   7.429  21.531  0.00  0.00    +0.000 C 
BRANCH  26  27
ATOM     27  N   UNL     1       1.041   8.709  20.934  0.00  0.00    +0.000 N 
ATOM     28  C   UNL     1       1.122   8.926  19.577  0.00  0.00    +0.000 A 
ATOM     29  C   UNL     1       0.370  10.031  19.270  0.00  0.00    +0.000 A 
ATOM     30  C   UNL     1      -0.193  10.520  20.477  0.00  0.00    +0.000 A 
ATOM     31  C   UNL     1      -1.037  11.613  20.767  0.00  0.00    +0.000 A 
ATOM     32  C   UNL     1      -1.498  11.804  22.071  0.00  0.00    +0.000 A 
ATOM     33  C   UNL     1      -1.158  10.899  23.072  0.00  0.00    +0.000 A 
ATOM     34  C   UNL     1      -0.317   9.805  22.811  0.00  0.00    +0.000 A 
ATOM     35  C   UNL     1       0.191   9.650  21.507  0.00  0.00    +0.000 A 
ENDBRANCH  26  27
ENDBRANCH  25  26
ENDBRANCH   8  25
TORSDOF 7
ENDMDL
MODEL 3
REMARK VINA RESULT:      -8.6      0.663      1.334
REMARK  Name = 
REMARK  7 active torsions:
REMARK  status: ('A' for Active; 'I' for Inactive)
REMARK    1  A    between atoms: C_5  and  C_6
REMARK    2  A    between atoms: C_6  and  O_7
REMARK    3  A    between atoms: C_6  and  C_27
REMARK    4  A    between atoms: O_7  and  C_8
REMARK    5  A    between atoms: N_15  and  C_16
REMARK    6  A    between atoms: C_16  and  C_17
REMARK    7  A    between atoms: C_17  and  N_18
REMARK                            x       y       z     vdW  Elec       q    Type
REMARK                         _______ _______ _______ _____ _____    ______ ____
ROOT
ATOM      1  C   UNL     1       3.755   4.885  17.028  0.00  0.00    +0.000 C 
ATOM      2  C   UNL     1       3.811   5.872  18.157  0.00  0.00    +0.000 C 
ATOM      3  C   UNL     1       3.832   5.159  19.534  0.00  0.00    +0.000 C 
ATOM      4  C   UNL     1       4.457   3.773  19.728  0.00  0.00    +0.000 C 
ATOM      5  C   UNL     1       3.357   2.779  19.314  0.00  0.00    +0.000 C 
ATOM      6  C   UNL     1       2.215   3.690  18.807  0.00  0.00    +0.000 C 
ATOM      7  C   UNL     1       2.489   3.997  17.298  0.00  0.00    +0.000 C 
ATOM      8  N   UNL     1       2.440   4.776  19.751  0.00  0.00    +0.000 NA
ENDROOT
BRANCH   1   9
ATOM      9  O   UNL     1       4.960   4.144  17.045  0.00  0.00    +0.000 OA
BRANCH   9  10
ATOM     10  C   UNL     1       6.217   4.706  16.590  0.00  0.00    +0.000 C 
BRANCH  10  15
ATOM     11  F   UNL     1       8.988   8.944  19.315  0.00  0.00    +0.000 F 
ATOM     12  C   UNL     1       8.335   7.960  18.662  0.00  0.00    +0.000 A 
ATOM     13  C   UNL     1       8.344   6.671  19.175  0.00  0.00    +0.000 A 
ATOM     14  C   UNL     1       7.666   5.646  18.488  0.00  0.00    +0.000 A 
ATOM     15  C   UNL     1       6.949   5.891  17.287  0.00  0.00    +0.000 A 
ATOM     16  C   UNL     1       6.934   7.228  16.823  0.00  0.00    +0.000 A 
ATOM     17  C   UNL     1       7.636   8.247  17.503  0.00  0.00    +0.000 A 
ENDBRANCH  10  15
BRANCH  10  18
ATOM     18  C   UNL     1       6.259   4.532  15.076  0.00  0.00    +0.000 A 
ATOM     19  C   UNL     1       5.183   3.818  14.492  0.00  0.00    +0.000 A 
ATOM     20  C   UNL     1       5.221   3.396  13.169  0.00  0.00    +0.000 A 
ATOM     21  C   UNL     1       6.335   3.700  12.409  0.00  0.00    +0.000 A 
ATOM     22  F   UNL     1       6.426   3.223  11.161  0.00  0.00    +0.000 F 
ATOM     23  C   UNL     1       7.377   4.460  12.931  0.00  0.00    +0.000 A 
ATOM     24  C   UNL     1       7.341   4.881  14.262  0.00  0.00    +0.000 A 
ENDBRANCH  10  18
ENDBRANCH   9  10
ENDBRANCH   1   9
BRANCH   8  25
ATOM     25  C   UNL     1       1.710   5.944  20.185  0.00  0.00    +0.000 C 
BRANCH  25  26
ATOM     26  C   UNL     1       2.042   6.941  21.281  0.00  0.00    +0.000 C 
BRANCH  26  27
ATOM     27  N   UNL     1       1.564   8.245  20.771  0.00  0.00    +0.000 N 
ATOM     28  C   UNL     1       1.629   8.551  19.430  0.00  0.00    +0.000 A 
ATOM     29  C   UNL     1       0.848   9.654  19.199  0.00  0.00    +0.000 A 
ATOM     30  C   UNL     1       0.282  10.050  20.438  0.00  0.00    +0.000 A 
ATOM     31  C   UNL     1      -0.587  11.100  20.804  0.00  0.00    +0.000 A 
ATOM     32  C   UNL     1      -1.043  11.195  22.120  0.00  0.00    +0.000 A 
ATOM     33  C   UNL     1      -0.672  10.236  23.059  0.00  0.00    +0.000 A 
ATOM     34  C   UNL     1       0.194   9.183  22.722  0.00  0.00    +0.000 A 
ATOM     35  C   UNL     1       0.695   9.125  21.408  0.00  0.00    +0.000 A 
ENDBRANCH  26  27
ENDBRANCH  25  26
ENDBRANCH   8  25
TORSDOF 7
ENDMDL
MODEL 4
REMARK VINA RESULT:      -8.5      0.596      1.006
REMARK  Name = 
REMARK  7 active torsions:
REMARK  status: ('A' for Active; 'I' for Inactive)
REMARK    1  A    between atoms: C_5  and  C_6
REMARK    2  A    between atoms: C_6  and  O_7
REMARK    3  A    between atoms: C_6  and  C_27
REMARK    4  A    between atoms: O_7  and  C_8
REMARK    5  A    between atoms: N_15  and  C_16
REMARK    6  A    between atoms: C_16  and  C_17
REMARK    7  A    between atoms: C_17  and  N_18
REMARK                            x       y       z     vdW  Elec       q    Type
REMARK                         _______ _______ _______ _____ _____    ______ ____
ROOT
ATOM      1  C   UNL     1       3.889   4.985  17.191  0.00  0.00    +0.000 C 
ATOM      2  C   UNL     1       4.248   5.639  18.493  0.00  0.00    +0.000 C 
ATOM      3  C   UNL     1       4.344   4.602  19.642  0.00  0.00    +0.000 C 
ATOM      4  C   UNL     1       4.768   3.149  19.399  0.00  0.00    +0.000 C 
ATOM      5  C   UNL     1       3.482   2.428  18.956  0.00  0.00    +0.000 C 
ATOM      6  C   UNL     1       2.436   3.565  18.875  0.00  0.00    +0.000 C 
ATOM      7  C   UNL     1       2.549   4.211  17.456  0.00  0.00    +0.000 C 
ATOM      8  N   UNL     1       2.951   4.341  19.995  0.00  0.00    +0.000 NA
ENDROOT
BRANCH   1   9
ATOM      9  O   UNL     1       4.957   4.129  16.831  0.00  0.00    +0.000 OA
BRANCH   9  10
ATOM     10  C   UNL     1       6.267   4.638  16.480  0.00  0.00    +0.000 C 
BRANCH  10  15
ATOM     11  F   UNL     1       8.972   8.891  19.249  0.00  0.00    +0.000 F 
ATOM     12  C   UNL     1       8.339   7.882  18.613  0.00  0.00    +0.000 A 
ATOM     13  C   UNL     1       7.694   8.126  17.410  0.00  0.00    +0.000 A 
ATOM     14  C   UNL     1       7.031   7.073  16.752  0.00  0.00    +0.000 A 
ATOM     15  C   UNL     1       7.016   5.752  17.271  0.00  0.00    +0.000 A 
ATOM     16  C   UNL     1       7.722   5.541  18.480  0.00  0.00    +0.000 A 
ATOM     17  C   UNL     1       8.365   6.606  19.148  0.00  0.00    +0.000 A 
ENDBRANCH  10  15
BRANCH  10  18
ATOM     18  C   UNL     1       6.397   4.522  14.965  0.00  0.00    +0.000 A 
ATOM     19  C   UNL     1       5.433   3.719  14.309  0.00  0.00    +0.000 A 
ATOM     20  C   UNL     1       5.577   3.350  12.976  0.00  0.00    +0.000 A 
ATOM     21  C   UNL     1       6.685   3.797  12.281  0.00  0.00    +0.000 A 
ATOM     22  F   UNL     1       6.884   3.376  11.026  0.00  0.00    +0.000 F 
ATOM     23  C   UNL     1       7.614   4.644  12.877  0.00  0.00    +0.000 A 
ATOM     24  C   UNL     1       7.472   5.013  14.216  0.00  0.00    +0.000 A 
ENDBRANCH  10  18
ENDBRANCH   9  10
ENDBRANCH   1   9
BRANCH   8  25
ATOM     25  C   UNL     1       2.475   5.437  20.806  0.00  0.00    +0.000 C 
BRANCH  25  26
ATOM     26  C   UNL     1       1.105   6.089  20.842  0.00  0.00    +0.000 C 
BRANCH  26  27
ATOM     27  N   UNL     1       1.348   7.512  20.514  0.00  0.00    +0.000 N 
ATOM     28  C   UNL     1       1.925   7.877  19.318  0.00  0.00    +0.000 A 
ATOM     29  C   UNL     1       1.742   9.225  19.144  0.00  0.00    +0.000 A 
ATOM     30  C   UNL     1       1.031   9.715  20.270  0.00  0.00    +0.000 A 
ATOM     31  C   UNL     1       0.572  11.000  20.631  0.00  0.00    +0.000 A 
ATOM     32  C   UNL     1      -0.182  11.164  21.793  0.00  0.00    +0.000 A 
ATOM     33  C   UNL     1      -0.513  10.061  22.574  0.00  0.00    +0.000 A 
ATOM     34  C   UNL     1      -0.066   8.772  22.240  0.00  0.00    +0.000 A 
ATOM     35  C   UNL     1       0.742   8.620  21.097  0.00  0.00    +0.000 A 
ENDBRANCH  26  27
ENDBRANCH  25  26
ENDBRANCH   8  25
TORSDOF 7
ENDMDL
MODEL 5
REMARK VINA RESULT:      -8.5      0.649      1.936
REMARK  Name = 
REMARK  7 active torsions:
REMARK  status: ('A' for Active; 'I' for Inactive)
REMARK    1  A    between atoms: C_5  and  C_6
REMARK    2  A    between atoms: C_6  and  O_7
REMARK    3  A    between atoms: C_6  and  C_27
REMARK    4  A    between atoms: O_7  and  C_8
REMARK    5  A    between atoms: N_15  and  C_16
REMARK    6  A    between atoms: C_16  and  C_17
REMARK    7  A    between atoms: C_17  and  N_18
REMARK                            x       y       z     vdW  Elec       q    Type
REMARK                         _______ _______ _______ _____ _____    ______ ____
ROOT
ATOM      1  C   UNL     1       3.995   4.642  16.770  0.00  0.00    +0.000 C 
ATOM      2  C   UNL     1       3.974   5.530  17.979  0.00  0.00    +0.000 C 
ATOM      3  C   UNL     1       4.009   4.703  19.291  0.00  0.00    +0.000 C 
ATOM      4  C   UNL     1       4.707   3.341  19.381  0.00  0.00    +0.000 C 
ATOM      5  C   UNL     1       3.672   2.329  18.859  0.00  0.00    +0.000 C 
ATOM      6  C   UNL     1       2.491   3.217  18.404  0.00  0.00    +0.000 C 
ATOM      7  C   UNL     1       2.775   3.667  16.933  0.00  0.00    +0.000 C 
ATOM      8  N   UNL     1       2.637   4.228  19.442  0.00  0.00    +0.000 NA
ENDROOT
BRANCH   1   9
ATOM      9  O   UNL     1       5.239   3.968  16.752  0.00  0.00    +0.000 OA
BRANCH   9  10
ATOM     10  C   UNL     1       6.468   4.631  16.363  0.00  0.00    +0.000 C 
BRANCH  10  15
ATOM     11  F   UNL     1       8.893   8.866  19.404  0.00  0.00    +0.000 F 
ATOM     12  C   UNL     1       8.322   7.883  18.676  0.00  0.00    +0.000 A 
ATOM     13  C   UNL     1       8.315   6.585  19.163  0.00  0.00    +0.000 A 
ATOM     14  C   UNL     1       7.723   5.561  18.400  0.00  0.00    +0.000 A 
ATOM     15  C   UNL     1       7.110   5.816  17.145  0.00  0.00    +0.000 A 
ATOM     16  C   UNL     1       7.105   7.162  16.707  0.00  0.00    +0.000 A 
ATOM     17  C   UNL     1       7.721   8.181  17.466  0.00  0.00    +0.000 A 
ENDBRANCH  10  15
BRANCH  10  18
ATOM     18  C   UNL     1       6.556   4.547  14.843  0.00  0.00    +0.000 A 
ATOM     19  C   UNL     1       5.700   3.612  14.212  0.00  0.00    +0.000 A 
ATOM     20  C   UNL     1       5.847   3.279  12.871  0.00  0.00    +0.000 A 
ATOM     21  C   UNL     1       6.847   3.894  12.141  0.00  0.00    +0.000 A 
ATOM     22  F   UNL     1       7.058   3.518  10.874  0.00  0.00    +0.000 F 
ATOM     23  C   UNL     1       7.658   4.869  12.713  0.00  0.00    +0.000 A 
ATOM     24  C   UNL     1       7.514   5.201  14.062  0.00  0.00    +0.000 A 
ENDBRANCH  10  18
ENDBRANCH   9  10
ENDBRANCH   1   9
BRANCH   8  25
ATOM     25  C   UNL     1       1.834   5.313  19.956  0.00  0.00    +0.000 C 
BRANCH  25  26
ATOM     26  C   UNL     1       2.127   6.279  21.090  0.00  0.00    +0.000 C 
BRANCH  26  27
ATOM     27  N   UNL     1       1.273   7.458  20.820  0.00  0.00    +0.000 N 
ATOM     28  C   UNL     1       0.462   7.987  21.799  0.00  0.00    +0.000 A 
ATOM     29  C   UNL     1       0.041   9.226  21.388  0.00  0.00    +0.000 A 
ATOM     30  C   UNL     1       0.605   9.473  20.110  0.00  0.00    +0.000 A 
ATOM     31  C   UNL     1       0.521  10.564  19.219  0.00  0.00    +0.000 A 
ATOM     32  C   UNL     1       1.264  10.553  18.039  0.00  0.00    +0.000 A 
ATOM     33  C   UNL     1       2.115   9.488  17.759  0.00  0.00    +0.000 A 
ATOM     34  C   UNL     1       2.216   8.388  18.627  0.00  0.00    +0.000 A 
ATOM     35  C   UNL     1       1.420   8.379  19.788  0.00  0.00    +0.000 A 
ENDBRANCH  26  27
ENDBRANCH  25  26
ENDBRANCH   8  25
TORSDOF 7
ENDMDL
MODEL 6
REMARK VINA RESULT:      -8.4      0.851      1.737
REMARK  Name = 
REMARK  7 active torsions:
REMARK  status: ('A' for Active; 'I' for Inactive)
REMARK    1  A    between atoms: C_5  and  C_6
REMARK    2  A    between atoms: C_6  and  O_7
REMARK    3  A    between atoms: C_6  and  C_27
REMARK    4  A    between atoms: O_7  and  C_8
REMARK    5  A    between atoms: N_15  and  C_16
REMARK    6  A    between atoms: C_16  and  C_17
REMARK    7  A    between atoms: C_17  and  N_18
REMARK                            x       y       z     vdW  Elec       q    Type
REMARK                         _______ _______ _______ _____ _____    ______ ____
ROOT
ATOM      1  C   UNL     1       3.684   5.172  17.186  0.00  0.00    +0.000 C 
ATOM      2  C   UNL     1       3.905   6.091  18.352  0.00  0.00    +0.000 C 
ATOM      3  C   UNL     1       3.824   5.328  19.700  0.00  0.00    +0.000 C 
ATOM      4  C   UNL     1       4.224   3.854  19.830  0.00  0.00    +0.000 C 
ATOM      5  C   UNL     1       2.977   3.064  19.394  0.00  0.00    +0.000 C 
ATOM      6  C   UNL     1       1.989   4.163  18.940  0.00  0.00    +0.000 C 
ATOM      7  C   UNL     1       2.295   4.484  17.440  0.00  0.00    +0.000 C 
ATOM      8  N   UNL     1       2.391   5.160  19.923  0.00  0.00    +0.000 NA
ENDROOT
BRANCH   1   9
ATOM      9  O   UNL     1       4.757   4.250  17.157  0.00  0.00    +0.000 OA
BRANCH   9  10
ATOM     10  C   UNL     1       6.098   4.641  16.769  0.00  0.00    +0.000 C 
BRANCH  10  15
ATOM     11  F   UNL     1       9.041   8.924  19.230  0.00  0.00    +0.000 F 
ATOM     12  C   UNL     1       8.347   7.929  18.638  0.00  0.00    +0.000 A 
ATOM     13  C   UNL     1       8.349   6.662  19.201  0.00  0.00    +0.000 A 
ATOM     14  C   UNL     1       7.629   5.625  18.579  0.00  0.00    +0.000 A 
ATOM     15  C   UNL     1       6.876   5.837  17.394  0.00  0.00    +0.000 A 
ATOM     16  C   UNL     1       6.870   7.155  16.878  0.00  0.00    +0.000 A 
ATOM     17  C   UNL     1       7.614   8.186  17.493  0.00  0.00    +0.000 A 
ENDBRANCH  10  15
BRANCH  10  18
ATOM     18  C   UNL     1       6.260   4.275  15.298  0.00  0.00    +0.000 A 
ATOM     19  C   UNL     1       7.402   4.793  14.640  0.00  0.00    +0.000 A 
ATOM     20  C   UNL     1       7.541   4.725  13.259  0.00  0.00    +0.000 A 
ATOM     21  C   UNL     1       6.540   4.120  12.521  0.00  0.00    +0.000 A 
ATOM     22  F   UNL     1       6.617   4.127  11.185  0.00  0.00    +0.000 F 
ATOM     23  C   UNL     1       5.440   3.538  13.143  0.00  0.00    +0.000 A 
ATOM     24  C   UNL     1       5.297   3.610  14.531  0.00  0.00    +0.000 A 
ENDBRANCH  10  18
ENDBRANCH   9  10
ENDBRANCH   1   9
BRANCH   8  25
ATOM     25  C   UNL     1       1.859   6.410  20.412  0.00  0.00    +0.000 C 
BRANCH  25  26
ATOM     26  C   UNL     1       2.039   7.817  19.871  0.00  0.00    +0.000 C 
BRANCH  26  27
ATOM     27  N   UNL     1       1.058   8.642  20.611  0.00  0.00    +0.000 N 
ATOM     28  C   UNL     1       1.094   8.727  21.985  0.00  0.00    +0.000 A 
ATOM     29  C   UNL     1       0.304   9.778  22.373  0.00  0.00    +0.000 A 
ATOM     30  C   UNL     1      -0.245  10.363  21.203  0.00  0.00    +0.000 A 
ATOM     31  C   UNL     1      -1.114  11.455  20.993  0.00  0.00    +0.000 A 
ATOM     32  C   UNL     1      -1.426  11.852  19.692  0.00  0.00    +0.000 A 
ATOM     33  C   UNL     1      -0.852  11.198  18.606  0.00  0.00    +0.000 A 
ATOM     34  C   UNL     1       0.014  10.107  18.786  0.00  0.00    +0.000 A 
ATOM     35  C   UNL     1       0.280   9.675  20.100  0.00  0.00    +0.000 A 
ENDBRANCH  26  27
ENDBRANCH  25  26
ENDBRANCH   8  25
TORSDOF 7
ENDMDL
MODEL 7
REMARK VINA RESULT:      -8.2      0.923      4.260
REMARK  Name = 
REMARK  7 active torsions:
REMARK  status: ('A' for Active; 'I' for Inactive)
REMARK    1  A    between atoms: C_5  and  C_6
REMARK    2  A    between atoms: C_6  and  O_7
REMARK    3  A    between atoms: C_6  and  C_27
REMARK    4  A    between atoms: O_7  and  C_8
REMARK    5  A    between atoms: N_15  and  C_16
REMARK    6  A    between atoms: C_16  and  C_17
REMARK    7  A    between atoms: C_17  and  N_18
REMARK                            x       y       z     vdW  Elec       q    Type
REMARK                         _______ _______ _______ _____ _____    ______ ____
ROOT
ATOM      1  C   UNL     1       3.081   5.073  17.154  0.00  0.00    +0.000 C 
ATOM      2  C   UNL     1       3.247   5.959  18.353  0.00  0.00    +0.000 C 
ATOM      3  C   UNL     1       3.620   5.141  19.617  0.00  0.00    +0.000 C 
ATOM      4  C   UNL     1       4.424   3.838  19.539  0.00  0.00    +0.000 C 
ATOM      5  C   UNL     1       3.383   2.746  19.230  0.00  0.00    +0.000 C 
ATOM      6  C   UNL     1       2.068   3.538  19.046  0.00  0.00    +0.000 C 
ATOM      7  C   UNL     1       2.002   4.006  17.555  0.00  0.00    +0.000 C 
ATOM      8  N   UNL     1       2.351   4.560  20.045  0.00  0.00    +0.000 NA
ENDROOT
BRANCH   1   9
ATOM      9  O   UNL     1       4.342   4.499  16.866  0.00  0.00    +0.000 OA
BRANCH   9  10
ATOM     10  C   UNL     1       5.349   5.199  16.095  0.00  0.00    +0.000 C 
BRANCH  10  15
ATOM     11  F   UNL     1       7.246   3.240  11.032  0.00  0.00    +0.000 F 
ATOM     12  C   UNL     1       6.815   3.711  12.221  0.00  0.00    +0.000 A 
ATOM     13  C   UNL     1       5.587   3.300  12.717  0.00  0.00    +0.000 A 
ATOM     14  C   UNL     1       5.137   3.798  13.955  0.00  0.00    +0.000 A 
ATOM     15  C   UNL     1       5.912   4.700  14.730  0.00  0.00    +0.000 A 
ATOM     16  C   UNL     1       7.176   5.060  14.203  0.00  0.00    +0.000 A 
ATOM     17  C   UNL     1       7.611   4.577  12.950  0.00  0.00    +0.000 A 
ENDBRANCH  10  15
BRANCH  10  18
ATOM     18  C   UNL     1       6.234   5.941  17.090  0.00  0.00    +0.000 A 
ATOM     19  C   UNL     1       6.335   7.344  16.922  0.00  0.00    +0.000 A 
ATOM     20  C   UNL     1       7.280   8.095  17.611  0.00  0.00    +0.000 A 
ATOM     21  C   UNL     1       8.126   7.447  18.492  0.00  0.00    +0.000 A 
ATOM     22  F   UNL     1       9.100   8.142  19.094  0.00  0.00    +0.000 F 
ATOM     23  C   UNL     1       8.006   6.082  18.732  0.00  0.00    +0.000 A 
ATOM     24  C   UNL     1       7.060   5.326  18.037  0.00  0.00    +0.000 A 
ENDBRANCH  10  18
ENDBRANCH   9  10
ENDBRANCH   1   9
BRANCH   8  25
ATOM     25  C   UNL     1       1.593   5.580  20.731  0.00  0.00    +0.000 C 
BRANCH  25  26
ATOM     26  C   UNL     1       2.066   6.880  21.356  0.00  0.00    +0.000 C 
BRANCH  26  27
ATOM     27  N   UNL     1       0.976   7.848  21.100  0.00  0.00    +0.000 N 
ATOM     28  C   UNL     1       0.055   8.156  22.076  0.00  0.00    +0.000 A 
ATOM     29  C   UNL     1      -0.624   9.283  21.690  0.00  0.00    +0.000 A 
ATOM     30  C   UNL     1      -0.111   9.687  20.431  0.00  0.00    +0.000 A 
ATOM     31  C   UNL     1      -0.422  10.759  19.568  0.00  0.00    +0.000 A 
ATOM     32  C   UNL     1       0.322  10.948  18.403  0.00  0.00    +0.000 A 
ATOM     33  C   UNL     1       1.392  10.106  18.112  0.00  0.00    +0.000 A 
ATOM     34  C   UNL     1       1.721   9.030  18.952  0.00  0.00    +0.000 A 
ATOM     35  C   UNL     1       0.931   8.810  20.097  0.00  0.00    +0.000 A 
ENDBRANCH  26  27
ENDBRANCH  25  26
ENDBRANCH   8  25
TORSDOF 7
ENDMDL
MODEL 8
REMARK VINA RESULT:      -8.2      5.686     10.310
REMARK  Name = 
REMARK  7 active torsions:
REMARK  status: ('A' for Active; 'I' for Inactive)
REMARK    1  A    between atoms: C_5  and  C_6
REMARK    2  A    between atoms: C_6  and  O_7
REMARK    3  A    between atoms: C_6  and  C_27
REMARK    4  A    between atoms: O_7  and  C_8
REMARK    5  A    between atoms: N_15  and  C_16
REMARK    6  A    between atoms: C_16  and  C_17
REMARK    7  A    between atoms: C_17  and  N_18
REMARK                            x       y       z     vdW  Elec       q    Type
REMARK                         _______ _______ _______ _____ _____    ______ ____
ROOT
ATOM      1  C   UNL     1      -1.925  11.825  18.375  0.00  0.00    +0.000 C 
ATOM      2  C   UNL     1      -3.346  11.879  18.852  0.00  0.00    +0.000 C 
ATOM      3  C   UNL     1      -4.204  10.757  18.212  0.00  0.00    +0.000 C 
ATOM      4  C   UNL     1      -3.608   9.404  17.805  0.00  0.00    +0.000 C 
ATOM      5  C   UNL     1      -3.006   9.638  16.408  0.00  0.00    +0.000 C 
ATOM      6  C   UNL     1      -3.212  11.152  16.171  0.00  0.00    +0.000 C 
ATOM      7  C   UNL     1      -1.995  11.901  16.808  0.00  0.00    +0.000 C 
ATOM      8  N   UNL     1      -4.487  11.255  16.869  0.00  0.00    +0.000 NA
ENDROOT
BRANCH   1   9
ATOM      9  O   UNL     1      -1.361  10.614  18.842  0.00  0.00    +0.000 OA
BRANCH   9  10
ATOM     10  C   UNL     1      -0.060  10.565  19.479  0.00  0.00    +0.000 C 
BRANCH  10  15
ATOM     11  F   UNL     1       3.535   6.100  19.017  0.00  0.00    +0.000 F 
ATOM     12  C   UNL     1       2.690   7.146  19.143  0.00  0.00    +0.000 A 
ATOM     13  C   UNL     1       2.435   7.957  18.048  0.00  0.00    +0.000 A 
ATOM     14  C   UNL     1       1.557   9.050  18.184  0.00  0.00    +0.000 A 
ATOM     15  C   UNL     1       0.904   9.342  19.410  0.00  0.00    +0.000 A 
ATOM     16  C   UNL     1       1.163   8.463  20.489  0.00  0.00    +0.000 A 
ATOM     17  C   UNL     1       2.062   7.383  20.353  0.00  0.00    +0.000 A 
ENDBRANCH  10  15
BRANCH  10  18
ATOM     18  C   UNL     1      -0.144  11.435  20.728  0.00  0.00    +0.000 A 
ATOM     19  C   UNL     1      -0.950  10.945  21.785  0.00  0.00    +0.000 A 
ATOM     20  C   UNL     1      -1.290  11.743  22.871  0.00  0.00    +0.000 A 
ATOM     21  C   UNL     1      -0.812  13.039  22.917  0.00  0.00    +0.000 A 
ATOM     22  F   UNL     1      -1.205  13.847  23.909  0.00  0.00    +0.000 F 
ATOM     23  C   UNL     1       0.039  13.527  21.930  0.00  0.00    +0.000 A 
ATOM     24  C   UNL     1       0.378  12.728  20.837  0.00  0.00    +0.000 A 
ENDBRANCH  10  18
ENDBRANCH   9  10
ENDBRANCH   1   9
BRANCH   8  25
ATOM     25  C   UNL     1      -5.545  12.234  16.961  0.00  0.00    +0.000 C 
BRANCH  25  26
ATOM     26  C   UNL     1      -6.930  12.106  17.569  0.00  0.00    +0.000 C 
BRANCH  26  27
ATOM     27  N   UNL     1      -6.876  12.896  18.819  0.00  0.00    +0.000 N 
ATOM     28  C   UNL     1      -6.812  14.271  18.789  0.00  0.00    +0.000 A 
ATOM     29  C   UNL     1      -7.090  14.745  20.045  0.00  0.00    +0.000 A 
ATOM     30  C   UNL     1      -7.331  13.627  20.885  0.00  0.00    +0.000 A 
ATOM     31  C   UNL     1      -7.658  13.508  22.253  0.00  0.00    +0.000 A 
ATOM     32  C   UNL     1      -7.915  12.249  22.796  0.00  0.00    +0.000 A 
ATOM     33  C   UNL     1      -7.887  11.118  21.984  0.00  0.00    +0.000 A 
ATOM     34  C   UNL     1      -7.562  11.208  20.621  0.00  0.00    +0.000 A 
ATOM     35  C   UNL     1      -7.248  12.474  20.092  0.00  0.00    +0.000 A 
ENDBRANCH  26  27
ENDBRANCH  25  26
ENDBRANCH   8  25
TORSDOF 7
ENDMDL
MODEL 9
REMARK VINA RESULT:      -8.1      0.943      4.062
REMARK  Name = 
REMARK  7 active torsions:
REMARK  status: ('A' for Active; 'I' for Inactive)
REMARK    1  A    between atoms: C_5  and  C_6
REMARK    2  A    between atoms: C_6  and  O_7
REMARK    3  A    between atoms: C_6  and  C_27
REMARK    4  A    between atoms: O_7  and  C_8
REMARK    5  A    between atoms: N_15  and  C_16
REMARK    6  A    between atoms: C_16  and  C_17
REMARK    7  A    between atoms: C_17  and  N_18
REMARK                            x       y       z     vdW  Elec       q    Type
REMARK                         _______ _______ _______ _____ _____    ______ ____
ROOT
ATOM      1  C   UNL     1       3.284   5.623  17.311  0.00  0.00    +0.000 C 
ATOM      2  C   UNL     1       3.664   6.310  18.590  0.00  0.00    +0.000 C 
ATOM      3  C   UNL     1       3.987   5.287  19.710  0.00  0.00    +0.000 C 
ATOM      4  C   UNL     1       4.572   3.902  19.408  0.00  0.00    +0.000 C 
ATOM      5  C   UNL     1       3.356   3.024  19.060  0.00  0.00    +0.000 C 
ATOM      6  C   UNL     1       2.171   4.017  19.085  0.00  0.00    +0.000 C 
ATOM      7  C   UNL     1       2.080   4.682  17.672  0.00  0.00    +0.000 C 
ATOM      8  N   UNL     1       2.674   4.846  20.172  0.00  0.00    +0.000 NA
ENDROOT
BRANCH   1   9
ATOM      9  O   UNL     1       4.418   4.914  16.851  0.00  0.00    +0.000 OA
BRANCH   9  10
ATOM     10  C   UNL     1       5.471   5.556  16.089  0.00  0.00    +0.000 C 
BRANCH  10  15
ATOM     11  F   UNL     1       7.446   3.369  11.151  0.00  0.00    +0.000 F 
ATOM     12  C   UNL     1       6.995   3.894  12.310  0.00  0.00    +0.000 A 
ATOM     13  C   UNL     1       5.790   3.458  12.838  0.00  0.00    +0.000 A 
ATOM     14  C   UNL     1       5.320   4.012  14.045  0.00  0.00    +0.000 A 
ATOM     15  C   UNL     1       6.053   4.998  14.756  0.00  0.00    +0.000 A 
ATOM     16  C   UNL     1       7.297   5.383  14.200  0.00  0.00    +0.000 A 
ATOM     17  C   UNL     1       7.751   4.841  12.978  0.00  0.00    +0.000 A 
ENDBRANCH  10  15
BRANCH  10  18
ATOM     18  C   UNL     1       6.354   6.296  17.088  0.00  0.00    +0.000 A 
ATOM     19  C   UNL     1       6.459   7.699  16.920  0.00  0.00    +0.000 A 
ATOM     20  C   UNL     1       7.403   8.447  17.613  0.00  0.00    +0.000 A 
ATOM     21  C   UNL     1       8.245   7.797  18.497  0.00  0.00    +0.000 A 
ATOM     22  F   UNL     1       9.217   8.489  19.103  0.00  0.00    +0.000 F 
ATOM     23  C   UNL     1       8.120   6.432  18.737  0.00  0.00    +0.000 A 
ATOM     24  C   UNL     1       7.174   5.679  18.038  0.00  0.00    +0.000 A 
ENDBRANCH  10  18
ENDBRANCH   9  10
ENDBRANCH   1   9
BRANCH   8  25
ATOM     25  C   UNL     1       2.131   5.866  21.037  0.00  0.00    +0.000 C 
BRANCH  25  26
ATOM     26  C   UNL     1       0.750   6.496  21.042  0.00  0.00    +0.000 C 
BRANCH  26  27
ATOM     27  N   UNL     1       0.986   7.941  20.823  0.00  0.00    +0.000 N 
ATOM     28  C   UNL     1       1.551   8.400  19.654  0.00  0.00    +0.000 A 
ATOM     29  C   UNL     1       1.363   9.756  19.586  0.00  0.00    +0.000 A 
ATOM     30  C   UNL     1       0.661  10.155  20.753  0.00  0.00    +0.000 A 
ATOM     31  C   UNL     1       0.202  11.406  21.216  0.00  0.00    +0.000 A 
ATOM     32  C   UNL     1      -0.542  11.478  22.394  0.00  0.00    +0.000 A 
ATOM     33  C   UNL     1      -0.862  10.317  23.091  0.00  0.00    +0.000 A 
ATOM     34  C   UNL     1      -0.415   9.059  22.654  0.00  0.00    +0.000 A 
ATOM     35  C   UNL     1       0.383   8.999  21.496  0.00  0.00    +0.000 A 
ENDBRANCH  26  27
ENDBRANCH  25  26
ENDBRANCH   8  25
TORSDOF 7
ENDMDL
