MODEL 1
REMARK VINA RESULT:      -8.4      0.000      0.000
REMARK  Name = 
REMARK  5 active torsions:
REMARK  status: ('A' for Active; 'I' for Inactive)
REMARK    1  A    between atoms: C_1  and  C_2
REMARK    2  A    between atoms: C_2  and  C_3
REMARK    3  A    between atoms: C_3  and  C_4
REMARK    4  A    between atoms: C_4  and  C_5
REMARK    5  A    between atoms: C_15  and  C_16
REMARK                            x       y       z     vdW  Elec       q    Type
REMARK                         _______ _______ _______ _____ _____    ______ ____
ROOT
ATOM      1  C   UNL     1       3.888   4.627  18.819  0.00  0.00    +0.000 A 
ATOM      2  C   UNL     1       4.568   4.777  17.595  0.00  0.00    +0.000 A 
ATOM      3  C   UNL     1       4.468   6.013  16.955  0.00  0.00    +0.000 A 
ATOM      4  N   UNL     1       3.720   7.056  17.382  0.00  0.00    +0.000 NA
ATOM      5  C   UNL     1       3.000   6.885  18.511  0.00  0.00    +0.000 A 
ATOM      6  C   UNL     1       3.046   5.690  19.258  0.00  0.00    +0.000 A 
ATOM      7  C   UNL     1       2.204   5.553  20.511  0.00  0.00    +0.000 C 
ATOM      8  C   UNL     1       1.099   6.596  20.636  0.00  0.00    +0.000 C 
ATOM      9  C   UNL     1       1.652   7.982  20.357  0.00  0.00    +0.000 C 
ATOM     10  C   UNL     1       2.165   8.048  18.940  0.00  0.00    +0.000 C 
ATOM     11  C   UNL     1       1.872   9.058  18.091  0.00  0.00    +0.000 C 
ATOM     12  C   UNL     1       5.311   6.247  15.755  0.00  0.00    +0.000 C 
ATOM     13  O   UNL     1       5.005   7.043  14.870  0.00  0.00    +0.000 OA
ATOM     14  C   UNL     1       6.627   5.510  15.750  0.00  0.00    +0.000 C 
ATOM     15  C   UNL     1       6.472   4.026  16.044  0.00  0.00    +0.000 C 
ATOM     16  C   UNL     1       5.231   3.643  16.852  0.00  0.00    +0.000 C 
ENDROOT
BRANCH  11  17
ATOM     17  C   UNL     1       1.038  10.223  18.418  0.00  0.00    +0.000 A 
ATOM     18  C   UNL     1       1.630  11.433  18.801  0.00  0.00    +0.000 A 
ATOM     19  C   UNL     1       0.834  12.542  19.107  0.00  0.00    +0.000 A 
ATOM     20  C   UNL     1      -0.554  12.449  19.035  0.00  0.00    +0.000 A 
ATOM     21  C   UNL     1      -1.151  11.245  18.663  0.00  0.00    +0.000 A 
ATOM     22  C   UNL     1      -0.357  10.135  18.356  0.00  0.00    +0.000 A 
ENDBRANCH  11  17
BRANCH   1  23
ATOM     23  C   UNL     1       4.062   3.359  19.641  0.00  0.00    +0.000 C 
BRANCH  23  24
ATOM     24  C   UNL     1       3.218   2.181  19.121  0.00  0.00    +0.000 C 
BRANCH  24  26
ATOM     25  C   UNL     1       0.752   2.532  18.751  0.00  0.00    +0.000 C 
ATOM     26  C   UNL     1       1.830   2.172  19.762  0.00  0.00    +0.000 C 
ENDBRANCH  24  26
ENDBRANCH  23  24
ENDBRANCH   1  23
TORSDOF 4
ENDMDL
MODEL 2
REMARK VINA RESULT:      -8.1      2.558      4.346
REMARK  Name = 
REMARK  5 active torsions:
REMARK  status: ('A' for Active; 'I' for Inactive)
REMARK    1  A    between atoms: C_1  and  C_2
REMARK    2  A    between atoms: C_2  and  C_3
REMARK    3  A    between atoms: C_3  and  C_4
REMARK    4  A    between atoms: C_4  and  C_5
REMARK    5  A    between atoms: C_15  and  C_16
REMARK                            x       y       z     vdW  Elec       q    Type
REMARK                         _______ _______ _______ _____ _____    ______ ____
ROOT
ATOM      1  C   UNL     1       3.618   5.552  17.974  0.00  0.00    +0.000 A 
ATOM      2  C   UNL     1       3.556   4.485  18.891  0.00  0.00    +0.000 A 
ATOM      3  C   UNL     1       2.771   4.665  20.030  0.00  0.00    +0.000 A 
ATOM      4  N   UNL     1       2.116   5.803  20.356  0.00  0.00    +0.000 NA
ATOM      5  C   UNL     1       2.243   6.855  19.521  0.00  0.00    +0.000 A 
ATOM      6  C   UNL     1       2.987   6.781  18.325  0.00  0.00    +0.000 A 
ATOM      7  C   UNL     1       3.103   8.001  17.433  0.00  0.00    +0.000 C 
ATOM      8  C   UNL     1       2.705   9.307  18.112  0.00  0.00    +0.000 C 
ATOM      9  C   UNL     1       1.383   9.141  18.838  0.00  0.00    +0.000 C 
ATOM     10  C   UNL     1       1.529   8.104  19.924  0.00  0.00    +0.000 C 
ATOM     11  C   UNL     1       1.084   8.287  21.187  0.00  0.00    +0.000 C 
ATOM     12  C   UNL     1       2.557   3.496  20.922  0.00  0.00    +0.000 C 
ATOM     13  O   UNL     1       2.308   3.608  22.120  0.00  0.00    +0.000 OA
ATOM     14  C   UNL     1       2.565   2.158  20.226  0.00  0.00    +0.000 C 
ATOM     15  C   UNL     1       3.781   1.966  19.334  0.00  0.00    +0.000 C 
ATOM     16  C   UNL     1       4.422   3.252  18.812  0.00  0.00    +0.000 C 
ENDROOT
BRANCH  11  17
ATOM     17  C   UNL     1       0.398   9.491  21.678  0.00  0.00    +0.000 A 
ATOM     18  C   UNL     1      -0.496   9.409  22.752  0.00  0.00    +0.000 A 
ATOM     19  C   UNL     1      -1.143  10.556  23.221  0.00  0.00    +0.000 A 
ATOM     20  C   UNL     1      -0.905  11.790  22.618  0.00  0.00    +0.000 A 
ATOM     21  C   UNL     1      -0.023  11.878  21.542  0.00  0.00    +0.000 A 
ATOM     22  C   UNL     1       0.626  10.731  21.073  0.00  0.00    +0.000 A 
ENDBRANCH  11  17
BRANCH   1  23
ATOM     23  C   UNL     1       4.340   5.380  16.646  0.00  0.00    +0.000 C 
BRANCH  23  24
ATOM     24  C   UNL     1       5.825   5.778  16.709  0.00  0.00    +0.000 C 
BRANCH  24  26
ATOM     25  C   UNL     1       6.109   3.981  14.967  0.00  0.00    +0.000 C 
ATOM     26  C   UNL     1       6.720   4.653  16.187  0.00  0.00    +0.000 C 
ENDBRANCH  24  26
ENDBRANCH  23  24
ENDBRANCH   1  23
TORSDOF 4
ENDMDL
MODEL 3
REMARK VINA RESULT:      -7.9      2.613      4.381
REMARK  Name = 
REMARK  5 active torsions:
REMARK  status: ('A' for Active; 'I' for Inactive)
REMARK    1  A    between atoms: C_1  and  C_2
REMARK    2  A    between atoms: C_2  and  C_3
REMARK    3  A    between atoms: C_3  and  C_4
REMARK    4  A    between atoms: C_4  and  C_5
REMARK    5  A    between atoms: C_15  and  C_16
REMARK                            x       y       z     vdW  Elec       q    Type
REMARK                         _______ _______ _______ _____ _____    ______ ____
ROOT
ATOM      1  C   UNL     1       3.748   5.768  18.065  0.00  0.00    +0.000 A 
ATOM      2  C   UNL     1       3.688   4.696  18.975  0.00  0.00    +0.000 A 
ATOM      3  C   UNL     1       2.818   4.824  20.057  0.00  0.00    +0.000 A 
ATOM      4  N   UNL     1       2.075   5.919  20.338  0.00  0.00    +0.000 NA
ATOM      5  C   UNL     1       2.196   6.980  19.514  0.00  0.00    +0.000 A 
ATOM      6  C   UNL     1       3.022   6.956  18.372  0.00  0.00    +0.000 A 
ATOM      7  C   UNL     1       3.127   8.184  17.491  0.00  0.00    +0.000 C 
ATOM      8  C   UNL     1       2.606   9.462  18.140  0.00  0.00    +0.000 C 
ATOM      9  C   UNL     1       1.249   9.214  18.775  0.00  0.00    +0.000 C 
ATOM     10  C   UNL     1       1.381   8.183  19.868  0.00  0.00    +0.000 C 
ATOM     11  C   UNL     1       0.842   8.333  21.097  0.00  0.00    +0.000 C 
ATOM     12  C   UNL     1       2.613   3.640  20.932  0.00  0.00    +0.000 C 
ATOM     13  O   UNL     1       2.276   3.732  22.111  0.00  0.00    +0.000 OA
ATOM     14  C   UNL     1       2.749   2.308  20.238  0.00  0.00    +0.000 C 
ATOM     15  C   UNL     1       4.032   2.192  19.431  0.00  0.00    +0.000 C 
ATOM     16  C   UNL     1       4.630   3.516  18.955  0.00  0.00    +0.000 C 
ENDROOT
BRANCH  11  17
ATOM     17  C   UNL     1       0.053   9.491  21.540  0.00  0.00    +0.000 A 
ATOM     18  C   UNL     1      -0.251  10.525  20.647  0.00  0.00    +0.000 A 
ATOM     19  C   UNL     1      -1.007  11.624  21.069  0.00  0.00    +0.000 A 
ATOM     20  C   UNL     1      -1.459  11.698  22.385  0.00  0.00    +0.000 A 
ATOM     21  C   UNL     1      -1.153  10.677  23.283  0.00  0.00    +0.000 A 
ATOM     22  C   UNL     1      -0.398   9.577  22.862  0.00  0.00    +0.000 A 
ENDBRANCH  11  17
BRANCH   1  23
ATOM     23  C   UNL     1       4.569   5.645  16.789  0.00  0.00    +0.000 C 
BRANCH  23  24
ATOM     24  C   UNL     1       5.865   6.476  16.821  0.00  0.00    +0.000 C 
BRANCH  24  26
ATOM     25  C   UNL     1       7.606   6.020  18.583  0.00  0.00    +0.000 C 
ATOM     26  C   UNL     1       7.062   5.614  17.222  0.00  0.00    +0.000 C 
ENDBRANCH  24  26
ENDBRANCH  23  24
ENDBRANCH   1  23
TORSDOF 4
ENDMDL
MODEL 4
REMARK VINA RESULT:      -7.3      1.008      1.325
REMARK  Name = 
REMARK  5 active torsions:
REMARK  status: ('A' for Active; 'I' for Inactive)
REMARK    1  A    between atoms: C_1  and  C_2
REMARK    2  A    between atoms: C_2  and  C_3
REMARK    3  A    between atoms: C_3  and  C_4
REMARK    4  A    between atoms: C_4  and  C_5
REMARK    5  A    between atoms: C_15  and  C_16
REMARK                            x       y       z     vdW  Elec       q    Type
REMARK                         _______ _______ _______ _____ _____    ______ ____
ROOT
ATOM      1  C   UNL     1       2.915   5.357  19.471  0.00  0.00    +0.000 A 
ATOM      2  C   UNL     1       3.705   5.288  18.307  0.00  0.00    +0.000 A 
ATOM      3  C   UNL     1       3.865   6.462  17.572  0.00  0.00    +0.000 A 
ATOM      4  N   UNL     1       3.273   7.646  17.851  0.00  0.00    +0.000 NA
ATOM      5  C   UNL     1       2.449   7.693  18.917  0.00  0.00    +0.000 A 
ATOM      6  C   UNL     1       2.233   6.576  19.751  0.00  0.00    +0.000 A 
ATOM      7  C   UNL     1       1.284   6.687  20.928  0.00  0.00    +0.000 C 
ATOM      8  C   UNL     1       0.365   7.903  20.874  0.00  0.00    +0.000 C 
ATOM      9  C   UNL     1       1.164   9.151  20.546  0.00  0.00    +0.000 C 
ATOM     10  C   UNL     1       1.790   9.009  19.182  0.00  0.00    +0.000 C 
ATOM     11  C   UNL     1       1.739   9.975  18.239  0.00  0.00    +0.000 C 
ATOM     12  C   UNL     1       4.828   6.451  16.440  0.00  0.00    +0.000 C 
ATOM     13  O   UNL     1       4.731   7.206  15.474  0.00  0.00    +0.000 OA
ATOM     14  C   UNL     1       5.996   5.513  16.610  0.00  0.00    +0.000 C 
ATOM     15  C   UNL     1       5.571   4.106  16.996  0.00  0.00    +0.000 C 
ATOM     16  C   UNL     1       4.224   4.001  17.713  0.00  0.00    +0.000 C 
ENDROOT
BRANCH  11  17
ATOM     17  C   UNL     1       1.091  11.284  18.401  0.00  0.00    +0.000 A 
ATOM     18  C   UNL     1       1.862  12.446  18.521  0.00  0.00    +0.000 A 
ATOM     19  C   UNL     1       1.242  13.692  18.670  0.00  0.00    +0.000 A 
ATOM     20  C   UNL     1      -0.148  13.782  18.705  0.00  0.00    +0.000 A 
ATOM     21  C   UNL     1      -0.922  12.628  18.595  0.00  0.00    +0.000 A 
ATOM     22  C   UNL     1      -0.304  11.382  18.445  0.00  0.00    +0.000 A 
ENDBRANCH  11  17
BRANCH   1  23
ATOM     23  C   UNL     1       2.808   4.154  20.396  0.00  0.00    +0.000 C 
BRANCH  23  24
ATOM     24  C   UNL     1       1.360   3.669  20.592  0.00  0.00    +0.000 C 
BRANCH  24  26
ATOM     25  C   UNL     1       1.741   1.770  18.983  0.00  0.00    +0.000 C 
ATOM     26  C   UNL     1       0.848   2.946  19.346  0.00  0.00    +0.000 C 
ENDBRANCH  24  26
ENDBRANCH  23  24
ENDBRANCH   1  23
TORSDOF 4
ENDMDL
MODEL 5
REMARK VINA RESULT:      -7.3      2.417      7.211
REMARK  Name = 
REMARK  5 active torsions:
REMARK  status: ('A' for Active; 'I' for Inactive)
REMARK    1  A    between atoms: C_1  and  C_2
REMARK    2  A    between atoms: C_2  and  C_3
REMARK    3  A    between atoms: C_3  and  C_4
REMARK    4  A    between atoms: C_4  and  C_5
REMARK    5  A    between atoms: C_15  and  C_16
REMARK                            x       y       z     vdW  Elec       q    Type
REMARK                         _______ _______ _______ _____ _____    ______ ____
ROOT
ATOM      1  C   UNL     1       2.715   6.020  19.419  0.00  0.00    +0.000 A 
ATOM      2  C   UNL     1       2.421   4.703  19.822  0.00  0.00    +0.000 A 
ATOM      3  C   UNL     1       3.018   3.666  19.106  0.00  0.00    +0.000 A 
ATOM      4  N   UNL     1       3.805   3.821  18.017  0.00  0.00    +0.000 NA
ATOM      5  C   UNL     1       4.020   5.078  17.578  0.00  0.00    +0.000 A 
ATOM      6  C   UNL     1       3.492   6.206  18.239  0.00  0.00    +0.000 A 
ATOM      7  C   UNL     1       3.757   7.594  17.690  0.00  0.00    +0.000 C 
ATOM      8  C   UNL     1       4.266   7.607  16.253  0.00  0.00    +0.000 C 
ATOM      9  C   UNL     1       5.391   6.601  16.084  0.00  0.00    +0.000 C 
ATOM     10  C   UNL     1       4.872   5.212  16.357  0.00  0.00    +0.000 C 
ATOM     11  C   UNL     1       5.119   4.157  15.550  0.00  0.00    +0.000 C 
ATOM     12  C   UNL     1       2.857   2.281  19.618  0.00  0.00    +0.000 C 
ATOM     13  O   UNL     1       2.913   1.290  18.892  0.00  0.00    +0.000 OA
ATOM     14  C   UNL     1       2.721   2.170  21.116  0.00  0.00    +0.000 C 
ATOM     15  C   UNL     1       1.663   3.103  21.682  0.00  0.00    +0.000 C 
ATOM     16  C   UNL     1       1.368   4.347  20.844  0.00  0.00    +0.000 C 
ENDROOT
BRANCH  11  17
ATOM     17  C   UNL     1       5.921   4.202  14.318  0.00  0.00    +0.000 A 
ATOM     18  C   UNL     1       5.532   3.467  13.193  0.00  0.00    +0.000 A 
ATOM     19  C   UNL     1       6.294   3.515  12.020  0.00  0.00    +0.000 A 
ATOM     20  C   UNL     1       7.448   4.295  11.967  0.00  0.00    +0.000 A 
ATOM     21  C   UNL     1       7.846   5.023  13.087  0.00  0.00    +0.000 A 
ATOM     22  C   UNL     1       7.085   4.976  14.260  0.00  0.00    +0.000 A 
ENDBRANCH  11  17
BRANCH   1  23
ATOM     23  C   UNL     1       2.212   7.201  20.235  0.00  0.00    +0.000 C 
BRANCH  23  24
ATOM     24  C   UNL     1       1.473   8.252  19.387  0.00  0.00    +0.000 C 
BRANCH  24  26
ATOM     25  C   UNL     1       0.220   8.639  21.537  0.00  0.00    +0.000 C 
ATOM     26  C   UNL     1       0.771   9.281  20.273  0.00  0.00    +0.000 C 
ENDBRANCH  24  26
ENDBRANCH  23  24
ENDBRANCH   1  23
TORSDOF 4
ENDMDL
MODEL 6
REMARK VINA RESULT:      -7.1      1.789      6.575
REMARK  Name = 
REMARK  5 active torsions:
REMARK  status: ('A' for Active; 'I' for Inactive)
REMARK    1  A    between atoms: C_1  and  C_2
REMARK    2  A    between atoms: C_2  and  C_3
REMARK    3  A    between atoms: C_3  and  C_4
REMARK    4  A    between atoms: C_4  and  C_5
REMARK    5  A    between atoms: C_15  and  C_16
REMARK                            x       y       z     vdW  Elec       q    Type
REMARK                         _______ _______ _______ _____ _____    ______ ____
ROOT
ATOM      1  C   UNL     1       2.653   5.662  20.017  0.00  0.00    +0.000 A 
ATOM      2  C   UNL     1       2.264   6.992  19.769  0.00  0.00    +0.000 A 
ATOM      3  C   UNL     1       2.558   7.520  18.512  0.00  0.00    +0.000 A 
ATOM      4  N   UNL     1       3.241   6.880  17.536  0.00  0.00    +0.000 NA
ATOM      5  C   UNL     1       3.689   5.636  17.802  0.00  0.00    +0.000 A 
ATOM      6  C   UNL     1       3.427   4.989  19.027  0.00  0.00    +0.000 A 
ATOM      7  C   UNL     1       3.967   3.595  19.274  0.00  0.00    +0.000 C 
ATOM      8  C   UNL     1       5.064   3.172  18.302  0.00  0.00    +0.000 C 
ATOM      9  C   UNL     1       4.650   3.480  16.875  0.00  0.00    +0.000 C 
ATOM     10  C   UNL     1       4.462   4.968  16.711  0.00  0.00    +0.000 C 
ATOM     11  C   UNL     1       4.979   5.671  15.680  0.00  0.00    +0.000 C 
ATOM     12  C   UNL     1       2.009   8.858  18.171  0.00  0.00    +0.000 C 
ATOM     13  O   UNL     1       2.537   9.607  17.352  0.00  0.00    +0.000 OA
ATOM     14  C   UNL     1       0.694   9.191  18.831  0.00  0.00    +0.000 C 
ATOM     15  C   UNL     1       0.713   8.960  20.333  0.00  0.00    +0.000 C 
ATOM     16  C   UNL     1       1.728   7.927  20.826  0.00  0.00    +0.000 C 
ENDROOT
BRANCH  11  17
ATOM     17  C   UNL     1       5.774   5.103  14.581  0.00  0.00    +0.000 A 
ATOM     18  C   UNL     1       5.222   4.134  13.736  0.00  0.00    +0.000 A 
ATOM     19  C   UNL     1       5.978   3.598  12.687  0.00  0.00    +0.000 A 
ATOM     20  C   UNL     1       7.289   4.025  12.482  0.00  0.00    +0.000 A 
ATOM     21  C   UNL     1       7.849   4.982  13.325  0.00  0.00    +0.000 A 
ATOM     22  C   UNL     1       7.093   5.519  14.373  0.00  0.00    +0.000 A 
ENDBRANCH  11  17
BRANCH   1  23
ATOM     23  C   UNL     1       2.246   4.974  21.312  0.00  0.00    +0.000 C 
BRANCH  23  24
ATOM     24  C   UNL     1       1.615   3.588  21.088  0.00  0.00    +0.000 C 
BRANCH  24  26
ATOM     25  C   UNL     1       0.623   2.503  19.043  0.00  0.00    +0.000 C 
ATOM     26  C   UNL     1       0.508   3.650  20.036  0.00  0.00    +0.000 C 
ENDBRANCH  24  26
ENDBRANCH  23  24
ENDBRANCH   1  23
TORSDOF 4
ENDMDL
MODEL 7
REMARK VINA RESULT:      -7.0      1.794      6.554
REMARK  Name = 
REMARK  5 active torsions:
REMARK  status: ('A' for Active; 'I' for Inactive)
REMARK    1  A    between atoms: C_1  and  C_2
REMARK    2  A    between atoms: C_2  and  C_3
REMARK    3  A    between atoms: C_3  and  C_4
REMARK    4  A    between atoms: C_4  and  C_5
REMARK    5  A    between atoms: C_15  and  C_16
REMARK                            x       y       z     vdW  Elec       q    Type
REMARK                         _______ _______ _______ _____ _____    ______ ____
ROOT
ATOM      1  C   UNL     1       2.732   5.627  19.782  0.00  0.00    +0.000 A 
ATOM      2  C   UNL     1       2.377   6.972  19.560  0.00  0.00    +0.000 A 
ATOM      3  C   UNL     1       2.701   7.523  18.320  0.00  0.00    +0.000 A 
ATOM      4  N   UNL     1       3.383   6.890  17.338  0.00  0.00    +0.000 NA
ATOM      5  C   UNL     1       3.798   5.630  17.581  0.00  0.00    +0.000 A 
ATOM      6  C   UNL     1       3.504   4.960  18.787  0.00  0.00    +0.000 A 
ATOM      7  C   UNL     1       4.009   3.548  19.007  0.00  0.00    +0.000 C 
ATOM      8  C   UNL     1       5.109   3.123  18.041  0.00  0.00    +0.000 C 
ATOM      9  C   UNL     1       4.722   3.475  16.615  0.00  0.00    +0.000 C 
ATOM     10  C   UNL     1       4.572   4.970  16.485  0.00  0.00    +0.000 C 
ATOM     11  C   UNL     1       5.119   5.685  15.478  0.00  0.00    +0.000 C 
ATOM     12  C   UNL     1       2.187   8.881  18.004  0.00  0.00    +0.000 C 
ATOM     13  O   UNL     1       2.744   9.636  17.210  0.00  0.00    +0.000 OA
ATOM     14  C   UNL     1       0.871   9.228  18.653  0.00  0.00    +0.000 C 
ATOM     15  C   UNL     1       0.864   8.961  20.149  0.00  0.00    +0.000 C 
ATOM     16  C   UNL     1       1.848   7.894  20.631  0.00  0.00    +0.000 C 
ENDROOT
BRANCH  11  17
ATOM     17  C   UNL     1       5.916   5.124  14.377  0.00  0.00    +0.000 A 
ATOM     18  C   UNL     1       7.220   5.576  14.145  0.00  0.00    +0.000 A 
ATOM     19  C   UNL     1       7.979   5.038  13.100  0.00  0.00    +0.000 A 
ATOM     20  C   UNL     1       7.438   4.049  12.281  0.00  0.00    +0.000 A 
ATOM     21  C   UNL     1       6.136   3.600  12.500  0.00  0.00    +0.000 A 
ATOM     22  C   UNL     1       5.377   4.137  13.545  0.00  0.00    +0.000 A 
ENDBRANCH  11  17
BRANCH   1  23
ATOM     23  C   UNL     1       2.291   4.919  21.054  0.00  0.00    +0.000 C 
BRANCH  23  24
ATOM     24  C   UNL     1       0.950   4.178  20.900  0.00  0.00    +0.000 C 
BRANCH  24  26
ATOM     25  C   UNL     1       0.684   2.454  19.083  0.00  0.00    +0.000 C 
ATOM     26  C   UNL     1       1.169   2.719  20.501  0.00  0.00    +0.000 C 
ENDBRANCH  24  26
ENDBRANCH  23  24
ENDBRANCH   1  23
TORSDOF 4
ENDMDL
MODEL 8
REMARK VINA RESULT:      -7.0      1.338      2.235
REMARK  Name = 
REMARK  5 active torsions:
REMARK  status: ('A' for Active; 'I' for Inactive)
REMARK    1  A    between atoms: C_1  and  C_2
REMARK    2  A    between atoms: C_2  and  C_3
REMARK    3  A    between atoms: C_3  and  C_4
REMARK    4  A    between atoms: C_4  and  C_5
REMARK    5  A    between atoms: C_15  and  C_16
REMARK                            x       y       z     vdW  Elec       q    Type
REMARK                         _______ _______ _______ _____ _____    ______ ____
ROOT
ATOM      1  C   UNL     1       2.272   6.080  19.920  0.00  0.00    +0.000 A 
ATOM      2  C   UNL     1       3.036   5.867  18.756  0.00  0.00    +0.000 A 
ATOM      3  C   UNL     1       3.315   6.979  17.962  0.00  0.00    +0.000 A 
ATOM      4  N   UNL     1       2.859   8.233  18.185  0.00  0.00    +0.000 NA
ATOM      5  C   UNL     1       2.056   8.423  19.253  0.00  0.00    +0.000 A 
ATOM      6  C   UNL     1       1.730   7.379  20.143  0.00  0.00    +0.000 A 
ATOM      7  C   UNL     1       0.812   7.651  21.318  0.00  0.00    +0.000 C 
ATOM      8  C   UNL     1       0.031   8.956  21.209  0.00  0.00    +0.000 C 
ATOM      9  C   UNL     1       0.957  10.092  20.814  0.00  0.00    +0.000 C 
ATOM     10  C   UNL     1       1.549   9.814  19.454  0.00  0.00    +0.000 C 
ATOM     11  C   UNL     1       1.593  10.732  18.464  0.00  0.00    +0.000 C 
ATOM     12  C   UNL     1       4.258   6.807  16.827  0.00  0.00    +0.000 C 
ATOM     13  O   UNL     1       4.233   7.520  15.825  0.00  0.00    +0.000 OA
ATOM     14  C   UNL     1       5.319   5.756  17.037  0.00  0.00    +0.000 C 
ATOM     15  C   UNL     1       4.746   4.425  17.496  0.00  0.00    +0.000 C 
ATOM     16  C   UNL     1       3.404   4.503  18.225  0.00  0.00    +0.000 C 
ENDROOT
BRANCH  11  17
ATOM     17  C   UNL     1       1.094  12.111  18.565  0.00  0.00    +0.000 A 
ATOM     18  C   UNL     1       1.985  13.177  18.732  0.00  0.00    +0.000 A 
ATOM     19  C   UNL     1       1.508  14.489  18.822  0.00  0.00    +0.000 A 
ATOM     20  C   UNL     1       0.139  14.742  18.750  0.00  0.00    +0.000 A 
ATOM     21  C   UNL     1      -0.756  13.685  18.593  0.00  0.00    +0.000 A 
ATOM     22  C   UNL     1      -0.279  12.373  18.501  0.00  0.00    +0.000 A 
ENDBRANCH  11  17
BRANCH   1  23
ATOM     23  C   UNL     1       2.044   4.943  20.905  0.00  0.00    +0.000 C 
BRANCH  23  24
ATOM     24  C   UNL     1       0.930   3.975  20.465  0.00  0.00    +0.000 C 
BRANCH  24  26
ATOM     25  C   UNL     1       2.628   2.439  21.514  0.00  0.00    +0.000 C 
ATOM     26  C   UNL     1       1.323   2.523  20.736  0.00  0.00    +0.000 C 
ENDBRANCH  24  26
ENDBRANCH  23  24
ENDBRANCH   1  23
TORSDOF 4
ENDMDL
MODEL 9
REMARK VINA RESULT:      -6.8      1.635      2.445
REMARK  Name = 
REMARK  5 active torsions:
REMARK  status: ('A' for Active; 'I' for Inactive)
REMARK    1  A    between atoms: C_1  and  C_2
REMARK    2  A    between atoms: C_2  and  C_3
REMARK    3  A    between atoms: C_3  and  C_4
REMARK    4  A    between atoms: C_4  and  C_5
REMARK    5  A    between atoms: C_15  and  C_16
REMARK                            x       y       z     vdW  Elec       q    Type
REMARK                         _______ _______ _______ _____ _____    ______ ____
ROOT
ATOM      1  C   UNL     1       3.567   3.500  17.791  0.00  0.00    +0.000 A 
ATOM      2  C   UNL     1       4.524   4.212  17.043  0.00  0.00    +0.000 A 
ATOM      3  C   UNL     1       4.664   5.573  17.314  0.00  0.00    +0.000 A 
ATOM      4  N   UNL     1       3.913   6.277  18.192  0.00  0.00    +0.000 NA
ATOM      5  C   UNL     1       2.939   5.614  18.848  0.00  0.00    +0.000 A 
ATOM      6  C   UNL     1       2.723   4.231  18.677  0.00  0.00    +0.000 A 
ATOM      7  C   UNL     1       1.603   3.544  19.433  0.00  0.00    +0.000 C 
ATOM      8  C   UNL     1       0.577   4.501  20.030  0.00  0.00    +0.000 C 
ATOM      9  C   UNL     1       1.276   5.631  20.764  0.00  0.00    +0.000 C 
ATOM     10  C   UNL     1       2.110   6.427  19.791  0.00  0.00    +0.000 C 
ATOM     11  C   UNL     1       2.097   7.776  19.734  0.00  0.00    +0.000 C 
ATOM     12  C   UNL     1       5.780   6.304  16.659  0.00  0.00    +0.000 C 
ATOM     13  O   UNL     1       5.747   7.513  16.438  0.00  0.00    +0.000 OA
ATOM     14  C   UNL     1       7.004   5.470  16.376  0.00  0.00    +0.000 C 
ATOM     15  C   UNL     1       6.680   4.175  15.648  0.00  0.00    +0.000 C 
ATOM     16  C   UNL     1       5.261   3.644  15.854  0.00  0.00    +0.000 C 
ENDROOT
BRANCH  11  17
ATOM     17  C   UNL     1       1.294   8.652  20.600  0.00  0.00    +0.000 A 
ATOM     18  C   UNL     1       1.430   8.590  21.992  0.00  0.00    +0.000 A 
ATOM     19  C   UNL     1       0.670   9.429  22.814  0.00  0.00    +0.000 A 
ATOM     20  C   UNL     1      -0.233  10.329  22.250  0.00  0.00    +0.000 A 
ATOM     21  C   UNL     1      -0.381  10.390  20.866  0.00  0.00    +0.000 A 
ATOM     22  C   UNL     1       0.380   9.553  20.043  0.00  0.00    +0.000 A 
ENDBRANCH  11  17
BRANCH   1  23
ATOM     23  C   UNL     1       3.453   1.989  17.649  0.00  0.00    +0.000 C 
BRANCH  23  24
ATOM     24  C   UNL     1       3.858   1.230  18.925  0.00  0.00    +0.000 C 
BRANCH  24  26
ATOM     25  C   UNL     1       5.155   1.343  21.081  0.00  0.00    +0.000 C 
ATOM     26  C   UNL     1       4.741   2.095  19.825  0.00  0.00    +0.000 C 
ENDBRANCH  24  26
ENDBRANCH  23  24
ENDBRANCH   1  23
TORSDOF 4
ENDMDL
