MODEL 1
REMARK VINA RESULT:      -6.0      0.000      0.000
REMARK  Name = 
REMARK  6 active torsions:
REMARK  status: ('A' for Active; 'I' for Inactive)
REMARK    1  A    between atoms: C_1  and  O_2
REMARK    2  A    between atoms: O_2  and  C_3
REMARK    3  A    between atoms: C_3  and  C_5
REMARK    4  A    between atoms: C_8  and  C_9
REMARK    5  A    between atoms: C_9  and  O_11
REMARK    6  A    between atoms: O_11  and  C_12
REMARK                            x       y       z     vdW  Elec       q    Type
REMARK                         _______ _______ _______ _____ _____    ______ ____
ROOT
ATOM      1  C   UNL     1       3.256   4.098  18.373  0.00  0.00    +0.000 A 
ATOM      2  C   UNL     1       3.641   4.037  17.028  0.00  0.00    +0.000 A 
ATOM      3  C   UNL     1       4.958   4.324  16.654  0.00  0.00    +0.000 A 
ATOM      4  C   UNL     1       5.908   4.674  17.623  0.00  0.00    +0.000 A 
ATOM      5  C   UNL     1       5.524   4.738  18.969  0.00  0.00    +0.000 A 
ATOM      6  C   UNL     1       4.203   4.452  19.343  0.00  0.00    +0.000 A 
ENDROOT
BRANCH   1   7
ATOM      7  C   UNL     1       1.844   3.770  18.707  0.00  0.00    +0.000 C 
ATOM      8  O   UNL     1       1.088   3.194  17.938  0.00  0.00    +0.000 OA
BRANCH   7  10
ATOM      9  C   UNL     1       1.193   3.130  20.854  0.00  0.00    +0.000 C 
ATOM     10  O   UNL     1       1.529   4.191  19.957  0.00  0.00    +0.000 OA
ENDBRANCH   7  10
ENDBRANCH   1   7
BRANCH   4  11
ATOM     11  C   UNL     1       7.293   4.965  17.162  0.00  0.00    +0.000 C 
ATOM     12  O   UNL     1       8.231   4.201  17.334  0.00  0.00    +0.000 OA
BRANCH  11  13
ATOM     13  O   UNL     1       7.355   6.169  16.540  0.00  0.00    +0.000 OA
ATOM     14  C   UNL     1       7.570   7.263  17.435  0.00  0.00    +0.000 C 
ENDBRANCH  11  13
ENDBRANCH   4  11
TORSDOF 4
ENDMDL
MODEL 2
REMARK VINA RESULT:      -6.0      1.737      2.130
REMARK  Name = 
REMARK  6 active torsions:
REMARK  status: ('A' for Active; 'I' for Inactive)
REMARK    1  A    between atoms: C_1  and  O_2
REMARK    2  A    between atoms: O_2  and  C_3
REMARK    3  A    between atoms: C_3  and  C_5
REMARK    4  A    between atoms: C_8  and  C_9
REMARK    5  A    between atoms: C_9  and  O_11
REMARK    6  A    between atoms: O_11  and  C_12
REMARK                            x       y       z     vdW  Elec       q    Type
REMARK                         _______ _______ _______ _____ _____    ______ ____
ROOT
ATOM      1  C   UNL     1       2.077   3.822  18.353  0.00  0.00    +0.000 A 
ATOM      2  C   UNL     1       2.961   3.061  17.579  0.00  0.00    +0.000 A 
ATOM      3  C   UNL     1       4.021   3.675  16.904  0.00  0.00    +0.000 A 
ATOM      4  C   UNL     1       4.211   5.060  16.997  0.00  0.00    +0.000 A 
ATOM      5  C   UNL     1       3.325   5.825  17.769  0.00  0.00    +0.000 A 
ATOM      6  C   UNL     1       2.262   5.209  18.444  0.00  0.00    +0.000 A 
ENDROOT
BRANCH   1   7
ATOM      7  C   UNL     1       0.977   3.108  19.056  0.00  0.00    +0.000 C 
ATOM      8  O   UNL     1       0.319   2.216  18.541  0.00  0.00    +0.000 OA
BRANCH   7  10
ATOM      9  C   UNL     1       1.433   2.764  21.318  0.00  0.00    +0.000 C 
ATOM     10  O   UNL     1       0.819   3.580  20.318  0.00  0.00    +0.000 OA
ENDBRANCH   7  10
ENDBRANCH   1   7
BRANCH   4  11
ATOM     11  C   UNL     1       5.358   5.654  16.257  0.00  0.00    +0.000 C 
ATOM     12  O   UNL     1       5.335   6.776  15.773  0.00  0.00    +0.000 OA
BRANCH  11  13
ATOM     13  O   UNL     1       6.402   4.790  16.207  0.00  0.00    +0.000 OA
ATOM     14  C   UNL     1       7.041   4.740  14.930  0.00  0.00    +0.000 C 
ENDBRANCH  11  13
ENDBRANCH   4  11
TORSDOF 4
ENDMDL
MODEL 3
REMARK VINA RESULT:      -6.0      1.467      2.057
REMARK  Name = 
REMARK  6 active torsions:
REMARK  status: ('A' for Active; 'I' for Inactive)
REMARK    1  A    between atoms: C_1  and  O_2
REMARK    2  A    between atoms: O_2  and  C_3
REMARK    3  A    between atoms: C_3  and  C_5
REMARK    4  A    between atoms: C_8  and  C_9
REMARK    5  A    between atoms: C_9  and  O_11
REMARK    6  A    between atoms: O_11  and  C_12
REMARK                            x       y       z     vdW  Elec       q    Type
REMARK                         _______ _______ _______ _____ _____    ______ ____
ROOT
ATOM      1  C   UNL     1       2.168   3.815  18.275  0.00  0.00    +0.000 A 
ATOM      2  C   UNL     1       2.266   5.208  18.390  0.00  0.00    +0.000 A 
ATOM      3  C   UNL     1       3.312   5.897  17.769  0.00  0.00    +0.000 A 
ATOM      4  C   UNL     1       4.274   5.204  17.023  0.00  0.00    +0.000 A 
ATOM      5  C   UNL     1       4.179   3.809  16.909  0.00  0.00    +0.000 A 
ATOM      6  C   UNL     1       3.132   3.118  17.533  0.00  0.00    +0.000 A 
ENDROOT
BRANCH   1   7
ATOM      7  C   UNL     1       1.026   3.141  18.948  0.00  0.00    +0.000 C 
ATOM      8  O   UNL     1       0.388   2.232  18.439  0.00  0.00    +0.000 OA
BRANCH   7  10
ATOM      9  C   UNL     1       1.381   2.907  21.243  0.00  0.00    +0.000 C 
ATOM     10  O   UNL     1       0.806   3.669  20.179  0.00  0.00    +0.000 OA
ENDBRANCH   7  10
ENDBRANCH   1   7
BRANCH   4  11
ATOM     11  C   UNL     1       5.361   5.995  16.385  0.00  0.00    +0.000 C 
ATOM     12  O   UNL     1       5.171   6.768  15.458  0.00  0.00    +0.000 OA
BRANCH  11  13
ATOM     13  O   UNL     1       6.557   5.738  16.971  0.00  0.00    +0.000 OA
ATOM     14  C   UNL     1       7.233   6.912  17.427  0.00  0.00    +0.000 C 
ENDBRANCH  11  13
ENDBRANCH   4  11
TORSDOF 4
ENDMDL
MODEL 4
REMARK VINA RESULT:      -5.9      1.428      5.649
REMARK  Name = 
REMARK  6 active torsions:
REMARK  status: ('A' for Active; 'I' for Inactive)
REMARK    1  A    between atoms: C_1  and  O_2
REMARK    2  A    between atoms: O_2  and  C_3
REMARK    3  A    between atoms: C_3  and  C_5
REMARK    4  A    between atoms: C_8  and  C_9
REMARK    5  A    between atoms: C_9  and  O_11
REMARK    6  A    between atoms: O_11  and  C_12
REMARK                            x       y       z     vdW  Elec       q    Type
REMARK                         _______ _______ _______ _____ _____    ______ ____
ROOT
ATOM      1  C   UNL     1       4.306   5.109  17.022  0.00  0.00    +0.000 A 
ATOM      2  C   UNL     1       3.346   5.841  17.733  0.00  0.00    +0.000 A 
ATOM      3  C   UNL     1       2.282   5.189  18.363  0.00  0.00    +0.000 A 
ATOM      4  C   UNL     1       2.164   3.794  18.291  0.00  0.00    +0.000 A 
ATOM      5  C   UNL     1       3.122   3.060  17.578  0.00  0.00    +0.000 A 
ATOM      6  C   UNL     1       4.188   3.715  16.945  0.00  0.00    +0.000 A 
ENDROOT
BRANCH   1   7
ATOM      7  C   UNL     1       5.421   5.861  16.384  0.00  0.00    +0.000 C 
ATOM      8  O   UNL     1       5.247   6.794  15.614  0.00  0.00    +0.000 OA
BRANCH   7  10
ATOM      9  C   UNL     1       7.197   6.070  17.883  0.00  0.00    +0.000 C 
ATOM     10  O   UNL     1       6.624   5.371  16.775  0.00  0.00    +0.000 OA
ENDBRANCH   7  10
ENDBRANCH   1   7
BRANCH   4  11
ATOM     11  C   UNL     1       1.011   3.158  18.985  0.00  0.00    +0.000 C 
ATOM     12  O   UNL     1       0.330   2.277  18.483  0.00  0.00    +0.000 OA
BRANCH  11  13
ATOM     13  O   UNL     1       0.837   3.688  20.221  0.00  0.00    +0.000 OA
ATOM     14  C   UNL     1       1.436   2.913  21.263  0.00  0.00    +0.000 C 
ENDBRANCH  11  13
ENDBRANCH   4  11
TORSDOF 4
ENDMDL
MODEL 5
REMARK VINA RESULT:      -5.9      0.208      1.308
REMARK  Name = 
REMARK  6 active torsions:
REMARK  status: ('A' for Active; 'I' for Inactive)
REMARK    1  A    between atoms: C_1  and  O_2
REMARK    2  A    between atoms: O_2  and  C_3
REMARK    3  A    between atoms: C_3  and  C_5
REMARK    4  A    between atoms: C_8  and  C_9
REMARK    5  A    between atoms: C_9  and  O_11
REMARK    6  A    between atoms: O_11  and  C_12
REMARK                            x       y       z     vdW  Elec       q    Type
REMARK                         _______ _______ _______ _____ _____    ______ ____
ROOT
ATOM      1  C   UNL     1       3.252   3.867  18.279  0.00  0.00    +0.000 A 
ATOM      2  C   UNL     1       4.229   4.165  19.237  0.00  0.00    +0.000 A 
ATOM      3  C   UNL     1       5.529   4.499  18.843  0.00  0.00    +0.000 A 
ATOM      4  C   UNL     1       5.868   4.540  17.484  0.00  0.00    +0.000 A 
ATOM      5  C   UNL     1       4.892   4.239  16.524  0.00  0.00    +0.000 A 
ATOM      6  C   UNL     1       3.590   3.903  16.919  0.00  0.00    +0.000 A 
ENDROOT
BRANCH   1   7
ATOM      7  C   UNL     1       1.885   3.531  18.762  0.00  0.00    +0.000 C 
ATOM      8  O   UNL     1       1.072   2.909  18.095  0.00  0.00    +0.000 OA
BRANCH   7  10
ATOM      9  C   UNL     1       1.201   3.017  20.932  0.00  0.00    +0.000 C 
ATOM     10  O   UNL     1       1.684   4.003  20.018  0.00  0.00    +0.000 OA
ENDBRANCH   7  10
ENDBRANCH   1   7
BRANCH   4  11
ATOM     11  C   UNL     1       7.267   4.904  17.129  0.00  0.00    +0.000 C 
ATOM     12  O   UNL     1       8.230   4.198  17.388  0.00  0.00    +0.000 OA
BRANCH  11  13
ATOM     13  O   UNL     1       7.309   6.100  16.491  0.00  0.00    +0.000 OA
ATOM     14  C   UNL     1       7.510   7.209  17.370  0.00  0.00    +0.000 C 
ENDBRANCH  11  13
ENDBRANCH   4  11
TORSDOF 4
ENDMDL
MODEL 6
REMARK VINA RESULT:      -5.9      0.296      5.580
REMARK  Name = 
REMARK  6 active torsions:
REMARK  status: ('A' for Active; 'I' for Inactive)
REMARK    1  A    between atoms: C_1  and  O_2
REMARK    2  A    between atoms: O_2  and  C_3
REMARK    3  A    between atoms: C_3  and  C_5
REMARK    4  A    between atoms: C_8  and  C_9
REMARK    5  A    between atoms: C_9  and  O_11
REMARK    6  A    between atoms: O_11  and  C_12
REMARK                            x       y       z     vdW  Elec       q    Type
REMARK                         _______ _______ _______ _____ _____    ______ ____
ROOT
ATOM      1  C   UNL     1       5.731   4.831  17.630  0.00  0.00    +0.000 A 
ATOM      2  C   UNL     1       4.881   4.115  16.777  0.00  0.00    +0.000 A 
ATOM      3  C   UNL     1       3.591   3.769  17.189  0.00  0.00    +0.000 A 
ATOM      4  C   UNL     1       3.132   4.136  18.462  0.00  0.00    +0.000 A 
ATOM      5  C   UNL     1       3.982   4.850  19.318  0.00  0.00    +0.000 A 
ATOM      6  C   UNL     1       5.276   5.195  18.904  0.00  0.00    +0.000 A 
ENDROOT
BRANCH   1   7
ATOM      7  C   UNL     1       7.087   5.179  17.127  0.00  0.00    +0.000 C 
ATOM      8  O   UNL     1       8.040   4.414  17.180  0.00  0.00    +0.000 OA
BRANCH   7  10
ATOM      9  C   UNL     1       7.600   7.420  17.525  0.00  0.00    +0.000 C 
ATOM     10  O   UNL     1       7.108   6.434  16.614  0.00  0.00    +0.000 OA
ENDBRANCH   7  10
ENDBRANCH   1   7
BRANCH   4  11
ATOM     11  C   UNL     1       1.748   3.740  18.842  0.00  0.00    +0.000 C 
ATOM     12  O   UNL     1       0.990   3.148  18.089  0.00  0.00    +0.000 OA
BRANCH  11  13
ATOM     13  O   UNL     1       1.466   4.123  20.112  0.00  0.00    +0.000 OA
ATOM     14  C   UNL     1       1.255   3.027  21.004  0.00  0.00    +0.000 C 
ENDBRANCH  11  13
ENDBRANCH   4  11
TORSDOF 4
ENDMDL
MODEL 7
REMARK VINA RESULT:      -5.8      1.503      5.592
REMARK  Name = 
REMARK  6 active torsions:
REMARK  status: ('A' for Active; 'I' for Inactive)
REMARK    1  A    between atoms: C_1  and  O_2
REMARK    2  A    between atoms: O_2  and  C_3
REMARK    3  A    between atoms: C_3  and  C_5
REMARK    4  A    between atoms: C_8  and  C_9
REMARK    5  A    between atoms: C_9  and  O_11
REMARK    6  A    between atoms: O_11  and  C_12
REMARK                            x       y       z     vdW  Elec       q    Type
REMARK                         _______ _______ _______ _____ _____    ______ ____
ROOT
ATOM      1  C   UNL     1       4.318   5.124  17.020  0.00  0.00    +0.000 A 
ATOM      2  C   UNL     1       4.411   3.727  16.991  0.00  0.00    +0.000 A 
ATOM      3  C   UNL     1       3.444   2.940  17.623  0.00  0.00    +0.000 A 
ATOM      4  C   UNL     1       2.370   3.540  18.293  0.00  0.00    +0.000 A 
ATOM      5  C   UNL     1       2.276   4.938  18.327  0.00  0.00    +0.000 A 
ATOM      6  C   UNL     1       3.247   5.727  17.693  0.00  0.00    +0.000 A 
ENDROOT
BRANCH   1   7
ATOM      7  C   UNL     1       5.371   5.906  16.318  0.00  0.00    +0.000 C 
ATOM      8  O   UNL     1       5.126   6.771  15.490  0.00  0.00    +0.000 OA
BRANCH   7  10
ATOM      9  C   UNL     1       7.245   6.469  17.589  0.00  0.00    +0.000 C 
ATOM     10  O   UNL     1       6.609   5.527  16.723  0.00  0.00    +0.000 OA
ENDBRANCH   7  10
ENDBRANCH   1   7
BRANCH   4  11
ATOM     11  C   UNL     1       1.372   2.648  18.945  0.00  0.00    +0.000 C 
ATOM     12  O   UNL     1       0.274   2.408  18.467  0.00  0.00    +0.000 OA
BRANCH  11  13
ATOM     13  O   UNL     1       1.854   2.153  20.113  0.00  0.00    +0.000 OA
ATOM     14  C   UNL     1       1.377   2.848  21.267  0.00  0.00    +0.000 C 
ENDBRANCH  11  13
ENDBRANCH   4  11
TORSDOF 4
ENDMDL
MODEL 8
REMARK VINA RESULT:      -5.8      2.389      5.688
REMARK  Name = 
REMARK  6 active torsions:
REMARK  status: ('A' for Active; 'I' for Inactive)
REMARK    1  A    between atoms: C_1  and  O_2
REMARK    2  A    between atoms: O_2  and  C_3
REMARK    3  A    between atoms: C_3  and  C_5
REMARK    4  A    between atoms: C_8  and  C_9
REMARK    5  A    between atoms: C_9  and  O_11
REMARK    6  A    between atoms: O_11  and  C_12
REMARK                            x       y       z     vdW  Elec       q    Type
REMARK                         _______ _______ _______ _____ _____    ______ ____
ROOT
ATOM      1  C   UNL     1       5.586   5.177  15.814  0.00  0.00    +0.000 A 
ATOM      2  C   UNL     1       4.832   4.170  16.431  0.00  0.00    +0.000 A 
ATOM      3  C   UNL     1       3.876   4.493  17.399  0.00  0.00    +0.000 A 
ATOM      4  C   UNL     1       3.659   5.829  17.761  0.00  0.00    +0.000 A 
ATOM      5  C   UNL     1       4.413   6.838  17.147  0.00  0.00    +0.000 A 
ATOM      6  C   UNL     1       5.373   6.514  16.178  0.00  0.00    +0.000 A 
ENDROOT
BRANCH   1   7
ATOM      7  C   UNL     1       6.579   4.769  14.784  0.00  0.00    +0.000 C 
ATOM      8  O   UNL     1       7.597   5.402  14.546  0.00  0.00    +0.000 OA
BRANCH   7  10
ATOM      9  C   UNL     1       6.309   3.670  12.744  0.00  0.00    +0.000 C 
ATOM     10  O   UNL     1       6.197   3.622  14.168  0.00  0.00    +0.000 OA
ENDBRANCH   7  10
ENDBRANCH   1   7
BRANCH   4  11
ATOM     11  C   UNL     1       2.625   6.108  18.796  0.00  0.00    +0.000 C 
ATOM     12  O   UNL     1       2.379   7.230  19.210  0.00  0.00    +0.000 OA
BRANCH  11  13
ATOM     13  O   UNL     1       2.015   4.964  19.193  0.00  0.00    +0.000 OA
ATOM     14  C   UNL     1       1.667   4.955  20.579  0.00  0.00    +0.000 C 
ENDBRANCH  11  13
ENDBRANCH   4  11
TORSDOF 4
ENDMDL
MODEL 9
REMARK VINA RESULT:      -5.8      1.745      2.129
REMARK  Name = 
REMARK  6 active torsions:
REMARK  status: ('A' for Active; 'I' for Inactive)
REMARK    1  A    between atoms: C_1  and  O_2
REMARK    2  A    between atoms: O_2  and  C_3
REMARK    3  A    between atoms: C_3  and  C_5
REMARK    4  A    between atoms: C_8  and  C_9
REMARK    5  A    between atoms: C_9  and  O_11
REMARK    6  A    between atoms: O_11  and  C_12
REMARK                            x       y       z     vdW  Elec       q    Type
REMARK                         _______ _______ _______ _____ _____    ______ ____
ROOT
ATOM      1  C   UNL     1       2.377   4.036  18.187  0.00  0.00    +0.000 A 
ATOM      2  C   UNL     1       2.480   5.433  18.218  0.00  0.00    +0.000 A 
ATOM      3  C   UNL     1       3.539   6.079  17.574  0.00  0.00    +0.000 A 
ATOM      4  C   UNL     1       4.510   5.337  16.888  0.00  0.00    +0.000 A 
ATOM      5  C   UNL     1       4.410   3.939  16.858  0.00  0.00    +0.000 A 
ATOM      6  C   UNL     1       3.349   3.291  17.505  0.00  0.00    +0.000 A 
ENDROOT
BRANCH   1   7
ATOM      7  C   UNL     1       1.220   3.409  18.881  0.00  0.00    +0.000 C 
ATOM      8  O   UNL     1       0.574   2.486  18.409  0.00  0.00    +0.000 OA
BRANCH   7  10
ATOM      9  C   UNL     1       1.579   3.295  21.184  0.00  0.00    +0.000 C 
ATOM     10  O   UNL     1       0.997   3.997  20.083  0.00  0.00    +0.000 OA
ENDBRANCH   7  10
ENDBRANCH   1   7
BRANCH   4  11
ATOM     11  C   UNL     1       5.611   6.083  16.221  0.00  0.00    +0.000 C 
ATOM     12  O   UNL     1       6.282   6.934  16.785  0.00  0.00    +0.000 OA
BRANCH  11  13
ATOM     13  O   UNL     1       5.755   5.686  14.932  0.00  0.00    +0.000 OA
ATOM     14  C   UNL     1       6.967   4.968  14.688  0.00  0.00    +0.000 C 
ENDBRANCH  11  13
ENDBRANCH   4  11
TORSDOF 4
ENDMDL
