MODEL 1
REMARK VINA RESULT:      -9.4      0.000      0.000
REMARK  Name = 
REMARK  5 active torsions:
REMARK  status: ('A' for Active; 'I' for Inactive)
REMARK    1  A    between atoms: C_9  and  C_10
REMARK    2  A    between atoms: N_12  and  C_13
REMARK    3  A    between atoms: C_17  and  C_18
REMARK    4  A    between atoms: C_18  and  N_19
REMARK    5  A    between atoms: N_22  and  C_23
REMARK                            x       y       z     vdW  Elec       q    Type
REMARK                         _______ _______ _______ _____ _____    ______ ____
ROOT
ATOM      1  C   UNL     1       3.244   6.371  18.551  0.00  0.00    +0.000 A 
ATOM      2  C   UNL     1       2.726   5.149  18.114  0.00  0.00    +0.000 A 
ATOM      3  C   UNL     1       3.467   4.312  17.278  0.00  0.00    +0.000 A 
ATOM      4  C   UNL     1       4.751   4.675  16.888  0.00  0.00    +0.000 A 
ATOM      5  C   UNL     1       5.309   5.873  17.346  0.00  0.00    +0.000 A 
ATOM      6  C   UNL     1       4.543   6.723  18.163  0.00  0.00    +0.000 A 
ENDROOT
BRANCH   1   9
ATOM      7  C   UNL     1       1.929   8.436  19.026  0.00  0.00    +0.000 C 
ATOM      8  O   UNL     1       2.051   8.963  17.922  0.00  0.00    +0.000 OA
ATOM      9  N   UNL     1       2.546   7.261  19.401  0.00  0.00    +0.000 N 
ATOM     10  H   UNL     1       2.529   7.016  20.389  0.00  0.00    +0.000 HD
BRANCH   7  19
ATOM     11  N   UNL     1       1.629  11.766  18.085  0.00  0.00    +0.000 N 
ATOM     12  C   UNL     1       0.865  11.673  19.203  0.00  0.00    +0.000 A 
ATOM     13  N   UNL     1       0.192  12.718  19.681  0.00  0.00    +0.000 NA
ATOM     14  O   UNL     1      -0.412  12.277  20.837  0.00  0.00    +0.000 OA
ATOM     15  C   UNL     1      -0.125  10.964  21.024  0.00  0.00    +0.000 A 
ATOM     16  C   UNL     1      -0.579  10.204  22.100  0.00  0.00    +0.000 A 
ATOM     17  C   UNL     1      -0.203   8.867  22.120  0.00  0.00    +0.000 A 
ATOM     18  C   UNL     1       0.590   8.346  21.100  0.00  0.00    +0.000 A 
ATOM     19  C   UNL     1       1.057   9.136  20.013  0.00  0.00    +0.000 A 
ATOM     20  C   UNL     1       0.684  10.500  19.990  0.00  0.00    +0.000 A 
ATOM     21  H   UNL     1       1.479  12.666  17.620  0.00  0.00    +0.000 HD
ATOM     22  H   UNL     1       2.634  11.730  18.277  0.00  0.00    +0.000 HD
ENDBRANCH   7  19
ENDBRANCH   1   9
BRANCH   5  23
ATOM     23  C   UNL     1       6.720   6.231  16.983  0.00  0.00    +0.000 C 
BRANCH  23  24
ATOM     24  N   UNL     1       6.945   7.656  16.962  0.00  0.00    +0.000 N 
ATOM     25  C   UNL     1       7.886   8.139  17.845  0.00  0.00    +0.000 C 
ATOM     26  O   UNL     1       8.450   7.405  18.648  0.00  0.00    +0.000 OA
ATOM     27  N   UNL     1       8.071   9.500  17.720  0.00  0.00    +0.000 N 
ATOM     28  H   UNL     1       6.936   8.101  16.053  0.00  0.00    +0.000 HD
ATOM     29  H   UNL     1       7.303  10.004  17.297  0.00  0.00    +0.000 HD
BRANCH  27  30
ATOM     30  C   UNL     1       9.045  10.253  18.409  0.00  0.00    +0.000 A 
ATOM     31  C   UNL     1       9.101  10.323  19.808  0.00  0.00    +0.000 A 
ATOM     32  C   UNL     1      10.074  11.095  20.447  0.00  0.00    +0.000 A 
ATOM     33  C   UNL     1      11.001  11.790  19.685  0.00  0.00    +0.000 A 
ATOM     34  F   UNL     1      11.932  12.534  20.296  0.00  0.00    +0.000 F 
ATOM     35  C   UNL     1      10.977  11.720  18.298  0.00  0.00    +0.000 A 
ATOM     36  C   UNL     1      10.004  10.944  17.658  0.00  0.00    +0.000 A 
ENDBRANCH  27  30
ENDBRANCH  23  24
ENDBRANCH   5  23
TORSDOF 5
ENDMDL
MODEL 2
REMARK VINA RESULT:      -9.4      4.752      5.429
REMARK  Name = 
REMARK  5 active torsions:
REMARK  status: ('A' for Active; 'I' for Inactive)
REMARK    1  A    between atoms: C_9  and  C_10
REMARK    2  A    between atoms: N_12  and  C_13
REMARK    3  A    between atoms: C_17  and  C_18
REMARK    4  A    between atoms: C_18  and  N_19
REMARK    5  A    between atoms: N_22  and  C_23
REMARK                            x       y       z     vdW  Elec       q    Type
REMARK                         _______ _______ _______ _____ _____    ______ ____
ROOT
ATOM      1  C   UNL     1       1.817   5.540  20.572  0.00  0.00    +0.000 A 
ATOM      2  C   UNL     1       1.091   4.347  20.525  0.00  0.00    +0.000 A 
ATOM      3  C   UNL     1       1.658   3.181  20.008  0.00  0.00    +0.000 A 
ATOM      4  C   UNL     1       2.972   3.186  19.554  0.00  0.00    +0.000 A 
ATOM      5  C   UNL     1       3.734   4.358  19.630  0.00  0.00    +0.000 A 
ATOM      6  C   UNL     1       3.144   5.534  20.124  0.00  0.00    +0.000 A 
ENDROOT
BRANCH   1   9
ATOM      7  C   UNL     1       1.276   7.971  20.441  0.00  0.00    +0.000 C 
ATOM      8  O   UNL     1       1.859   8.211  19.386  0.00  0.00    +0.000 OA
ATOM      9  N   UNL     1       1.302   6.753  21.088  0.00  0.00    +0.000 N 
ATOM     10  H   UNL     1       0.945   6.720  22.040  0.00  0.00    +0.000 HD
BRANCH   7  19
ATOM     11  N   UNL     1       0.464  10.250  17.949  0.00  0.00    +0.000 N 
ATOM     12  C   UNL     1      -0.097  10.776  19.067  0.00  0.00    +0.000 A 
ATOM     13  N   UNL     1      -0.798  11.909  19.034  0.00  0.00    +0.000 NA
ATOM     14  O   UNL     1      -1.156  12.164  20.339  0.00  0.00    +0.000 OA
ATOM     15  C   UNL     1      -0.700  11.166  21.137  0.00  0.00    +0.000 A 
ATOM     16  C   UNL     1      -0.891  11.113  22.516  0.00  0.00    +0.000 A 
ATOM     17  C   UNL     1      -0.370  10.004  23.172  0.00  0.00    +0.000 A 
ATOM     18  C   UNL     1       0.303   9.017  22.457  0.00  0.00    +0.000 A 
ATOM     19  C   UNL     1       0.500   9.091  21.050  0.00  0.00    +0.000 A 
ATOM     20  C   UNL     1      -0.020  10.220  20.376  0.00  0.00    +0.000 A 
ATOM     21  H   UNL     1       0.142  10.751  17.116  0.00  0.00    +0.000 HD
ATOM     22  H   UNL     1       1.484  10.331  17.931  0.00  0.00    +0.000 HD
ENDBRANCH   7  19
ENDBRANCH   1   9
BRANCH   5  23
ATOM     23  C   UNL     1       5.174   4.345  19.205  0.00  0.00    +0.000 C 
BRANCH  23  24
ATOM     24  N   UNL     1       5.394   3.567  18.010  0.00  0.00    +0.000 N 
ATOM     25  C   UNL     1       5.659   4.277  16.860  0.00  0.00    +0.000 C 
ATOM     26  O   UNL     1       5.642   5.502  16.842  0.00  0.00    +0.000 OA
ATOM     27  N   UNL     1       5.906   3.453  15.781  0.00  0.00    +0.000 N 
ATOM     28  H   UNL     1       5.920   2.710  18.120  0.00  0.00    +0.000 HD
ATOM     29  H   UNL     1       5.534   2.516  15.859  0.00  0.00    +0.000 HD
BRANCH  27  30
ATOM     30  C   UNL     1       6.315   3.890  14.504  0.00  0.00    +0.000 A 
ATOM     31  C   UNL     1       5.766   3.385  13.317  0.00  0.00    +0.000 A 
ATOM     32  C   UNL     1       6.214   3.836  12.074  0.00  0.00    +0.000 A 
ATOM     33  C   UNL     1       7.206   4.803  12.016  0.00  0.00    +0.000 A 
ATOM     34  F   UNL     1       7.640   5.233  10.824  0.00  0.00    +0.000 F 
ATOM     35  C   UNL     1       7.752   5.331  13.179  0.00  0.00    +0.000 A 
ATOM     36  C   UNL     1       7.301   4.882  14.425  0.00  0.00    +0.000 A 
ENDBRANCH  27  30
ENDBRANCH  23  24
ENDBRANCH   5  23
TORSDOF 5
ENDMDL
MODEL 3
REMARK VINA RESULT:      -9.1      1.360      1.864
REMARK  Name = 
REMARK  5 active torsions:
REMARK  status: ('A' for Active; 'I' for Inactive)
REMARK    1  A    between atoms: C_9  and  C_10
REMARK    2  A    between atoms: N_12  and  C_13
REMARK    3  A    between atoms: C_17  and  C_18
REMARK    4  A    between atoms: C_18  and  N_19
REMARK    5  A    between atoms: N_22  and  C_23
REMARK                            x       y       z     vdW  Elec       q    Type
REMARK                         _______ _______ _______ _____ _____    ______ ____
ROOT
ATOM      1  C   UNL     1       3.046   6.416  18.141  0.00  0.00    +0.000 A 
ATOM      2  C   UNL     1       2.632   5.113  17.850  0.00  0.00    +0.000 A 
ATOM      3  C   UNL     1       3.511   4.190  17.281  0.00  0.00    +0.000 A 
ATOM      4  C   UNL     1       4.828   4.550  17.018  0.00  0.00    +0.000 A 
ATOM      5  C   UNL     1       5.279   5.836  17.340  0.00  0.00    +0.000 A 
ATOM      6  C   UNL     1       4.378   6.767  17.884  0.00  0.00    +0.000 A 
ENDROOT
BRANCH   1   9
ATOM      7  C   UNL     1       1.941   8.650  18.213  0.00  0.00    +0.000 C 
ATOM      8  O   UNL     1       2.540   9.158  17.266  0.00  0.00    +0.000 OA
ATOM      9  N   UNL     1       2.206   7.395  18.721  0.00  0.00    +0.000 N 
ATOM     10  H   UNL     1       1.786   7.153  19.615  0.00  0.00    +0.000 HD
BRANCH   7  19
ATOM     11  N   UNL     1       1.987   8.097  21.641  0.00  0.00    +0.000 N 
ATOM     12  C   UNL     1       0.987   8.998  21.470  0.00  0.00    +0.000 A 
ATOM     13  N   UNL     1       0.296   9.484  22.501  0.00  0.00    +0.000 NA
ATOM     14  O   UNL     1      -0.659  10.311  21.953  0.00  0.00    +0.000 OA
ATOM     15  C   UNL     1      -0.511  10.342  20.605  0.00  0.00    +0.000 A 
ATOM     16  C   UNL     1      -1.316  11.084  19.742  0.00  0.00    +0.000 A 
ATOM     17  C   UNL     1      -1.007  11.013  18.390  0.00  0.00    +0.000 A 
ATOM     18  C   UNL     1       0.059  10.229  17.953  0.00  0.00    +0.000 A 
ATOM     19  C   UNL     1       0.864   9.467  18.844  0.00  0.00    +0.000 A 
ATOM     20  C   UNL     1       0.551   9.529  20.222  0.00  0.00    +0.000 A 
ATOM     21  H   UNL     1       2.206   7.988  22.636  0.00  0.00    +0.000 HD
ATOM     22  H   UNL     1       1.745   7.157  21.318  0.00  0.00    +0.000 HD
ENDBRANCH   7  19
ENDBRANCH   1   9
BRANCH   5  23
ATOM     23  C   UNL     1       6.718   6.202  17.122  0.00  0.00    +0.000 C 
BRANCH  23  24
ATOM     24  N   UNL     1       6.928   7.629  17.082  0.00  0.00    +0.000 N 
ATOM     25  C   UNL     1       7.880   8.129  17.943  0.00  0.00    +0.000 C 
ATOM     26  O   UNL     1       8.465   7.410  18.744  0.00  0.00    +0.000 OA
ATOM     27  N   UNL     1       8.050   9.491  17.801  0.00  0.00    +0.000 N 
ATOM     28  H   UNL     1       6.900   8.064  16.169  0.00  0.00    +0.000 HD
ATOM     29  H   UNL     1       7.270   9.983  17.386  0.00  0.00    +0.000 HD
BRANCH  27  30
ATOM     30  C   UNL     1       9.028  10.261  18.465  0.00  0.00    +0.000 A 
ATOM     31  C   UNL     1       9.075  10.390  19.861  0.00  0.00    +0.000 A 
ATOM     32  C   UNL     1      10.053  11.175  20.473  0.00  0.00    +0.000 A 
ATOM     33  C   UNL     1      10.995  11.826  19.690  0.00  0.00    +0.000 A 
ATOM     34  F   UNL     1      11.931  12.584  20.276  0.00  0.00    +0.000 F 
ATOM     35  C   UNL     1      10.980  11.697  18.307  0.00  0.00    +0.000 A 
ATOM     36  C   UNL     1      10.001  10.907  17.692  0.00  0.00    +0.000 A 
ENDBRANCH  27  30
ENDBRANCH  23  24
ENDBRANCH   5  23
TORSDOF 5
ENDMDL
MODEL 4
REMARK VINA RESULT:      -9.0      1.344      1.690
REMARK  Name = 
REMARK  5 active torsions:
REMARK  status: ('A' for Active; 'I' for Inactive)
REMARK    1  A    between atoms: C_9  and  C_10
REMARK    2  A    between atoms: N_12  and  C_13
REMARK    3  A    between atoms: C_17  and  C_18
REMARK    4  A    between atoms: C_18  and  N_19
REMARK    5  A    between atoms: N_22  and  C_23
REMARK                            x       y       z     vdW  Elec       q    Type
REMARK                         _______ _______ _______ _____ _____    ______ ____
ROOT
ATOM      1  C   UNL     1       2.978   6.861  18.358  0.00  0.00    +0.000 A 
ATOM      2  C   UNL     1       2.465   5.596  18.059  0.00  0.00    +0.000 A 
ATOM      3  C   UNL     1       3.239   4.646  17.390  0.00  0.00    +0.000 A 
ATOM      4  C   UNL     1       4.549   4.940  17.033  0.00  0.00    +0.000 A 
ATOM      5  C   UNL     1       5.101   6.184  17.359  0.00  0.00    +0.000 A 
ATOM      6  C   UNL     1       4.304   7.144  18.005  0.00  0.00    +0.000 A 
ENDROOT
BRANCH   1   9
ATOM      7  C   UNL     1       1.610   8.943  18.460  0.00  0.00    +0.000 C 
ATOM      8  O   UNL     1       1.736   9.278  17.284  0.00  0.00    +0.000 OA
ATOM      9  N   UNL     1       2.247   7.864  19.037  0.00  0.00    +0.000 N 
ATOM     10  H   UNL     1       2.221   7.791  20.051  0.00  0.00    +0.000 HD
BRANCH   7  19
ATOM     11  N   UNL     1      -1.243   9.703  16.629  0.00  0.00    +0.000 N 
ATOM     12  C   UNL     1      -1.460  10.295  17.831  0.00  0.00    +0.000 A 
ATOM     13  N   UNL     1      -2.585  10.957  18.094  0.00  0.00    +0.000 NA
ATOM     14  O   UNL     1      -2.431  11.465  19.365  0.00  0.00    +0.000 OA
ATOM     15  C   UNL     1      -1.232  11.075  19.866  0.00  0.00    +0.000 A 
ATOM     16  C   UNL     1      -0.761  11.416  21.132  0.00  0.00    +0.000 A 
ATOM     17  C   UNL     1       0.484  10.910  21.487  0.00  0.00    +0.000 A 
ATOM     18  C   UNL     1       1.196  10.108  20.598  0.00  0.00    +0.000 A 
ATOM     19  C   UNL     1       0.707   9.779  19.304  0.00  0.00    +0.000 A 
ATOM     20  C   UNL     1      -0.556  10.296  18.932  0.00  0.00    +0.000 A 
ATOM     21  H   UNL     1      -2.096   9.715  16.063  0.00  0.00    +0.000 HD
ATOM     22  H   UNL     1      -0.540  10.184  16.062  0.00  0.00    +0.000 HD
ENDBRANCH   7  19
ENDBRANCH   1   9
BRANCH   5  23
ATOM     23  C   UNL     1       6.538   6.476  17.037  0.00  0.00    +0.000 C 
BRANCH  23  24
ATOM     24  N   UNL     1       6.826   7.889  17.012  0.00  0.00    +0.000 N 
ATOM     25  C   UNL     1       7.837   8.320  17.843  0.00  0.00    +0.000 C 
ATOM     26  O   UNL     1       8.411   7.555  18.608  0.00  0.00    +0.000 OA
ATOM     27  N   UNL     1       8.077   9.673  17.716  0.00  0.00    +0.000 N 
ATOM     28  H   UNL     1       6.787   8.342  16.108  0.00  0.00    +0.000 HD
ATOM     29  H   UNL     1       7.311  10.215  17.340  0.00  0.00    +0.000 HD
BRANCH  27  30
ATOM     30  C   UNL     1       9.122  10.375  18.353  0.00  0.00    +0.000 A 
ATOM     31  C   UNL     1      10.143  11.025  17.645  0.00  0.00    +0.000 A 
ATOM     32  C   UNL     1      11.166  11.694  18.319  0.00  0.00    +0.000 A 
ATOM     33  C   UNL     1      11.164  11.724  19.705  0.00  0.00    +0.000 A 
ATOM     34  F   UNL     1      12.148  12.361  20.353  0.00  0.00    +0.000 F 
ATOM     35  C   UNL     1      10.153  11.103  20.428  0.00  0.00    +0.000 A 
ATOM     36  C   UNL     1       9.125  10.435  19.752  0.00  0.00    +0.000 A 
ENDBRANCH  27  30
ENDBRANCH  23  24
ENDBRANCH   5  23
TORSDOF 5
ENDMDL
MODEL 5
REMARK VINA RESULT:      -8.9      1.383      1.911
REMARK  Name = 
REMARK  5 active torsions:
REMARK  status: ('A' for Active; 'I' for Inactive)
REMARK    1  A    between atoms: C_9  and  C_10
REMARK    2  A    between atoms: N_12  and  C_13
REMARK    3  A    between atoms: C_17  and  C_18
REMARK    4  A    between atoms: C_18  and  N_19
REMARK    5  A    between atoms: N_22  and  C_23
REMARK                            x       y       z     vdW  Elec       q    Type
REMARK                         _______ _______ _______ _____ _____    ______ ____
ROOT
ATOM      1  C   UNL     1       3.179   6.651  18.308  0.00  0.00    +0.000 A 
ATOM      2  C   UNL     1       2.981   5.340  18.748  0.00  0.00    +0.000 A 
ATOM      3  C   UNL     1       3.974   4.372  18.590  0.00  0.00    +0.000 A 
ATOM      4  C   UNL     1       5.192   4.708  18.012  0.00  0.00    +0.000 A 
ATOM      5  C   UNL     1       5.431   6.025  17.601  0.00  0.00    +0.000 A 
ATOM      6  C   UNL     1       4.414   6.985  17.736  0.00  0.00    +0.000 A 
ENDROOT
BRANCH   1   9
ATOM      7  C   UNL     1       1.649   8.120  19.620  0.00  0.00    +0.000 C 
ATOM      8  O   UNL     1       1.777   7.558  20.707  0.00  0.00    +0.000 OA
ATOM      9  N   UNL     1       2.216   7.679  18.442  0.00  0.00    +0.000 N 
ATOM     10  H   UNL     1       1.893   8.107  17.578  0.00  0.00    +0.000 HD
BRANCH   7  19
ATOM     11  N   UNL     1       1.068   9.136  22.890  0.00  0.00    +0.000 N 
ATOM     12  C   UNL     1       0.437  10.074  22.141  0.00  0.00    +0.000 A 
ATOM     13  N   UNL     1      -0.193  11.109  22.696  0.00  0.00    +0.000 NA
ATOM     14  O   UNL     1      -0.757  11.807  21.651  0.00  0.00    +0.000 OA
ATOM     15  C   UNL     1      -0.431  11.207  20.478  0.00  0.00    +0.000 A 
ATOM     16  C   UNL     1      -0.839  11.658  19.224  0.00  0.00    +0.000 A 
ATOM     17  C   UNL     1      -0.395  10.930  18.128  0.00  0.00    +0.000 A 
ATOM     18  C   UNL     1       0.416   9.811  18.310  0.00  0.00    +0.000 A 
ATOM     19  C   UNL     1       0.814   9.355  19.597  0.00  0.00    +0.000 A 
ATOM     20  C   UNL     1       0.359  10.087  20.718  0.00  0.00    +0.000 A 
ATOM     21  H   UNL     1       1.110   9.428  23.871  0.00  0.00    +0.000 HD
ATOM     22  H   UNL     1       0.585   8.234  22.901  0.00  0.00    +0.000 HD
ENDBRANCH   7  19
ENDBRANCH   1   9
BRANCH   5  23
ATOM     23  C   UNL     1       6.771   6.404  17.042  0.00  0.00    +0.000 C 
BRANCH  23  24
ATOM     24  N   UNL     1       6.992   7.830  17.047  0.00  0.00    +0.000 N 
ATOM     25  C   UNL     1       7.957   8.295  17.913  0.00  0.00    +0.000 C 
ATOM     26  O   UNL     1       8.546   7.545  18.683  0.00  0.00    +0.000 OA
ATOM     27  N   UNL     1       8.135   9.660  17.815  0.00  0.00    +0.000 N 
ATOM     28  H   UNL     1       6.956   8.296  16.150  0.00  0.00    +0.000 HD
ATOM     29  H   UNL     1       7.355  10.171  17.425  0.00  0.00    +0.000 HD
BRANCH  27  30
ATOM     30  C   UNL     1       9.127  10.399  18.493  0.00  0.00    +0.000 A 
ATOM     31  C   UNL     1       9.135  10.561  19.885  0.00  0.00    +0.000 A 
ATOM     32  C   UNL     1      10.130  11.315  20.511  0.00  0.00    +0.000 A 
ATOM     33  C   UNL     1      11.125  11.902  19.745  0.00  0.00    +0.000 A 
ATOM     34  F   UNL     1      12.076  12.630  20.343  0.00  0.00    +0.000 F 
ATOM     35  C   UNL     1      11.148  11.740  18.365  0.00  0.00    +0.000 A 
ATOM     36  C   UNL     1      10.153  10.981  17.737  0.00  0.00    +0.000 A 
ENDBRANCH  27  30
ENDBRANCH  23  24
ENDBRANCH   5  23
TORSDOF 5
ENDMDL
MODEL 6
REMARK VINA RESULT:      -8.6      0.955      1.254
REMARK  Name = 
REMARK  5 active torsions:
REMARK  status: ('A' for Active; 'I' for Inactive)
REMARK    1  A    between atoms: C_9  and  C_10
REMARK    2  A    between atoms: N_12  and  C_13
REMARK    3  A    between atoms: C_17  and  C_18
REMARK    4  A    between atoms: C_18  and  N_19
REMARK    5  A    between atoms: N_22  and  C_23
REMARK                            x       y       z     vdW  Elec       q    Type
REMARK                         _______ _______ _______ _____ _____    ______ ____
ROOT
ATOM      1  C   UNL     1       3.346   6.022  18.856  0.00  0.00    +0.000 A 
ATOM      2  C   UNL     1       2.806   4.768  18.559  0.00  0.00    +0.000 A 
ATOM      3  C   UNL     1       3.519   3.840  17.799  0.00  0.00    +0.000 A 
ATOM      4  C   UNL     1       4.797   4.145  17.346  0.00  0.00    +0.000 A 
ATOM      5  C   UNL     1       5.377   5.378  17.665  0.00  0.00    +0.000 A 
ATOM      6  C   UNL     1       4.639   6.317  18.405  0.00  0.00    +0.000 A 
ENDROOT
BRANCH   1   9
ATOM      7  C   UNL     1       2.034   8.125  19.139  0.00  0.00    +0.000 C 
ATOM      8  O   UNL     1       2.106   8.519  17.976  0.00  0.00    +0.000 OA
ATOM      9  N   UNL     1       2.676   7.004  19.624  0.00  0.00    +0.000 N 
ATOM     10  H   UNL     1       2.701   6.878  20.633  0.00  0.00    +0.000 HD
BRANCH   7  19
ATOM     11  N   UNL     1       1.939  11.403  17.996  0.00  0.00    +0.000 N 
ATOM     12  C   UNL     1       1.163  11.424  19.109  0.00  0.00    +0.000 A 
ATOM     13  N   UNL     1       0.549  12.534  19.516  0.00  0.00    +0.000 NA
ATOM     14  O   UNL     1      -0.088  12.199  20.690  0.00  0.00    +0.000 OA
ATOM     15  C   UNL     1       0.119  10.885  20.958  0.00  0.00    +0.000 A 
ATOM     16  C   UNL     1      -0.388  10.221  22.073  0.00  0.00    +0.000 A 
ATOM     17  C   UNL     1      -0.091   8.868  22.178  0.00  0.00    +0.000 A 
ATOM     18  C   UNL     1       0.677   8.240  21.200  0.00  0.00    +0.000 A 
ATOM     19  C   UNL     1       1.198   8.934  20.073  0.00  0.00    +0.000 A 
ATOM     20  C   UNL     1       0.907  10.314  19.964  0.00  0.00    +0.000 A 
ATOM     21  H   UNL     1       1.846  12.281  17.476  0.00  0.00    +0.000 HD
ATOM     22  H   UNL     1       2.939  11.320  18.200  0.00  0.00    +0.000 HD
ENDBRANCH   7  19
ENDBRANCH   1   9
BRANCH   5  23
ATOM     23  C   UNL     1       6.784   5.679  17.235  0.00  0.00    +0.000 C 
BRANCH  23  24
ATOM     24  N   UNL     1       7.531   6.395  18.241  0.00  0.00    +0.000 N 
ATOM     25  C   UNL     1       7.881   7.691  17.934  0.00  0.00    +0.000 C 
ATOM     26  O   UNL     1       7.629   8.184  16.840  0.00  0.00    +0.000 OA
ATOM     27  N   UNL     1       8.546   8.314  18.969  0.00  0.00    +0.000 N 
ATOM     28  H   UNL     1       7.259   6.237  19.203  0.00  0.00    +0.000 HD
ATOM     29  H   UNL     1       8.990   7.693  19.633  0.00  0.00    +0.000 HD
BRANCH  27  30
ATOM     30  C   UNL     1       8.928   9.671  18.989  0.00  0.00    +0.000 A 
ATOM     31  C   UNL     1       8.935  10.475  17.841  0.00  0.00    +0.000 A 
ATOM     32  C   UNL     1       9.337  11.811  17.906  0.00  0.00    +0.000 A 
ATOM     33  C   UNL     1       9.722  12.349  19.125  0.00  0.00    +0.000 A 
ATOM     34  F   UNL     1      10.111  13.629  19.187  0.00  0.00    +0.000 F 
ATOM     35  C   UNL     1       9.704  11.577  20.279  0.00  0.00    +0.000 A 
ATOM     36  C   UNL     1       9.299  10.239  20.215  0.00  0.00    +0.000 A 
ENDBRANCH  27  30
ENDBRANCH  23  24
ENDBRANCH   5  23
TORSDOF 5
ENDMDL
MODEL 7
REMARK VINA RESULT:      -8.5      1.062      1.124
REMARK  Name = 
REMARK  5 active torsions:
REMARK  status: ('A' for Active; 'I' for Inactive)
REMARK    1  A    between atoms: C_9  and  C_10
REMARK    2  A    between atoms: N_12  and  C_13
REMARK    3  A    between atoms: C_17  and  C_18
REMARK    4  A    between atoms: C_18  and  N_19
REMARK    5  A    between atoms: N_22  and  C_23
REMARK                            x       y       z     vdW  Elec       q    Type
REMARK                         _______ _______ _______ _____ _____    ______ ____
ROOT
ATOM      1  C   UNL     1       3.330   6.459  18.427  0.00  0.00    +0.000 A 
ATOM      2  C   UNL     1       2.709   5.256  18.080  0.00  0.00    +0.000 A 
ATOM      3  C   UNL     1       3.408   4.255  17.403  0.00  0.00    +0.000 A 
ATOM      4  C   UNL     1       4.749   4.434  17.085  0.00  0.00    +0.000 A 
ATOM      5  C   UNL     1       5.406   5.612  17.458  0.00  0.00    +0.000 A 
ATOM      6  C   UNL     1       4.685   6.626  18.112  0.00  0.00    +0.000 A 
ENDROOT
BRANCH   1   9
ATOM      7  C   UNL     1       2.030   8.583  18.545  0.00  0.00    +0.000 C 
ATOM      8  O   UNL     1       2.078   8.870  17.350  0.00  0.00    +0.000 OA
ATOM      9  N   UNL     1       2.679   7.509  19.116  0.00  0.00    +0.000 N 
ATOM     10  H   UNL     1       2.726   7.475  20.132  0.00  0.00    +0.000 HD
BRANCH   7  19
ATOM     11  N   UNL     1       2.470  11.867  17.500  0.00  0.00    +0.000 N 
ATOM     12  C   UNL     1       1.596  11.968  18.534  0.00  0.00    +0.000 A 
ATOM     13  N   UNL     1       1.092  13.141  18.914  0.00  0.00    +0.000 NA
ATOM     14  O   UNL     1       0.304  12.871  20.011  0.00  0.00    +0.000 OA
ATOM     15  C   UNL     1       0.313  11.536  20.257  0.00  0.00    +0.000 A 
ATOM     16  C   UNL     1      -0.383  10.923  21.297  0.00  0.00    +0.000 A 
ATOM     17  C   UNL     1      -0.274   9.541  21.387  0.00  0.00    +0.000 A 
ATOM     18  C   UNL     1       0.501   8.836  20.468  0.00  0.00    +0.000 A 
ATOM     19  C   UNL     1       1.216   9.477  19.419  0.00  0.00    +0.000 A 
ATOM     20  C   UNL     1       1.116  10.885  19.325  0.00  0.00    +0.000 A 
ATOM     21  H   UNL     1       2.542  12.758  17.002  0.00  0.00    +0.000 HD
ATOM     22  H   UNL     1       3.425  11.650  17.797  0.00  0.00    +0.000 HD
ENDBRANCH   7  19
ENDBRANCH   1   9
BRANCH   5  23
ATOM     23  C   UNL     1       6.871   5.775  17.177  0.00  0.00    +0.000 C 
BRANCH  23  24
ATOM     24  N   UNL     1       7.561   6.490  18.223  0.00  0.00    +0.000 N 
ATOM     25  C   UNL     1       7.954   7.777  17.925  0.00  0.00    +0.000 C 
ATOM     26  O   UNL     1       7.786   8.260  16.812  0.00  0.00    +0.000 OA
ATOM     27  N   UNL     1       8.559   8.401  18.997  0.00  0.00    +0.000 N 
ATOM     28  H   UNL     1       7.223   6.350  19.166  0.00  0.00    +0.000 HD
ATOM     29  H   UNL     1       8.946   7.781  19.696  0.00  0.00    +0.000 HD
BRANCH  27  30
ATOM     30  C   UNL     1       8.963   9.752  19.027  0.00  0.00    +0.000 A 
ATOM     31  C   UNL     1       9.601  10.330  20.135  0.00  0.00    +0.000 A 
ATOM     32  C   UNL     1       9.969  11.676  20.125  0.00  0.00    +0.000 A 
ATOM     33  C   UNL     1       9.710  12.446  19.001  0.00  0.00    +0.000 A 
ATOM     34  F   UNL     1      10.058  13.739  18.993  0.00  0.00    +0.000 F 
ATOM     35  C   UNL     1       9.097  11.891  17.886  0.00  0.00    +0.000 A 
ATOM     36  C   UNL     1       8.730  10.540  17.893  0.00  0.00    +0.000 A 
ENDBRANCH  27  30
ENDBRANCH  23  24
ENDBRANCH   5  23
TORSDOF 5
ENDMDL
MODEL 8
REMARK VINA RESULT:      -8.5      3.366      6.794
REMARK  Name = 
REMARK  5 active torsions:
REMARK  status: ('A' for Active; 'I' for Inactive)
REMARK    1  A    between atoms: C_9  and  C_10
REMARK    2  A    between atoms: N_12  and  C_13
REMARK    3  A    between atoms: C_17  and  C_18
REMARK    4  A    between atoms: C_18  and  N_19
REMARK    5  A    between atoms: N_22  and  C_23
REMARK                            x       y       z     vdW  Elec       q    Type
REMARK                         _______ _______ _______ _____ _____    ______ ____
ROOT
ATOM      1  C   UNL     1       1.329   9.739  18.036  0.00  0.00    +0.000 A 
ATOM      2  C   UNL     1      -0.060   9.589  18.090  0.00  0.00    +0.000 A 
ATOM      3  C   UNL     1      -0.884  10.653  18.458  0.00  0.00    +0.000 A 
ATOM      4  C   UNL     1      -0.331  11.894  18.753  0.00  0.00    +0.000 A 
ATOM      5  C   UNL     1       1.052  12.082  18.665  0.00  0.00    +0.000 A 
ATOM      6  C   UNL     1       1.876  10.996  18.323  0.00  0.00    +0.000 A 
ENDROOT
BRANCH   1   9
ATOM      7  C   UNL     1       2.569   7.613  18.436  0.00  0.00    +0.000 C 
ATOM      8  O   UNL     1       2.290   7.484  19.627  0.00  0.00    +0.000 OA
ATOM      9  N   UNL     1       2.217   8.702  17.666  0.00  0.00    +0.000 N 
ATOM     10  H   UNL     1       2.658   8.793  16.753  0.00  0.00    +0.000 HD
BRANCH   7  19
ATOM     11  N   UNL     1       1.463   4.585  19.730  0.00  0.00    +0.000 N 
ATOM     12  C   UNL     1       2.421   4.228  18.838  0.00  0.00    +0.000 A 
ATOM     13  N   UNL     1       2.724   2.951  18.608  0.00  0.00    +0.000 NA
ATOM     14  O   UNL     1       3.763   2.971  17.704  0.00  0.00    +0.000 OA
ATOM     15  C   UNL     1       4.049   4.255  17.372  0.00  0.00    +0.000 A 
ATOM     16  C   UNL     1       5.049   4.633  16.478  0.00  0.00    +0.000 A 
ATOM     17  C   UNL     1       5.190   5.994  16.242  0.00  0.00    +0.000 A 
ATOM     18  C   UNL     1       4.357   6.908  16.884  0.00  0.00    +0.000 A 
ATOM     19  C   UNL     1       3.348   6.509  17.804  0.00  0.00    +0.000 A 
ATOM     20  C   UNL     1       3.204   5.124  18.055  0.00  0.00    +0.000 A 
ATOM     21  H   UNL     1       0.945   3.763  20.050  0.00  0.00    +0.000 HD
ATOM     22  H   UNL     1       1.841   5.010  20.582  0.00  0.00    +0.000 HD
ENDBRANCH   7  19
ENDBRANCH   1   9
BRANCH   5  23
ATOM     23  C   UNL     1       1.642  13.440  18.915  0.00  0.00    +0.000 C 
BRANCH  23  24
ATOM     24  N   UNL     1       2.722  13.751  18.010  0.00  0.00    +0.000 N 
ATOM     25  C   UNL     1       3.865  14.268  18.580  0.00  0.00    +0.000 C 
ATOM     26  O   UNL     1       3.934  14.510  19.779  0.00  0.00    +0.000 OA
ATOM     27  N   UNL     1       4.861  14.487  17.650  0.00  0.00    +0.000 N 
ATOM     28  H   UNL     1       2.874  13.104  17.248  0.00  0.00    +0.000 HD
ATOM     29  H   UNL     1       4.545  14.588  16.695  0.00  0.00    +0.000 HD
BRANCH  27  30
ATOM     30  C   UNL     1       6.175  14.903  17.951  0.00  0.00    +0.000 A 
ATOM     31  C   UNL     1       7.294  14.080  17.761  0.00  0.00    +0.000 A 
ATOM     32  C   UNL     1       8.575  14.529  18.087  0.00  0.00    +0.000 A 
ATOM     33  C   UNL     1       8.740  15.809  18.595  0.00  0.00    +0.000 A 
ATOM     34  F   UNL     1       9.968  16.239  18.914  0.00  0.00    +0.000 F 
ATOM     35  C   UNL     1       7.648  16.649  18.774  0.00  0.00    +0.000 A 
ATOM     36  C   UNL     1       6.364  16.200  18.444  0.00  0.00    +0.000 A 
ENDBRANCH  27  30
ENDBRANCH  23  24
ENDBRANCH   5  23
TORSDOF 5
ENDMDL
MODEL 9
REMARK VINA RESULT:      -8.4      4.645      6.183
REMARK  Name = 
REMARK  5 active torsions:
REMARK  status: ('A' for Active; 'I' for Inactive)
REMARK    1  A    between atoms: C_9  and  C_10
REMARK    2  A    between atoms: N_12  and  C_13
REMARK    3  A    between atoms: C_17  and  C_18
REMARK    4  A    between atoms: C_18  and  N_19
REMARK    5  A    between atoms: N_22  and  C_23
REMARK                            x       y       z     vdW  Elec       q    Type
REMARK                         _______ _______ _______ _____ _____    ______ ____
ROOT
ATOM      1  C   UNL     1       2.484   6.007  19.814  0.00  0.00    +0.000 A 
ATOM      2  C   UNL     1       2.019   4.689  19.788  0.00  0.00    +0.000 A 
ATOM      3  C   UNL     1       2.676   3.710  19.041  0.00  0.00    +0.000 A 
ATOM      4  C   UNL     1       3.826   4.031  18.329  0.00  0.00    +0.000 A 
ATOM      5  C   UNL     1       4.336   5.333  18.373  0.00  0.00    +0.000 A 
ATOM      6  C   UNL     1       3.650   6.318  19.103  0.00  0.00    +0.000 A 
ENDROOT
BRANCH   1   9
ATOM      7  C   UNL     1       1.441   8.258  20.061  0.00  0.00    +0.000 C 
ATOM      8  O   UNL     1       1.698   8.681  18.935  0.00  0.00    +0.000 OA
ATOM      9  N   UNL     1       1.866   7.043  20.554  0.00  0.00    +0.000 N 
ATOM     10  H   UNL     1       1.758   6.878  21.552  0.00  0.00    +0.000 HD
BRANCH   7  19
ATOM     11  N   UNL     1      -0.119  10.652  18.086  0.00  0.00    +0.000 N 
ATOM     12  C   UNL     1      -0.557  10.929  19.340  0.00  0.00    +0.000 A 
ATOM     13  N   UNL     1      -1.418  11.917  19.580  0.00  0.00    +0.000 NA
ATOM     14  O   UNL     1      -1.586  11.941  20.947  0.00  0.00    +0.000 OA
ATOM     15  C   UNL     1      -0.855  10.947  21.510  0.00  0.00    +0.000 A 
ATOM     16  C   UNL     1      -0.800  10.690  22.879  0.00  0.00    +0.000 A 
ATOM     17  C   UNL     1      -0.013   9.616  23.277  0.00  0.00    +0.000 A 
ATOM     18  C   UNL     1       0.673   8.858  22.331  0.00  0.00    +0.000 A 
ATOM     19  C   UNL     1       0.617   9.140  20.938  0.00  0.00    +0.000 A 
ATOM     20  C   UNL     1      -0.176  10.237  20.525  0.00  0.00    +0.000 A 
ATOM     21  H   UNL     1      -0.649  11.189  17.393  0.00  0.00    +0.000 HD
ATOM     22  H   UNL     1       0.859  10.912  17.932  0.00  0.00    +0.000 HD
ENDBRANCH   7  19
ENDBRANCH   1   9
BRANCH   5  23
ATOM     23  C   UNL     1       5.616   5.662  17.662  0.00  0.00    +0.000 C 
BRANCH  23  24
ATOM     24  N   UNL     1       5.441   5.800  16.236  0.00  0.00    +0.000 N 
ATOM     25  C   UNL     1       5.865   4.741  15.464  0.00  0.00    +0.000 C 
ATOM     26  O   UNL     1       6.422   3.767  15.957  0.00  0.00    +0.000 OA
ATOM     27  N   UNL     1       5.613   4.938  14.122  0.00  0.00    +0.000 N 
ATOM     28  H   UNL     1       4.586   6.244  15.928  0.00  0.00    +0.000 HD
ATOM     29  H   UNL     1       5.496   5.902  13.841  0.00  0.00    +0.000 HD
BRANCH  27  30
ATOM     30  C   UNL     1       5.833   3.984  13.106  0.00  0.00    +0.000 A 
ATOM     31  C   UNL     1       4.794   3.258  12.507  0.00  0.00    +0.000 A 
ATOM     32  C   UNL     1       5.062   2.312  11.516  0.00  0.00    +0.000 A 
ATOM     33  C   UNL     1       6.371   2.098  11.113  0.00  0.00    +0.000 A 
ATOM     34  F   UNL     1       6.630   1.188  10.165  0.00  0.00    +0.000 F 
ATOM     35  C   UNL     1       7.415   2.820  11.678  0.00  0.00    +0.000 A 
ATOM     36  C   UNL     1       7.147   3.770  12.670  0.00  0.00    +0.000 A 
ENDBRANCH  27  30
ENDBRANCH  23  24
ENDBRANCH   5  23
TORSDOF 5
ENDMDL
