MODEL 1
REMARK VINA RESULT:      -6.8      0.000      0.000
REMARK  Name = 
REMARK  4 active torsions:
REMARK  status: ('A' for Active; 'I' for Inactive)
REMARK    1  A    between atoms: C_1  and  O_2
REMARK    2  A    between atoms: O_2  and  C_3
REMARK    3  A    between atoms: C_7  and  C_8
REMARK    4  A    between atoms: C_12  and  C_13
REMARK                            x       y       z     vdW  Elec       q    Type
REMARK                         _______ _______ _______ _____ _____    ______ ____
ROOT
ATOM      1  C   UNL     1       3.423   5.798  18.155  0.00  0.00    +0.000 C 
ATOM      2  C   UNL     1       3.515   5.597  19.670  0.00  0.00    +0.000 C 
ATOM      3  C   UNL     1       3.236   4.164  20.095  0.00  0.00    +0.000 C 
ATOM      4  N   UNL     1       1.942   3.705  19.582  0.00  0.00    +0.000 N 
ATOM      5  C   UNL     1       1.066   2.885  20.273  0.00  0.00    +0.000 C 
ATOM      6  C   UNL     1       1.322   2.620  21.737  0.00  0.00    +0.000 C 
ATOM      7  O   UNL     1       0.064   2.395  19.746  0.00  0.00    +0.000 OA
ATOM      8  C   UNL     1       1.777   3.802  18.133  0.00  0.00    +0.000 C 
ATOM      9  C   UNL     1       2.138   5.177  17.580  0.00  0.00    +0.000 C 
ENDROOT
BRANCH   1  14
ATOM     10  C   UNL     1       6.880   6.371  16.698  0.00  0.00    +0.000 A 
ATOM     11  C   UNL     1       6.897   5.461  15.642  0.00  0.00    +0.000 A 
ATOM     12  C   UNL     1       5.879   4.520  15.503  0.00  0.00    +0.000 A 
ATOM     13  C   UNL     1       4.791   4.534  16.376  0.00  0.00    +0.000 A 
ATOM     14  C   UNL     1       4.704   5.495  17.389  0.00  0.00    +0.000 A 
ATOM     15  C   UNL     1       5.807   6.352  17.592  0.00  0.00    +0.000 A 
BRANCH  10  17
ATOM     16  C   UNL     1       7.891   8.304  17.666  0.00  0.00    +0.000 C 
ATOM     17  O   UNL     1       7.923   7.255  16.707  0.00  0.00    +0.000 OA
ENDBRANCH  10  17
ENDBRANCH   1  14
TORSDOF 2
ENDMDL
MODEL 2
REMARK VINA RESULT:      -6.8      1.404      2.251
REMARK  Name = 
REMARK  4 active torsions:
REMARK  status: ('A' for Active; 'I' for Inactive)
REMARK    1  A    between atoms: C_1  and  O_2
REMARK    2  A    between atoms: O_2  and  C_3
REMARK    3  A    between atoms: C_7  and  C_8
REMARK    4  A    between atoms: C_12  and  C_13
REMARK                            x       y       z     vdW  Elec       q    Type
REMARK                         _______ _______ _______ _____ _____    ______ ____
ROOT
ATOM      1  C   UNL     1       3.577   5.952  18.224  0.00  0.00    +0.000 C 
ATOM      2  C   UNL     1       3.559   5.716  19.736  0.00  0.00    +0.000 C 
ATOM      3  C   UNL     1       3.290   4.266  20.106  0.00  0.00    +0.000 C 
ATOM      4  N   UNL     1       2.054   3.785  19.485  0.00  0.00    +0.000 N 
ATOM      5  C   UNL     1       1.151   2.923  20.088  0.00  0.00    +0.000 C 
ATOM      6  C   UNL     1       1.303   2.629  21.561  0.00  0.00    +0.000 C 
ATOM      7  O   UNL     1       0.208   2.420  19.474  0.00  0.00    +0.000 OA
ATOM      8  C   UNL     1       1.996   3.913  18.030  0.00  0.00    +0.000 C 
ATOM      9  C   UNL     1       2.358   5.311  17.538  0.00  0.00    +0.000 C 
ENDROOT
BRANCH   1  14
ATOM     10  C   UNL     1       6.116   4.349  15.903  0.00  0.00    +0.000 A 
ATOM     11  C   UNL     1       7.316   4.650  16.545  0.00  0.00    +0.000 A 
ATOM     12  C   UNL     1       7.340   5.534  17.622  0.00  0.00    +0.000 A 
ATOM     13  C   UNL     1       6.148   6.062  18.119  0.00  0.00    +0.000 A 
ATOM     14  C   UNL     1       4.921   5.703  17.551  0.00  0.00    +0.000 A 
ATOM     15  C   UNL     1       4.931   4.913  16.381  0.00  0.00    +0.000 A 
BRANCH  10  17
ATOM     16  C   UNL     1       6.166   3.957  13.550  0.00  0.00    +0.000 C 
ATOM     17  O   UNL     1       6.227   3.452  14.878  0.00  0.00    +0.000 OA
ENDBRANCH  10  17
ENDBRANCH   1  14
TORSDOF 2
ENDMDL
MODEL 3
REMARK VINA RESULT:      -6.8      1.588      2.176
REMARK  Name = 
REMARK  4 active torsions:
REMARK  status: ('A' for Active; 'I' for Inactive)
REMARK    1  A    between atoms: C_1  and  O_2
REMARK    2  A    between atoms: O_2  and  C_3
REMARK    3  A    between atoms: C_7  and  C_8
REMARK    4  A    between atoms: C_12  and  C_13
REMARK                            x       y       z     vdW  Elec       q    Type
REMARK                         _______ _______ _______ _____ _____    ______ ____
ROOT
ATOM      1  C   UNL     1       5.021   5.559  17.935  0.00  0.00    +0.000 C 
ATOM      2  C   UNL     1       5.314   4.792  19.228  0.00  0.00    +0.000 C 
ATOM      3  C   UNL     1       4.273   3.726  19.532  0.00  0.00    +0.000 C 
ATOM      4  N   UNL     1       2.925   4.298  19.554  0.00  0.00    +0.000 N 
ATOM      5  C   UNL     1       1.921   3.919  20.432  0.00  0.00    +0.000 C 
ATOM      6  C   UNL     1       2.278   3.032  21.600  0.00  0.00    +0.000 C 
ATOM      7  O   UNL     1       0.758   4.311  20.314  0.00  0.00    +0.000 OA
ATOM      8  C   UNL     1       2.527   5.004  18.338  0.00  0.00    +0.000 C 
ATOM      9  C   UNL     1       3.558   6.030  17.877  0.00  0.00    +0.000 C 
ENDROOT
BRANCH   1  14
ATOM     10  C   UNL     1       7.138   5.132  14.814  0.00  0.00    +0.000 A 
ATOM     11  C   UNL     1       6.356   4.259  14.059  0.00  0.00    +0.000 A 
ATOM     12  C   UNL     1       5.236   3.648  14.619  0.00  0.00    +0.000 A 
ATOM     13  C   UNL     1       4.843   3.966  15.919  0.00  0.00    +0.000 A 
ATOM     14  C   UNL     1       5.558   4.907  16.667  0.00  0.00    +0.000 A 
ATOM     15  C   UNL     1       6.760   5.414  16.129  0.00  0.00    +0.000 A 
BRANCH  10  17
ATOM     16  C   UNL     1       8.206   5.560  12.724  0.00  0.00    +0.000 C 
ATOM     17  O   UNL     1       8.192   5.681  14.141  0.00  0.00    +0.000 OA
ENDBRANCH  10  17
ENDBRANCH   1  14
TORSDOF 2
ENDMDL
MODEL 4
REMARK VINA RESULT:      -6.7      1.461      2.209
REMARK  Name = 
REMARK  4 active torsions:
REMARK  status: ('A' for Active; 'I' for Inactive)
REMARK    1  A    between atoms: C_1  and  O_2
REMARK    2  A    between atoms: O_2  and  C_3
REMARK    3  A    between atoms: C_7  and  C_8
REMARK    4  A    between atoms: C_12  and  C_13
REMARK                            x       y       z     vdW  Elec       q    Type
REMARK                         _______ _______ _______ _____ _____    ______ ____
ROOT
ATOM      1  C   UNL     1       4.442   5.325  17.275  0.00  0.00    +0.000 C 
ATOM      2  C   UNL     1       3.101   5.785  17.853  0.00  0.00    +0.000 C 
ATOM      3  C   UNL     1       2.663   4.965  19.056  0.00  0.00    +0.000 C 
ATOM      4  N   UNL     1       2.634   3.536  18.737  0.00  0.00    +0.000 N 
ATOM      5  C   UNL     1       1.687   2.641  19.207  0.00  0.00    +0.000 C 
ATOM      6  C   UNL     1       0.461   3.182  19.902  0.00  0.00    +0.000 C 
ATOM      7  O   UNL     1       1.790   1.423  19.043  0.00  0.00    +0.000 OA
ATOM      8  C   UNL     1       3.891   2.985  18.230  0.00  0.00    +0.000 C 
ATOM      9  C   UNL     1       4.481   3.799  17.083  0.00  0.00    +0.000 C 
ENDROOT
BRANCH   1  14
ATOM     10  C   UNL     1       7.423   7.631  17.719  0.00  0.00    +0.000 A 
ATOM     11  C   UNL     1       8.219   6.900  18.599  0.00  0.00    +0.000 A 
ATOM     12  C   UNL     1       7.724   5.750  19.210  0.00  0.00    +0.000 A 
ATOM     13  C   UNL     1       6.453   5.276  18.883  0.00  0.00    +0.000 A 
ATOM     14  C   UNL     1       5.670   5.941  17.934  0.00  0.00    +0.000 A 
ATOM     15  C   UNL     1       6.137   7.173  17.428  0.00  0.00    +0.000 A 
BRANCH  10  17
ATOM     16  C   UNL     1       8.542   9.712  18.060  0.00  0.00    +0.000 C 
ATOM     17  O   UNL     1       8.035   8.724  17.171  0.00  0.00    +0.000 OA
ENDBRANCH  10  17
ENDBRANCH   1  14
TORSDOF 2
ENDMDL
MODEL 5
REMARK VINA RESULT:      -6.6      2.052      6.253
REMARK  Name = 
REMARK  4 active torsions:
REMARK  status: ('A' for Active; 'I' for Inactive)
REMARK    1  A    between atoms: C_1  and  O_2
REMARK    2  A    between atoms: O_2  and  C_3
REMARK    3  A    between atoms: C_7  and  C_8
REMARK    4  A    between atoms: C_12  and  C_13
REMARK                            x       y       z     vdW  Elec       q    Type
REMARK                         _______ _______ _______ _____ _____    ______ ____
ROOT
ATOM      1  C   UNL     1       3.764   5.916  18.627  0.00  0.00    +0.000 C 
ATOM      2  C   UNL     1       4.019   6.336  17.177  0.00  0.00    +0.000 C 
ATOM      3  C   UNL     1       4.786   5.290  16.385  0.00  0.00    +0.000 C 
ATOM      4  N   UNL     1       6.039   4.934  17.056  0.00  0.00    +0.000 N 
ATOM      5  C   UNL     1       7.233   4.662  16.408  0.00  0.00    +0.000 C 
ATOM      6  C   UNL     1       7.343   4.971  14.935  0.00  0.00    +0.000 C 
ATOM      7  O   UNL     1       8.218   4.214  16.999  0.00  0.00    +0.000 OA
ATOM      8  C   UNL     1       5.896   4.464  18.433  0.00  0.00    +0.000 C 
ATOM      9  C   UNL     1       5.045   5.390  19.297  0.00  0.00    +0.000 C 
ENDROOT
BRANCH   1  14
ATOM     10  C   UNL     1       1.325   3.610  20.398  0.00  0.00    +0.000 A 
ATOM     11  C   UNL     1       0.633   3.051  19.325  0.00  0.00    +0.000 A 
ATOM     12  C   UNL     1       0.808   3.548  18.035  0.00  0.00    +0.000 A 
ATOM     13  C   UNL     1       1.739   4.559  17.796  0.00  0.00    +0.000 A 
ATOM     14  C   UNL     1       2.512   5.075  18.841  0.00  0.00    +0.000 A 
ATOM     15  C   UNL     1       2.225   4.649  20.156  0.00  0.00    +0.000 A 
BRANCH  10  17
ATOM     16  C   UNL     1       2.085   2.159  22.133  0.00  0.00    +0.000 C 
ATOM     17  O   UNL     1       1.082   3.016  21.605  0.00  0.00    +0.000 OA
ENDBRANCH  10  17
ENDBRANCH   1  14
TORSDOF 2
ENDMDL
MODEL 6
REMARK VINA RESULT:      -6.4      2.137      5.905
REMARK  Name = 
REMARK  4 active torsions:
REMARK  status: ('A' for Active; 'I' for Inactive)
REMARK    1  A    between atoms: C_1  and  O_2
REMARK    2  A    between atoms: O_2  and  C_3
REMARK    3  A    between atoms: C_7  and  C_8
REMARK    4  A    between atoms: C_12  and  C_13
REMARK                            x       y       z     vdW  Elec       q    Type
REMARK                         _______ _______ _______ _____ _____    ______ ____
ROOT
ATOM      1  C   UNL     1       4.243   3.868  17.700  0.00  0.00    +0.000 C 
ATOM      2  C   UNL     1       5.463   3.846  18.624  0.00  0.00    +0.000 C 
ATOM      3  C   UNL     1       5.928   5.238  19.023  0.00  0.00    +0.000 C 
ATOM      4  N   UNL     1       6.179   6.068  17.842  0.00  0.00    +0.000 N 
ATOM      5  C   UNL     1       7.209   6.988  17.729  0.00  0.00    +0.000 C 
ATOM      6  C   UNL     1       8.295   6.992  18.777  0.00  0.00    +0.000 C 
ATOM      7  O   UNL     1       7.289   7.776  16.784  0.00  0.00    +0.000 OA
ATOM      8  C   UNL     1       5.051   6.199  16.922  0.00  0.00    +0.000 C 
ATOM      9  C   UNL     1       4.432   4.859  16.538  0.00  0.00    +0.000 C 
ENDROOT
BRANCH   1  14
ATOM     10  C   UNL     1       1.592   5.098  20.121  0.00  0.00    +0.000 A 
ATOM     11  C   UNL     1       0.783   3.971  20.252  0.00  0.00    +0.000 A 
ATOM     12  C   UNL     1       0.966   2.868  19.420  0.00  0.00    +0.000 A 
ATOM     13  C   UNL     1       2.015   2.853  18.501  0.00  0.00    +0.000 A 
ATOM     14  C   UNL     1       2.898   3.935  18.412  0.00  0.00    +0.000 A 
ATOM     15  C   UNL     1       2.615   5.091  19.171  0.00  0.00    +0.000 A 
BRANCH  10  17
ATOM     16  C   UNL     1       1.657   7.429  20.632  0.00  0.00    +0.000 C 
ATOM     17  O   UNL     1       1.324   6.099  21.012  0.00  0.00    +0.000 OA
ENDBRANCH  10  17
ENDBRANCH   1  14
TORSDOF 2
ENDMDL
MODEL 7
REMARK VINA RESULT:      -6.4      0.946      1.045
REMARK  Name = 
REMARK  4 active torsions:
REMARK  status: ('A' for Active; 'I' for Inactive)
REMARK    1  A    between atoms: C_1  and  O_2
REMARK    2  A    between atoms: O_2  and  C_3
REMARK    3  A    between atoms: C_7  and  C_8
REMARK    4  A    between atoms: C_12  and  C_13
REMARK                            x       y       z     vdW  Elec       q    Type
REMARK                         _______ _______ _______ _____ _____    ______ ____
ROOT
ATOM      1  C   UNL     1       3.446   4.886  17.189  0.00  0.00    +0.000 C 
ATOM      2  C   UNL     1       3.357   5.506  18.586  0.00  0.00    +0.000 C 
ATOM      3  C   UNL     1       3.542   4.486  19.699  0.00  0.00    +0.000 C 
ATOM      4  N   UNL     1       2.598   3.375  19.557  0.00  0.00    +0.000 N 
ATOM      5  C   UNL     1       1.972   2.732  20.612  0.00  0.00    +0.000 C 
ATOM      6  C   UNL     1       2.066   3.341  21.990  0.00  0.00    +0.000 C 
ATOM      7  O   UNL     1       1.310   1.703  20.459  0.00  0.00    +0.000 OA
ATOM      8  C   UNL     1       2.645   2.677  18.272  0.00  0.00    +0.000 C 
ATOM      9  C   UNL     1       2.578   3.621  17.076  0.00  0.00    +0.000 C 
ENDROOT
BRANCH   1  14
ATOM     10  C   UNL     1       6.983   5.934  16.298  0.00  0.00    +0.000 A 
ATOM     11  C   UNL     1       7.276   5.073  15.241  0.00  0.00    +0.000 A 
ATOM     12  C   UNL     1       6.420   4.020  14.930  0.00  0.00    +0.000 A 
ATOM     13  C   UNL     1       5.219   3.866  15.623  0.00  0.00    +0.000 A 
ATOM     14  C   UNL     1       4.857   4.772  16.626  0.00  0.00    +0.000 A 
ATOM     15  C   UNL     1       5.798   5.750  17.013  0.00  0.00    +0.000 A 
BRANCH  10  17
ATOM     16  C   UNL     1       7.665   7.843  17.557  0.00  0.00    +0.000 C 
ATOM     17  O   UNL     1       7.891   6.938  16.484  0.00  0.00    +0.000 OA
ENDBRANCH  10  17
ENDBRANCH   1  14
TORSDOF 2
ENDMDL
MODEL 8
REMARK VINA RESULT:      -6.4      3.133      4.786
REMARK  Name = 
REMARK  4 active torsions:
REMARK  status: ('A' for Active; 'I' for Inactive)
REMARK    1  A    between atoms: C_1  and  O_2
REMARK    2  A    between atoms: O_2  and  C_3
REMARK    3  A    between atoms: C_7  and  C_8
REMARK    4  A    between atoms: C_12  and  C_13
REMARK                            x       y       z     vdW  Elec       q    Type
REMARK                         _______ _______ _______ _____ _____    ______ ____
ROOT
ATOM      1  C   UNL     1       6.476   4.820  16.104  0.00  0.00    +0.000 C 
ATOM      2  C   UNL     1       5.533   3.774  16.705  0.00  0.00    +0.000 C 
ATOM      3  C   UNL     1       4.086   4.237  16.749  0.00  0.00    +0.000 C 
ATOM      4  N   UNL     1       3.964   5.518  17.450  0.00  0.00    +0.000 N 
ATOM      5  C   UNL     1       2.916   5.862  18.288  0.00  0.00    +0.000 C 
ATOM      6  C   UNL     1       1.942   4.789  18.709  0.00  0.00    +0.000 C 
ATOM      7  O   UNL     1       2.772   7.004  18.731  0.00  0.00    +0.000 OA
ATOM      8  C   UNL     1       4.785   6.603  16.914  0.00  0.00    +0.000 C 
ATOM      9  C   UNL     1       6.247   6.209  16.724  0.00  0.00    +0.000 C 
ENDROOT
BRANCH   1  14
ATOM     10  C   UNL     1       5.992   3.551  12.560  0.00  0.00    +0.000 A 
ATOM     11  C   UNL     1       7.067   4.142  11.898  0.00  0.00    +0.000 A 
ATOM     12  C   UNL     1       7.847   5.105  12.535  0.00  0.00    +0.000 A 
ATOM     13  C   UNL     1       7.605   5.429  13.871  0.00  0.00    +0.000 A 
ATOM     14  C   UNL     1       6.590   4.784  14.585  0.00  0.00    +0.000 A 
ATOM     15  C   UNL     1       5.732   3.910  13.884  0.00  0.00    +0.000 A 
BRANCH  10  17
ATOM     16  C   UNL     1       4.126   3.003  11.177  0.00  0.00    +0.000 C 
ATOM     17  O   UNL     1       5.324   2.606  11.833  0.00  0.00    +0.000 OA
ENDBRANCH  10  17
ENDBRANCH   1  14
TORSDOF 2
ENDMDL
MODEL 9
REMARK VINA RESULT:      -6.3      2.009      6.062
REMARK  Name = 
REMARK  4 active torsions:
REMARK  status: ('A' for Active; 'I' for Inactive)
REMARK    1  A    between atoms: C_1  and  O_2
REMARK    2  A    between atoms: O_2  and  C_3
REMARK    3  A    between atoms: C_7  and  C_8
REMARK    4  A    between atoms: C_12  and  C_13
REMARK                            x       y       z     vdW  Elec       q    Type
REMARK                         _______ _______ _______ _____ _____    ______ ____
ROOT
ATOM      1  C   UNL     1       2.457   4.899  17.994  0.00  0.00    +0.000 C 
ATOM      2  C   UNL     1       2.982   3.968  16.899  0.00  0.00    +0.000 C 
ATOM      3  C   UNL     1       4.499   3.863  16.887  0.00  0.00    +0.000 C 
ATOM      4  N   UNL     1       5.117   5.188  16.790  0.00  0.00    +0.000 N 
ATOM      5  C   UNL     1       6.262   5.473  16.063  0.00  0.00    +0.000 C 
ATOM      6  C   UNL     1       6.795   4.429  15.113  0.00  0.00    +0.000 C 
ATOM      7  O   UNL     1       6.836   6.562  16.137  0.00  0.00    +0.000 OA
ATOM      8  C   UNL     1       4.723   6.137  17.830  0.00  0.00    +0.000 C 
ATOM      9  C   UNL     1       3.211   6.240  18.005  0.00  0.00    +0.000 C 
ENDROOT
BRANCH   1  14
ATOM     10  C   UNL     1       3.206   2.686  20.985  0.00  0.00    +0.000 A 
ATOM     11  C   UNL     1       1.933   2.488  21.517  0.00  0.00    +0.000 A 
ATOM     12  C   UNL     1       0.846   3.216  21.038  0.00  0.00    +0.000 A 
ATOM     13  C   UNL     1       1.009   4.093  19.966  0.00  0.00    +0.000 A 
ATOM     14  C   UNL     1       2.258   4.242  19.354  0.00  0.00    +0.000 A 
ATOM     15  C   UNL     1       3.369   3.596  19.938  0.00  0.00    +0.000 A 
BRANCH  10  17
ATOM     16  C   UNL     1       5.194   1.408  20.656  0.00  0.00    +0.000 C 
ATOM     17  O   UNL     1       4.179   1.894  21.526  0.00  0.00    +0.000 OA
ENDBRANCH  10  17
ENDBRANCH   1  14
TORSDOF 2
ENDMDL
