MODEL 1
REMARK VINA RESULT:      -7.4      0.000      0.000
REMARK  Name = 
REMARK  10 active torsions:
REMARK  status: ('A' for Active; 'I' for Inactive)
REMARK    1  A    between atoms: C_1  and  O_2
REMARK    2  A    between atoms: O_2  and  C_3
REMARK    3  A    between atoms: C_5  and  C_6
REMARK    4  A    between atoms: N_11  and  C_12
REMARK    5  A    between atoms: C_12  and  C_13
REMARK    6  A    between atoms: C_18  and  C_19
REMARK    7  A    between atoms: C_26  and  O_27
REMARK    8  A    between atoms: O_27  and  C_28
REMARK    9  A    between atoms: C_29  and  O_30
REMARK   10  A    between atoms: O_30  and  C_31
REMARK                            x       y       z     vdW  Elec       q    Type
REMARK                         _______ _______ _______ _____ _____    ______ ____
ROOT
ATOM      1  C   UNL     1       2.526   7.882  18.080  0.00  0.00    +0.000 C 
ATOM      2  O   UNL     1       2.806   8.455  17.030  0.00  0.00    +0.000 OA
ATOM      3  N   UNL     1       1.787   8.483  19.098  0.00  0.00    +0.000 N 
ATOM      4  C   UNL     1       1.206   9.810  18.868  0.00  0.00    +0.000 C 
ATOM      5  C   UNL     1      -0.198   9.931  19.503  0.00  0.00    +0.000 C 
ATOM      6  N   UNL     1      -0.316   9.488  20.916  0.00  0.00    +0.000 NA
ATOM      7  C   UNL     1       0.302   8.144  21.044  0.00  0.00    +0.000 C 
ATOM      8  C   UNL     1       1.746   8.068  20.505  0.00  0.00    +0.000 C 
ENDROOT
BRANCH   1  11
ATOM      9  C   UNL     1       4.843   4.972  18.777  0.00  0.00    +0.000 A 
ATOM     10  C   UNL     1       4.373   6.261  18.473  0.00  0.00    +0.000 A 
ATOM     11  C   UNL     1       3.015   6.487  18.252  0.00  0.00    +0.000 A 
ATOM     12  C   UNL     1       2.151   5.400  18.187  0.00  0.00    +0.000 A 
ATOM     13  C   UNL     1       2.590   4.105  18.489  0.00  0.00    +0.000 A 
ATOM     14  C   UNL     1       3.952   3.870  18.781  0.00  0.00    +0.000 A 
BRANCH   9  16
ATOM     15  C   UNL     1       7.059   4.782  17.916  0.00  0.00    +0.000 C 
ATOM     16  O   UNL     1       6.173   4.759  19.033  0.00  0.00    +0.000 OA
ENDBRANCH   9  16
BRANCH  13  17
ATOM     17  O   UNL     1       1.538   3.224  18.484  0.00  0.00    +0.000 OA
ATOM     18  C   UNL     1       0.814   2.978  19.678  0.00  0.00    +0.000 C 
ENDBRANCH  13  17
BRANCH  14  19
ATOM     19  O   UNL     1       4.288   2.566  19.025  0.00  0.00    +0.000 OA
ATOM     20  C   UNL     1       4.403   2.074  20.350  0.00  0.00    +0.000 C 
ENDBRANCH  14  19
ENDBRANCH   1  11
BRANCH   6  21
ATOM     21  C   UNL     1       0.292  10.402  21.895  0.00  0.00    +0.000 C 
BRANCH  21  22
ATOM     22  C   UNL     1      -0.543  11.614  22.265  0.00  0.00    +0.000 A 
ATOM     23  C   UNL     1      -1.686  11.389  23.062  0.00  0.00    +0.000 A 
ATOM     24  C   UNL     1      -2.540  12.426  23.426  0.00  0.00    +0.000 A 
ATOM     25  C   UNL     1      -2.254  13.725  23.013  0.00  0.00    +0.000 A 
ATOM     26  C   UNL     1      -1.134  13.966  22.222  0.00  0.00    +0.000 A 
ATOM     27  C   UNL     1      -0.273  12.924  21.815  0.00  0.00    +0.000 A 
BRANCH  27  28
ATOM     28  C   UNL     1       0.862  13.306  20.886  0.00  0.00    +0.000 C 
ATOM     29  F   UNL     1       2.003  12.576  20.988  0.00  0.00    +0.000 F 
ATOM     30  F   UNL     1       0.488  13.180  19.574  0.00  0.00    +0.000 F 
ATOM     31  F   UNL     1       1.229  14.612  21.023  0.00  0.00    +0.000 F 
ENDBRANCH  27  28
ENDBRANCH  21  22
ENDBRANCH   6  21
TORSDOF 7
ENDMDL
MODEL 2
REMARK VINA RESULT:      -7.3      0.348      2.385
REMARK  Name = 
REMARK  10 active torsions:
REMARK  status: ('A' for Active; 'I' for Inactive)
REMARK    1  A    between atoms: C_1  and  O_2
REMARK    2  A    between atoms: O_2  and  C_3
REMARK    3  A    between atoms: C_5  and  C_6
REMARK    4  A    between atoms: N_11  and  C_12
REMARK    5  A    between atoms: C_12  and  C_13
REMARK    6  A    between atoms: C_18  and  C_19
REMARK    7  A    between atoms: C_26  and  O_27
REMARK    8  A    between atoms: O_27  and  C_28
REMARK    9  A    between atoms: C_29  and  O_30
REMARK   10  A    between atoms: O_30  and  C_31
REMARK                            x       y       z     vdW  Elec       q    Type
REMARK                         _______ _______ _______ _____ _____    ______ ____
ROOT
ATOM      1  C   UNL     1       2.402   7.952  18.152  0.00  0.00    +0.000 C 
ATOM      2  O   UNL     1       2.696   8.484  17.084  0.00  0.00    +0.000 OA
ATOM      3  N   UNL     1       1.668   8.599  19.145  0.00  0.00    +0.000 N 
ATOM      4  C   UNL     1       1.110   9.927  18.867  0.00  0.00    +0.000 C 
ATOM      5  C   UNL     1      -0.295  10.091  19.491  0.00  0.00    +0.000 C 
ATOM      6  N   UNL     1      -0.426   9.700  20.918  0.00  0.00    +0.000 NA
ATOM      7  C   UNL     1       0.171   8.351  21.095  0.00  0.00    +0.000 C 
ATOM      8  C   UNL     1       1.615   8.234  20.565  0.00  0.00    +0.000 C 
ENDROOT
BRANCH   1  11
ATOM      9  C   UNL     1       2.466   4.169  18.154  0.00  0.00    +0.000 A 
ATOM     10  C   UNL     1       2.010   5.496  18.087  0.00  0.00    +0.000 A 
ATOM     11  C   UNL     1       2.868   6.556  18.374  0.00  0.00    +0.000 A 
ATOM     12  C   UNL     1       4.136   6.283  18.873  0.00  0.00    +0.000 A 
ATOM     13  C   UNL     1       4.620   4.971  18.946  0.00  0.00    +0.000 A 
ATOM     14  C   UNL     1       3.784   3.888  18.595  0.00  0.00    +0.000 A 
BRANCH   9  16
ATOM     15  C   UNL     1       0.827   2.596  18.884  0.00  0.00    +0.000 C 
ATOM     16  O   UNL     1       1.632   3.129  17.834  0.00  0.00    +0.000 OA
ENDBRANCH   9  16
BRANCH  13  17
ATOM     17  O   UNL     1       5.934   4.961  19.345  0.00  0.00    +0.000 OA
ATOM     18  C   UNL     1       6.966   5.099  18.383  0.00  0.00    +0.000 C 
ENDBRANCH  13  17
BRANCH  14  19
ATOM     19  O   UNL     1       4.336   2.644  18.738  0.00  0.00    +0.000 OA
ATOM     20  C   UNL     1       4.374   2.001  20.002  0.00  0.00    +0.000 C 
ENDBRANCH  14  19
ENDBRANCH   1  11
BRANCH   6  21
ATOM     21  C   UNL     1       0.192  10.637  21.868  0.00  0.00    +0.000 C 
BRANCH  21  22
ATOM     22  C   UNL     1      -0.671  11.813  22.282  0.00  0.00    +0.000 A 
ATOM     23  C   UNL     1      -1.792  11.535  23.093  0.00  0.00    +0.000 A 
ATOM     24  C   UNL     1      -2.670  12.537  23.497  0.00  0.00    +0.000 A 
ATOM     25  C   UNL     1      -2.431  13.853  23.111  0.00  0.00    +0.000 A 
ATOM     26  C   UNL     1      -1.332  14.147  22.308  0.00  0.00    +0.000 A 
ATOM     27  C   UNL     1      -0.449  13.141  21.860  0.00  0.00    +0.000 A 
BRANCH  27  28
ATOM     28  C   UNL     1       0.658  13.580  20.921  0.00  0.00    +0.000 C 
ATOM     29  F   UNL     1       0.966  14.903  20.922  0.00  0.00    +0.000 F 
ATOM     30  F   UNL     1       1.837  12.951  21.223  0.00  0.00    +0.000 F 
ATOM     31  F   UNL     1       0.403  13.246  19.624  0.00  0.00    +0.000 F 
ENDBRANCH  27  28
ENDBRANCH  21  22
ENDBRANCH   6  21
TORSDOF 7
ENDMDL
MODEL 3
REMARK VINA RESULT:      -7.1      0.825      2.437
REMARK  Name = 
REMARK  10 active torsions:
REMARK  status: ('A' for Active; 'I' for Inactive)
REMARK    1  A    between atoms: C_1  and  O_2
REMARK    2  A    between atoms: O_2  and  C_3
REMARK    3  A    between atoms: C_5  and  C_6
REMARK    4  A    between atoms: N_11  and  C_12
REMARK    5  A    between atoms: C_12  and  C_13
REMARK    6  A    between atoms: C_18  and  C_19
REMARK    7  A    between atoms: C_26  and  O_27
REMARK    8  A    between atoms: O_27  and  C_28
REMARK    9  A    between atoms: C_29  and  O_30
REMARK   10  A    between atoms: O_30  and  C_31
REMARK                            x       y       z     vdW  Elec       q    Type
REMARK                         _______ _______ _______ _____ _____    ______ ____
ROOT
ATOM      1  C   UNL     1       2.441   7.655  18.588  0.00  0.00    +0.000 C 
ATOM      2  O   UNL     1       2.812   8.061  17.488  0.00  0.00    +0.000 OA
ATOM      3  N   UNL     1       1.679   8.427  19.462  0.00  0.00    +0.000 N 
ATOM      4  C   UNL     1       1.185   9.733  19.014  0.00  0.00    +0.000 C 
ATOM      5  C   UNL     1      -0.245  10.007  19.535  0.00  0.00    +0.000 C 
ATOM      6  N   UNL     1      -0.467   9.775  20.985  0.00  0.00    +0.000 NA
ATOM      7  C   UNL     1       0.069   8.435  21.338  0.00  0.00    +0.000 C 
ATOM      8  C   UNL     1       1.535   8.219  20.908  0.00  0.00    +0.000 C 
ENDROOT
BRANCH   1  11
ATOM      9  C   UNL     1       2.196   4.017  19.598  0.00  0.00    +0.000 A 
ATOM     10  C   UNL     1       1.863   5.360  19.355  0.00  0.00    +0.000 A 
ATOM     11  C   UNL     1       2.843   6.278  18.983  0.00  0.00    +0.000 A 
ATOM     12  C   UNL     1       4.177   5.886  19.002  0.00  0.00    +0.000 A 
ATOM     13  C   UNL     1       4.539   4.554  19.236  0.00  0.00    +0.000 A 
ATOM     14  C   UNL     1       3.548   3.597  19.549  0.00  0.00    +0.000 A 
BRANCH   9  16
ATOM     15  C   UNL     1       0.573   2.438  18.846  0.00  0.00    +0.000 C 
ATOM     16  O   UNL     1       1.224   3.107  19.925  0.00  0.00    +0.000 OA
ENDBRANCH   9  16
BRANCH  13  17
ATOM     17  O   UNL     1       5.892   4.385  19.077  0.00  0.00    +0.000 OA
ATOM     18  C   UNL     1       6.772   5.475  19.293  0.00  0.00    +0.000 C 
ENDBRANCH  13  17
BRANCH  14  19
ATOM     19  O   UNL     1       4.007   2.332  19.799  0.00  0.00    +0.000 OA
ATOM     20  C   UNL     1       3.981   1.331  18.795  0.00  0.00    +0.000 C 
ENDBRANCH  14  19
ENDBRANCH   1  11
BRANCH   6  21
ATOM     21  C   UNL     1       0.132  10.790  21.865  0.00  0.00    +0.000 C 
BRANCH  21  22
ATOM     22  C   UNL     1      -0.799  11.903  22.308  0.00  0.00    +0.000 A 
ATOM     23  C   UNL     1      -1.913  11.536  23.094  0.00  0.00    +0.000 A 
ATOM     24  C   UNL     1      -2.847  12.475  23.520  0.00  0.00    +0.000 A 
ATOM     25  C   UNL     1      -2.675  13.815  23.184  0.00  0.00    +0.000 A 
ATOM     26  C   UNL     1      -1.585  14.196  22.406  0.00  0.00    +0.000 A 
ATOM     27  C   UNL     1      -0.643  13.255  21.935  0.00  0.00    +0.000 A 
BRANCH  27  28
ATOM     28  C   UNL     1       0.449  13.785  21.027  0.00  0.00    +0.000 C 
ATOM     29  F   UNL     1       0.539  13.224  19.794  0.00  0.00    +0.000 F 
ATOM     30  F   UNL     1       0.281  15.123  20.786  0.00  0.00    +0.000 F 
ATOM     31  F   UNL     1       1.687  13.681  21.588  0.00  0.00    +0.000 F 
ENDBRANCH  27  28
ENDBRANCH  21  22
ENDBRANCH   6  21
TORSDOF 7
ENDMDL
MODEL 4
REMARK VINA RESULT:      -7.0      1.667      3.148
REMARK  Name = 
REMARK  10 active torsions:
REMARK  status: ('A' for Active; 'I' for Inactive)
REMARK    1  A    between atoms: C_1  and  O_2
REMARK    2  A    between atoms: O_2  and  C_3
REMARK    3  A    between atoms: C_5  and  C_6
REMARK    4  A    between atoms: N_11  and  C_12
REMARK    5  A    between atoms: C_12  and  C_13
REMARK    6  A    between atoms: C_18  and  C_19
REMARK    7  A    between atoms: C_26  and  O_27
REMARK    8  A    between atoms: O_27  and  C_28
REMARK    9  A    between atoms: C_29  and  O_30
REMARK   10  A    between atoms: O_30  and  C_31
REMARK                            x       y       z     vdW  Elec       q    Type
REMARK                         _______ _______ _______ _____ _____    ______ ____
ROOT
ATOM      1  C   UNL     1       2.369   7.942  18.179  0.00  0.00    +0.000 C 
ATOM      2  O   UNL     1       2.666   8.459  17.104  0.00  0.00    +0.000 OA
ATOM      3  N   UNL     1       1.654   8.613  19.170  0.00  0.00    +0.000 N 
ATOM      4  C   UNL     1       1.120   9.948  18.883  0.00  0.00    +0.000 C 
ATOM      5  C   UNL     1      -0.278  10.145  19.515  0.00  0.00    +0.000 C 
ATOM      6  N   UNL     1      -0.407   9.769  20.947  0.00  0.00    +0.000 NA
ATOM      7  C   UNL     1       0.165   8.411  21.132  0.00  0.00    +0.000 C 
ATOM      8  C   UNL     1       1.603   8.262  20.594  0.00  0.00    +0.000 C 
ENDROOT
BRANCH   1  11
ATOM      9  C   UNL     1       2.384   4.158  18.173  0.00  0.00    +0.000 A 
ATOM     10  C   UNL     1       1.947   5.491  18.095  0.00  0.00    +0.000 A 
ATOM     11  C   UNL     1       2.809   6.540  18.411  0.00  0.00    +0.000 A 
ATOM     12  C   UNL     1       4.058   6.249  18.948  0.00  0.00    +0.000 A 
ATOM     13  C   UNL     1       4.523   4.931  19.033  0.00  0.00    +0.000 A 
ATOM     14  C   UNL     1       3.683   3.860  18.653  0.00  0.00    +0.000 A 
BRANCH   9  16
ATOM     15  C   UNL     1       0.777   2.538  18.868  0.00  0.00    +0.000 C 
ATOM     16  O   UNL     1       1.547   3.130  17.823  0.00  0.00    +0.000 OA
ENDBRANCH   9  16
BRANCH  13  17
ATOM     17  O   UNL     1       5.823   4.903  19.471  0.00  0.00    +0.000 OA
ATOM     18  C   UNL     1       6.821   5.627  18.773  0.00  0.00    +0.000 C 
ENDBRANCH  13  17
BRANCH  14  19
ATOM     19  O   UNL     1       4.215   2.608  18.810  0.00  0.00    +0.000 OA
ATOM     20  C   UNL     1       4.345   2.023  20.095  0.00  0.00    +0.000 C 
ENDBRANCH  14  19
ENDBRANCH   1  11
BRANCH   6  21
ATOM     21  C   UNL     1       0.235  10.703  21.884  0.00  0.00    +0.000 C 
BRANCH  21  22
ATOM     22  C   UNL     1      -0.055  12.173  21.645  0.00  0.00    +0.000 A 
ATOM     23  C   UNL     1       0.928  12.919  20.959  0.00  0.00    +0.000 A 
ATOM     24  C   UNL     1       0.777  14.282  20.721  0.00  0.00    +0.000 A 
ATOM     25  C   UNL     1      -0.379  14.929  21.151  0.00  0.00    +0.000 A 
ATOM     26  C   UNL     1      -1.358  14.210  21.833  0.00  0.00    +0.000 A 
ATOM     27  C   UNL     1      -1.210  12.835  22.113  0.00  0.00    +0.000 A 
BRANCH  27  28
ATOM     28  C   UNL     1      -2.307  12.189  22.936  0.00  0.00    +0.000 C 
ATOM     29  F   UNL     1      -2.012  10.995  23.512  0.00  0.00    +0.000 F 
ATOM     30  F   UNL     1      -2.676  12.994  23.981  0.00  0.00    +0.000 F 
ATOM     31  F   UNL     1      -3.450  11.997  22.219  0.00  0.00    +0.000 F 
ENDBRANCH  27  28
ENDBRANCH  21  22
ENDBRANCH   6  21
TORSDOF 7
ENDMDL
MODEL 5
REMARK VINA RESULT:      -7.0      1.103      1.104
REMARK  Name = 
REMARK  10 active torsions:
REMARK  status: ('A' for Active; 'I' for Inactive)
REMARK    1  A    between atoms: C_1  and  O_2
REMARK    2  A    between atoms: O_2  and  C_3
REMARK    3  A    between atoms: C_5  and  C_6
REMARK    4  A    between atoms: N_11  and  C_12
REMARK    5  A    between atoms: C_12  and  C_13
REMARK    6  A    between atoms: C_18  and  C_19
REMARK    7  A    between atoms: C_26  and  O_27
REMARK    8  A    between atoms: O_27  and  C_28
REMARK    9  A    between atoms: C_29  and  O_30
REMARK   10  A    between atoms: O_30  and  C_31
REMARK                            x       y       z     vdW  Elec       q    Type
REMARK                         _______ _______ _______ _____ _____    ______ ____
ROOT
ATOM      1  C   UNL     1       2.243   8.151  18.392  0.00  0.00    +0.000 C 
ATOM      2  O   UNL     1       2.438   8.628  17.277  0.00  0.00    +0.000 OA
ATOM      3  N   UNL     1       1.503   8.803  19.377  0.00  0.00    +0.000 N 
ATOM      4  C   UNL     1       0.817  10.054  19.041  0.00  0.00    +0.000 C 
ATOM      5  C   UNL     1      -0.567  10.143  19.726  0.00  0.00    +0.000 C 
ATOM      6  N   UNL     1      -0.595   9.845  21.181  0.00  0.00    +0.000 NA
ATOM      7  C   UNL     1       0.126   8.567  21.416  0.00  0.00    +0.000 C 
ATOM      8  C   UNL     1       1.549   8.537  20.820  0.00  0.00    +0.000 C 
ENDROOT
BRANCH   1  11
ATOM      9  C   UNL     1       4.593   5.188  18.261  0.00  0.00    +0.000 A 
ATOM     10  C   UNL     1       3.921   6.374  17.923  0.00  0.00    +0.000 A 
ATOM     11  C   UNL     1       2.841   6.819  18.683  0.00  0.00    +0.000 A 
ATOM     12  C   UNL     1       2.340   6.001  19.689  0.00  0.00    +0.000 A 
ATOM     13  C   UNL     1       2.992   4.816  20.052  0.00  0.00    +0.000 A 
ATOM     14  C   UNL     1       4.129   4.385  19.333  0.00  0.00    +0.000 A 
BRANCH   9  16
ATOM     15  C   UNL     1       5.420   4.100  16.306  0.00  0.00    +0.000 C 
ATOM     16  O   UNL     1       5.680   4.773  17.536  0.00  0.00    +0.000 OA
ENDBRANCH   9  16
BRANCH  13  17
ATOM     17  O   UNL     1       2.390   4.249  21.148  0.00  0.00    +0.000 OA
ATOM     18  C   UNL     1       1.272   3.394  20.978  0.00  0.00    +0.000 C 
ENDBRANCH  13  17
BRANCH  14  19
ATOM     19  O   UNL     1       4.669   3.195  19.739  0.00  0.00    +0.000 OA
ATOM     20  C   UNL     1       4.178   1.960  19.245  0.00  0.00    +0.000 C 
ENDBRANCH  14  19
ENDBRANCH   1  11
BRANCH   6  21
ATOM     21  C   UNL     1      -0.019  10.897  22.032  0.00  0.00    +0.000 C 
BRANCH  21  22
ATOM     22  C   UNL     1      -0.969  12.010  22.430  0.00  0.00    +0.000 A 
ATOM     23  C   UNL     1      -2.090  11.651  23.210  0.00  0.00    +0.000 A 
ATOM     24  C   UNL     1      -3.042  12.590  23.597  0.00  0.00    +0.000 A 
ATOM     25  C   UNL     1      -2.882  13.922  23.225  0.00  0.00    +0.000 A 
ATOM     26  C   UNL     1      -1.785  14.294  22.452  0.00  0.00    +0.000 A 
ATOM     27  C   UNL     1      -0.825  13.353  22.021  0.00  0.00    +0.000 A 
BRANCH  27  28
ATOM     28  C   UNL     1       0.273  13.872  21.114  0.00  0.00    +0.000 C 
ATOM     29  F   UNL     1       1.544  13.514  21.433  0.00  0.00    +0.000 F 
ATOM     30  F   UNL     1       0.102  13.425  19.830  0.00  0.00    +0.000 F 
ATOM     31  F   UNL     1       0.269  15.231  21.017  0.00  0.00    +0.000 F 
ENDBRANCH  27  28
ENDBRANCH  21  22
ENDBRANCH   6  21
TORSDOF 7
ENDMDL
MODEL 6
REMARK VINA RESULT:      -6.8      1.057      2.356
REMARK  Name = 
REMARK  10 active torsions:
REMARK  status: ('A' for Active; 'I' for Inactive)
REMARK    1  A    between atoms: C_1  and  O_2
REMARK    2  A    between atoms: O_2  and  C_3
REMARK    3  A    between atoms: C_5  and  C_6
REMARK    4  A    between atoms: N_11  and  C_12
REMARK    5  A    between atoms: C_12  and  C_13
REMARK    6  A    between atoms: C_18  and  C_19
REMARK    7  A    between atoms: C_26  and  O_27
REMARK    8  A    between atoms: O_27  and  C_28
REMARK    9  A    between atoms: C_29  and  O_30
REMARK   10  A    between atoms: O_30  and  C_31
REMARK                            x       y       z     vdW  Elec       q    Type
REMARK                         _______ _______ _______ _____ _____    ______ ____
ROOT
ATOM      1  C   UNL     1       2.316   8.067  18.322  0.00  0.00    +0.000 C 
ATOM      2  O   UNL     1       2.541   8.516  17.201  0.00  0.00    +0.000 OA
ATOM      3  N   UNL     1       1.570   8.754  19.279  0.00  0.00    +0.000 N 
ATOM      4  C   UNL     1       0.914  10.010  18.902  0.00  0.00    +0.000 C 
ATOM      5  C   UNL     1      -0.481  10.139  19.559  0.00  0.00    +0.000 C 
ATOM      6  N   UNL     1      -0.541   9.873  21.019  0.00  0.00    +0.000 NA
ATOM      7  C   UNL     1       0.151   8.588  21.296  0.00  0.00    +0.000 C 
ATOM      8  C   UNL     1       1.584   8.519  20.727  0.00  0.00    +0.000 C 
ENDROOT
BRANCH   1  11
ATOM      9  C   UNL     1       2.837   4.736  20.041  0.00  0.00    +0.000 A 
ATOM     10  C   UNL     1       2.423   6.054  19.780  0.00  0.00    +0.000 A 
ATOM     11  C   UNL     1       2.884   6.732  18.653  0.00  0.00    +0.000 A 
ATOM     12  C   UNL     1       3.872   6.147  17.870  0.00  0.00    +0.000 A 
ATOM     13  C   UNL     1       4.300   4.834  18.102  0.00  0.00    +0.000 A 
ATOM     14  C   UNL     1       3.792   4.109  19.203  0.00  0.00    +0.000 A 
BRANCH   9  16
ATOM     15  C   UNL     1       1.159   3.298  20.940  0.00  0.00    +0.000 C 
ATOM     16  O   UNL     1       2.352   4.057  21.129  0.00  0.00    +0.000 OA
ENDBRANCH   9  16
BRANCH  13  17
ATOM     17  O   UNL     1       5.181   4.432  17.129  0.00  0.00    +0.000 OA
ATOM     18  C   UNL     1       6.539   4.830  17.196  0.00  0.00    +0.000 C 
ENDBRANCH  13  17
BRANCH  14  19
ATOM     19  O   UNL     1       4.302   2.850  19.367  0.00  0.00    +0.000 OA
ATOM     20  C   UNL     1       3.686   1.725  18.761  0.00  0.00    +0.000 C 
ENDBRANCH  14  19
ENDBRANCH   1  11
BRANCH   6  21
ATOM     21  C   UNL     1       0.039  10.933  21.858  0.00  0.00    +0.000 C 
BRANCH  21  22
ATOM     22  C   UNL     1      -0.935  11.991  22.342  0.00  0.00    +0.000 A 
ATOM     23  C   UNL     1      -2.026  11.551  23.123  0.00  0.00    +0.000 A 
ATOM     24  C   UNL     1      -2.996  12.435  23.586  0.00  0.00    +0.000 A 
ATOM     25  C   UNL     1      -2.885  13.791  23.291  0.00  0.00    +0.000 A 
ATOM     26  C   UNL     1      -1.818  14.243  22.517  0.00  0.00    +0.000 A 
ATOM     27  C   UNL     1      -0.841  13.359  22.011  0.00  0.00    +0.000 A 
BRANCH  27  28
ATOM     28  C   UNL     1       0.220  13.964  21.113  0.00  0.00    +0.000 C 
ATOM     29  F   UNL     1       0.145  15.303  20.901  0.00  0.00    +0.000 F 
ATOM     30  F   UNL     1       1.473  13.767  21.631  0.00  0.00    +0.000 F 
ATOM     31  F   UNL     1       0.253  13.381  19.881  0.00  0.00    +0.000 F 
ENDBRANCH  27  28
ENDBRANCH  21  22
ENDBRANCH   6  21
TORSDOF 7
ENDMDL
MODEL 7
REMARK VINA RESULT:      -6.8      0.875      2.518
REMARK  Name = 
REMARK  10 active torsions:
REMARK  status: ('A' for Active; 'I' for Inactive)
REMARK    1  A    between atoms: C_1  and  O_2
REMARK    2  A    between atoms: O_2  and  C_3
REMARK    3  A    between atoms: C_5  and  C_6
REMARK    4  A    between atoms: N_11  and  C_12
REMARK    5  A    between atoms: C_12  and  C_13
REMARK    6  A    between atoms: C_18  and  C_19
REMARK    7  A    between atoms: C_26  and  O_27
REMARK    8  A    between atoms: O_27  and  C_28
REMARK    9  A    between atoms: C_29  and  O_30
REMARK   10  A    between atoms: O_30  and  C_31
REMARK                            x       y       z     vdW  Elec       q    Type
REMARK                         _______ _______ _______ _____ _____    ______ ____
ROOT
ATOM      1  C   UNL     1       2.833   7.668  17.870  0.00  0.00    +0.000 C 
ATOM      2  O   UNL     1       3.267   8.040  16.783  0.00  0.00    +0.000 OA
ATOM      3  N   UNL     1       2.034   8.471  18.683  0.00  0.00    +0.000 N 
ATOM      4  C   UNL     1       1.583   9.771  18.175  0.00  0.00    +0.000 C 
ATOM      5  C   UNL     1       0.130  10.074  18.611  0.00  0.00    +0.000 C 
ATOM      6  N   UNL     1      -0.173   9.883  20.053  0.00  0.00    +0.000 NA
ATOM      7  C   UNL     1       0.326   8.546  20.467  0.00  0.00    +0.000 C 
ATOM      8  C   UNL     1       1.810   8.302  20.123  0.00  0.00    +0.000 C 
ENDROOT
BRANCH   1  11
ATOM      9  C   UNL     1       2.504   4.019  18.820  0.00  0.00    +0.000 A 
ATOM     10  C   UNL     1       2.186   5.357  18.530  0.00  0.00    +0.000 A 
ATOM     11  C   UNL     1       3.195   6.296  18.321  0.00  0.00    +0.000 A 
ATOM     12  C   UNL     1       4.516   5.932  18.552  0.00  0.00    +0.000 A 
ATOM     13  C   UNL     1       4.863   4.606  18.838  0.00  0.00    +0.000 A 
ATOM     14  C   UNL     1       3.855   3.627  18.986  0.00  0.00    +0.000 A 
BRANCH   9  16
ATOM     15  C   UNL     1       0.906   3.009  20.274  0.00  0.00    +0.000 C 
ATOM     16  O   UNL     1       1.511   3.088  18.985  0.00  0.00    +0.000 OA
ENDBRANCH   9  16
BRANCH  13  17
ATOM     17  O   UNL     1       6.228   4.464  18.896  0.00  0.00    +0.000 OA
ATOM     18  C   UNL     1       7.038   5.566  19.269  0.00  0.00    +0.000 C 
ENDBRANCH  13  17
BRANCH  14  19
ATOM     19  O   UNL     1       4.295   2.370  19.304  0.00  0.00    +0.000 OA
ATOM     20  C   UNL     1       4.509   1.988  20.653  0.00  0.00    +0.000 C 
ENDBRANCH  14  19
ENDBRANCH   1  11
BRANCH   6  21
ATOM     21  C   UNL     1       0.391  10.913  20.938  0.00  0.00    +0.000 C 
BRANCH  21  22
ATOM     22  C   UNL     1      -0.619  11.822  21.611  0.00  0.00    +0.000 A 
ATOM     23  C   UNL     1      -1.265  11.324  22.764  0.00  0.00    +0.000 A 
ATOM     24  C   UNL     1      -2.235  12.063  23.435  0.00  0.00    +0.000 A 
ATOM     25  C   UNL     1      -2.569  13.334  22.974  0.00  0.00    +0.000 A 
ATOM     26  C   UNL     1      -1.947  13.840  21.835  0.00  0.00    +0.000 A 
ATOM     27  C   UNL     1      -0.984  13.094  21.121  0.00  0.00    +0.000 A 
BRANCH  27  28
ATOM     28  C   UNL     1      -0.445  13.723  19.851  0.00  0.00    +0.000 C 
ATOM     29  F   UNL     1      -0.814  13.141  18.681  0.00  0.00    +0.000 F 
ATOM     30  F   UNL     1      -0.857  15.024  19.735  0.00  0.00    +0.000 F 
ATOM     31  F   UNL     1       0.917  13.782  19.838  0.00  0.00    +0.000 F 
ENDBRANCH  27  28
ENDBRANCH  21  22
ENDBRANCH   6  21
TORSDOF 7
ENDMDL
MODEL 8
REMARK VINA RESULT:      -6.8      2.819      3.715
REMARK  Name = 
REMARK  10 active torsions:
REMARK  status: ('A' for Active; 'I' for Inactive)
REMARK    1  A    between atoms: C_1  and  O_2
REMARK    2  A    between atoms: O_2  and  C_3
REMARK    3  A    between atoms: C_5  and  C_6
REMARK    4  A    between atoms: N_11  and  C_12
REMARK    5  A    between atoms: C_12  and  C_13
REMARK    6  A    between atoms: C_18  and  C_19
REMARK    7  A    between atoms: C_26  and  O_27
REMARK    8  A    between atoms: O_27  and  C_28
REMARK    9  A    between atoms: C_29  and  O_30
REMARK   10  A    between atoms: O_30  and  C_31
REMARK                            x       y       z     vdW  Elec       q    Type
REMARK                         _______ _______ _______ _____ _____    ______ ____
ROOT
ATOM      1  C   UNL     1       2.569   6.427  19.488  0.00  0.00    +0.000 C 
ATOM      2  O   UNL     1       2.433   5.840  20.559  0.00  0.00    +0.000 OA
ATOM      3  N   UNL     1       1.896   7.609  19.181  0.00  0.00    +0.000 N 
ATOM      4  C   UNL     1       1.084   8.255  20.217  0.00  0.00    +0.000 C 
ATOM      5  C   UNL     1       1.206   9.796  20.151  0.00  0.00    +0.000 C 
ATOM      6  N   UNL     1       1.023  10.409  18.811  0.00  0.00    +0.000 NA
ATOM      7  C   UNL     1       1.879   9.683  17.838  0.00  0.00    +0.000 C 
ATOM      8  C   UNL     1       1.665   8.155  17.839  0.00  0.00    +0.000 C 
ENDROOT
BRANCH   1  11
ATOM      9  C   UNL     1       5.476   6.039  17.097  0.00  0.00    +0.000 A 
ATOM     10  C   UNL     1       4.504   6.612  17.935  0.00  0.00    +0.000 A 
ATOM     11  C   UNL     1       3.494   5.827  18.488  0.00  0.00    +0.000 A 
ATOM     12  C   UNL     1       3.367   4.504  18.082  0.00  0.00    +0.000 A 
ATOM     13  C   UNL     1       4.322   3.905  17.252  0.00  0.00    +0.000 A 
ATOM     14  C   UNL     1       5.391   4.671  16.736  0.00  0.00    +0.000 A 
BRANCH   9  16
ATOM     15  C   UNL     1       7.477   7.271  17.506  0.00  0.00    +0.000 C 
ATOM     16  O   UNL     1       6.492   6.804  16.586  0.00  0.00    +0.000 OA
ENDBRANCH   9  16
BRANCH  13  17
ATOM     17  O   UNL     1       4.056   2.567  17.095  0.00  0.00    +0.000 OA
ATOM     18  C   UNL     1       3.646   1.792  18.208  0.00  0.00    +0.000 C 
ENDBRANCH  13  17
BRANCH  14  19
ATOM     19  O   UNL     1       6.248   4.004  15.903  0.00  0.00    +0.000 OA
ATOM     20  C   UNL     1       6.139   4.121  14.494  0.00  0.00    +0.000 C 
ENDBRANCH  14  19
ENDBRANCH   1  11
BRANCH   6  21
ATOM     21  C   UNL     1      -0.366  10.420  18.328  0.00  0.00    +0.000 C 
BRANCH  21  22
ATOM     22  C   UNL     1      -1.311  11.342  19.075  0.00  0.00    +0.000 A 
ATOM     23  C   UNL     1      -0.791  12.024  20.197  0.00  0.00    +0.000 A 
ATOM     24  C   UNL     1      -1.583  12.865  20.973  0.00  0.00    +0.000 A 
ATOM     25  C   UNL     1      -2.918  13.058  20.629  0.00  0.00    +0.000 A 
ATOM     26  C   UNL     1      -3.450  12.392  19.529  0.00  0.00    +0.000 A 
ATOM     27  C   UNL     1      -2.673  11.509  18.747  0.00  0.00    +0.000 A 
BRANCH  27  28
ATOM     28  C   UNL     1      -3.393  10.781  17.629  0.00  0.00    +0.000 C 
ATOM     29  F   UNL     1      -2.900  10.955  16.375  0.00  0.00    +0.000 F 
ATOM     30  F   UNL     1      -3.363   9.426  17.826  0.00  0.00    +0.000 F 
ATOM     31  F   UNL     1      -4.717  11.100  17.569  0.00  0.00    +0.000 F 
ENDBRANCH  27  28
ENDBRANCH  21  22
ENDBRANCH   6  21
TORSDOF 7
ENDMDL
MODEL 9
REMARK VINA RESULT:      -6.8      1.739      2.265
REMARK  Name = 
REMARK  10 active torsions:
REMARK  status: ('A' for Active; 'I' for Inactive)
REMARK    1  A    between atoms: C_1  and  O_2
REMARK    2  A    between atoms: O_2  and  C_3
REMARK    3  A    between atoms: C_5  and  C_6
REMARK    4  A    between atoms: N_11  and  C_12
REMARK    5  A    between atoms: C_12  and  C_13
REMARK    6  A    between atoms: C_18  and  C_19
REMARK    7  A    between atoms: C_26  and  O_27
REMARK    8  A    between atoms: O_27  and  C_28
REMARK    9  A    between atoms: C_29  and  O_30
REMARK   10  A    between atoms: O_30  and  C_31
REMARK                            x       y       z     vdW  Elec       q    Type
REMARK                         _______ _______ _______ _____ _____    ______ ____
ROOT
ATOM      1  C   UNL     1       2.406   7.776  18.372  0.00  0.00    +0.000 C 
ATOM      2  O   UNL     1       2.740   8.221  17.276  0.00  0.00    +0.000 OA
ATOM      3  N   UNL     1       1.682   8.520  19.303  0.00  0.00    +0.000 N 
ATOM      4  C   UNL     1       1.184   9.846  18.923  0.00  0.00    +0.000 C 
ATOM      5  C   UNL     1      -0.224  10.109  19.505  0.00  0.00    +0.000 C 
ATOM      6  N   UNL     1      -0.396   9.823  20.953  0.00  0.00    +0.000 NA
ATOM      7  C   UNL     1       0.141   8.467  21.234  0.00  0.00    +0.000 C 
ATOM      8  C   UNL     1       1.589   8.256  20.743  0.00  0.00    +0.000 C 
ENDROOT
BRANCH   1  11
ATOM      9  C   UNL     1       4.581   4.785  19.170  0.00  0.00    +0.000 A 
ATOM     10  C   UNL     1       4.164   6.052  18.731  0.00  0.00    +0.000 A 
ATOM     11  C   UNL     1       2.810   6.382  18.699  0.00  0.00    +0.000 A 
ATOM     12  C   UNL     1       1.868   5.395  18.963  0.00  0.00    +0.000 A 
ATOM     13  C   UNL     1       2.253   4.124  19.408  0.00  0.00    +0.000 A 
ATOM     14  C   UNL     1       3.624   3.796  19.509  0.00  0.00    +0.000 A 
BRANCH   9  16
ATOM     15  C   UNL     1       6.835   5.565  19.198  0.00  0.00    +0.000 C 
ATOM     16  O   UNL     1       5.915   4.476  19.239  0.00  0.00    +0.000 OA
ENDBRANCH   9  16
BRANCH  13  17
ATOM     17  O   UNL     1       1.153   3.368  19.726  0.00  0.00    +0.000 OA
ATOM     18  C   UNL     1       0.604   2.479  18.767  0.00  0.00    +0.000 C 
ENDBRANCH  13  17
BRANCH  14  19
ATOM     19  O   UNL     1       3.897   2.518  19.915  0.00  0.00    +0.000 OA
ATOM     20  C   UNL     1       4.052   1.468  18.975  0.00  0.00    +0.000 C 
ENDBRANCH  14  19
ENDBRANCH   1  11
BRANCH   6  21
ATOM     21  C   UNL     1       0.243  10.799  21.849  0.00  0.00    +0.000 C 
BRANCH  21  22
ATOM     22  C   UNL     1      -0.089  12.253  21.576  0.00  0.00    +0.000 A 
ATOM     23  C   UNL     1       0.859  13.005  20.849  0.00  0.00    +0.000 A 
ATOM     24  C   UNL     1       0.668  14.356  20.577  0.00  0.00    +0.000 A 
ATOM     25  C   UNL     1      -0.494  14.986  21.014  0.00  0.00    +0.000 A 
ATOM     26  C   UNL     1      -1.440  14.262  21.737  0.00  0.00    +0.000 A 
ATOM     27  C   UNL     1      -1.251  12.899  22.051  0.00  0.00    +0.000 A 
BRANCH  27  28
ATOM     28  C   UNL     1      -2.313  12.249  22.916  0.00  0.00    +0.000 C 
ATOM     29  F   UNL     1      -1.985  11.065  23.494  0.00  0.00    +0.000 F 
ATOM     30  F   UNL     1      -2.658  13.061  23.964  0.00  0.00    +0.000 F 
ATOM     31  F   UNL     1      -3.477  12.037  22.238  0.00  0.00    +0.000 F 
ENDBRANCH  27  28
ENDBRANCH  21  22
ENDBRANCH   6  21
TORSDOF 7
ENDMDL
