MODEL 1
REMARK VINA RESULT:      -7.4      0.000      0.000
REMARK  Name = 
REMARK  5 active torsions:
REMARK  status: ('A' for Active; 'I' for Inactive)
REMARK    1  A    between atoms: C_1  and  O_2
REMARK    2  A    between atoms: O_2  and  C_3
REMARK    3  A    between atoms: C_6  and  S_7
REMARK    4  A    between atoms: S_7  and  O_10
REMARK    5  A    between atoms: O_10  and  N_11
REMARK                            x       y       z     vdW  Elec       q    Type
REMARK                         _______ _______ _______ _____ _____    ______ ____
ROOT
ATOM      1  S   UNL     1       4.966   4.483  18.627  0.00  0.00    +0.000 S 
ATOM      2  O   UNL     1       6.083   4.304  19.532  0.00  0.00    +0.000 OA
ATOM      3  O   UNL     1       4.066   5.610  18.789  0.00  0.00    +0.000 OA
ENDROOT
BRANCH   1   7
ATOM      4  C   UNL     1       6.680   4.582  14.394  0.00  0.00    +0.000 A 
ATOM      5  C   UNL     1       5.345   4.230  14.614  0.00  0.00    +0.000 A 
ATOM      6  C   UNL     1       4.807   4.248  15.901  0.00  0.00    +0.000 A 
ATOM      7  C   UNL     1       5.625   4.593  16.976  0.00  0.00    +0.000 A 
ATOM      8  C   UNL     1       6.960   4.959  16.772  0.00  0.00    +0.000 A 
ATOM      9  C   UNL     1       7.484   4.953  15.474  0.00  0.00    +0.000 A 
BRANCH   4  11
ATOM     10  C   UNL     1       6.381   3.545  12.286  0.00  0.00    +0.000 C 
ATOM     11  O   UNL     1       7.094   4.474  13.094  0.00  0.00    +0.000 OA
ENDBRANCH   4  11
ENDBRANCH   1   7
BRANCH   1  12
ATOM     12  O   UNL     1       4.093   3.099  18.615  0.00  0.00    +0.000 OA
BRANCH  12  13
ATOM     13  N   UNL     1       2.951   3.203  19.404  0.00  0.00    +0.000 N 
ATOM     14  C   UNL     1       2.933   2.759  20.685  0.00  0.00    +0.000 C 
ATOM     15  O   UNL     1       3.857   2.297  21.335  0.00  0.00    +0.000 OA
ATOM     16  C   UNL     1       1.520   2.895  21.183  0.00  0.00    +0.000 C 
ATOM     17  C   UNL     1       0.721   3.341  19.964  0.00  0.00    +0.000 C 
ATOM     18  C   UNL     1       1.728   3.383  18.849  0.00  0.00    +0.000 C 
ATOM     19  O   UNL     1       1.454   3.531  17.669  0.00  0.00    +0.000 OA
ENDBRANCH  12  13
ENDBRANCH   1  12
TORSDOF 4
ENDMDL
MODEL 2
REMARK VINA RESULT:      -7.2      0.368      1.167
REMARK  Name = 
REMARK  5 active torsions:
REMARK  status: ('A' for Active; 'I' for Inactive)
REMARK    1  A    between atoms: C_1  and  O_2
REMARK    2  A    between atoms: O_2  and  C_3
REMARK    3  A    between atoms: C_6  and  S_7
REMARK    4  A    between atoms: S_7  and  O_10
REMARK    5  A    between atoms: O_10  and  N_11
REMARK                            x       y       z     vdW  Elec       q    Type
REMARK                         _______ _______ _______ _____ _____    ______ ____
ROOT
ATOM      1  S   UNL     1       4.880   4.464  18.672  0.00  0.00    +0.000 S 
ATOM      2  O   UNL     1       5.917   4.180  19.641  0.00  0.00    +0.000 OA
ATOM      3  O   UNL     1       4.060   5.654  18.803  0.00  0.00    +0.000 OA
ENDROOT
BRANCH   1   7
ATOM      4  C   UNL     1       6.817   4.875  14.556  0.00  0.00    +0.000 A 
ATOM      5  C   UNL     1       7.514   5.243  15.711  0.00  0.00    +0.000 A 
ATOM      6  C   UNL     1       6.943   5.071  16.972  0.00  0.00    +0.000 A 
ATOM      7  C   UNL     1       5.651   4.554  17.069  0.00  0.00    +0.000 A 
ATOM      8  C   UNL     1       4.945   4.171  15.924  0.00  0.00    +0.000 A 
ATOM      9  C   UNL     1       5.535   4.334  14.665  0.00  0.00    +0.000 A 
BRANCH   4  11
ATOM     10  C   UNL     1       7.126   4.320  12.274  0.00  0.00    +0.000 C 
ATOM     11  O   UNL     1       7.471   5.142  13.383  0.00  0.00    +0.000 OA
ENDBRANCH   4  11
ENDBRANCH   1   7
BRANCH   1  12
ATOM     12  O   UNL     1       3.906   3.153  18.570  0.00  0.00    +0.000 OA
BRANCH  12  13
ATOM     13  N   UNL     1       2.806   3.261  19.417  0.00  0.00    +0.000 N 
ATOM     14  C   UNL     1       2.835   2.769  20.680  0.00  0.00    +0.000 C 
ATOM     15  O   UNL     1       3.773   2.255  21.267  0.00  0.00    +0.000 OA
ATOM     16  C   UNL     1       1.452   2.928  21.251  0.00  0.00    +0.000 C 
ATOM     17  C   UNL     1       0.610   3.443  20.089  0.00  0.00    +0.000 C 
ATOM     18  C   UNL     1       1.564   3.498  18.929  0.00  0.00    +0.000 C 
ATOM     19  O   UNL     1       1.240   3.698  17.770  0.00  0.00    +0.000 OA
ENDBRANCH  12  13
ENDBRANCH   1  12
TORSDOF 4
ENDMDL
MODEL 3
REMARK VINA RESULT:      -7.2      1.054      2.194
REMARK  Name = 
REMARK  5 active torsions:
REMARK  status: ('A' for Active; 'I' for Inactive)
REMARK    1  A    between atoms: C_1  and  O_2
REMARK    2  A    between atoms: O_2  and  C_3
REMARK    3  A    between atoms: C_6  and  S_7
REMARK    4  A    between atoms: S_7  and  O_10
REMARK    5  A    between atoms: O_10  and  N_11
REMARK                            x       y       z     vdW  Elec       q    Type
REMARK                         _______ _______ _______ _____ _____    ______ ____
ROOT
ATOM      1  S   UNL     1       4.969   4.555  18.840  0.00  0.00    +0.000 S 
ATOM      2  O   UNL     1       4.967   3.180  19.292  0.00  0.00    +0.000 OA
ATOM      3  O   UNL     1       5.664   5.576  19.602  0.00  0.00    +0.000 OA
ENDROOT
BRANCH   1   7
ATOM      4  C   UNL     1       6.728   4.806  14.632  0.00  0.00    +0.000 A 
ATOM      5  C   UNL     1       7.501   5.142  15.748  0.00  0.00    +0.000 A 
ATOM      6  C   UNL     1       6.981   5.018  17.037  0.00  0.00    +0.000 A 
ATOM      7  C   UNL     1       5.667   4.582  17.202  0.00  0.00    +0.000 A 
ATOM      8  C   UNL     1       4.884   4.232  16.096  0.00  0.00    +0.000 A 
ATOM      9  C   UNL     1       5.422   4.345  14.809  0.00  0.00    +0.000 A 
BRANCH   4  11
ATOM     10  C   UNL     1       6.959   4.149  12.368  0.00  0.00    +0.000 C 
ATOM     11  O   UNL     1       7.340   5.021  13.427  0.00  0.00    +0.000 OA
ENDBRANCH   4  11
ENDBRANCH   1   7
BRANCH   1  12
ATOM     12  O   UNL     1       3.416   5.020  18.618  0.00  0.00    +0.000 OA
BRANCH  12  13
ATOM     13  N   UNL     1       2.520   4.046  19.048  0.00  0.00    +0.000 N 
ATOM     14  C   UNL     1       1.825   3.285  18.166  0.00  0.00    +0.000 C 
ATOM     15  O   UNL     1       1.912   3.274  16.949  0.00  0.00    +0.000 OA
ATOM     16  C   UNL     1       0.859   2.450  18.963  0.00  0.00    +0.000 C 
ATOM     17  C   UNL     1       1.007   2.950  20.396  0.00  0.00    +0.000 C 
ATOM     18  C   UNL     1       2.013   4.063  20.304  0.00  0.00    +0.000 C 
ATOM     19  O   UNL     1       2.280   4.835  21.211  0.00  0.00    +0.000 OA
ENDBRANCH  12  13
ENDBRANCH   1  12
TORSDOF 4
ENDMDL
MODEL 4
REMARK VINA RESULT:      -7.1      0.997      1.932
REMARK  Name = 
REMARK  5 active torsions:
REMARK  status: ('A' for Active; 'I' for Inactive)
REMARK    1  A    between atoms: C_1  and  O_2
REMARK    2  A    between atoms: O_2  and  C_3
REMARK    3  A    between atoms: C_6  and  S_7
REMARK    4  A    between atoms: S_7  and  O_10
REMARK    5  A    between atoms: O_10  and  N_11
REMARK                            x       y       z     vdW  Elec       q    Type
REMARK                         _______ _______ _______ _____ _____    ______ ____
ROOT
ATOM      1  S   UNL     1       5.048   4.504  18.943  0.00  0.00    +0.000 S 
ATOM      2  O   UNL     1       4.989   3.098  19.281  0.00  0.00    +0.000 OA
ATOM      3  O   UNL     1       5.863   5.413  19.729  0.00  0.00    +0.000 OA
ENDROOT
BRANCH   1   7
ATOM      4  C   UNL     1       6.633   4.677  14.662  0.00  0.00    +0.000 A 
ATOM      5  C   UNL     1       5.594   3.805  15.002  0.00  0.00    +0.000 A 
ATOM      6  C   UNL     1       5.076   3.787  16.297  0.00  0.00    +0.000 A 
ATOM      7  C   UNL     1       5.625   4.630  17.263  0.00  0.00    +0.000 A 
ATOM      8  C   UNL     1       6.658   5.516  16.936  0.00  0.00    +0.000 A 
ATOM      9  C   UNL     1       7.159   5.537  15.629  0.00  0.00    +0.000 A 
BRANCH   4  11
ATOM     10  C   UNL     1       6.392   3.620  12.557  0.00  0.00    +0.000 C 
ATOM     11  O   UNL     1       7.082   4.559  13.375  0.00  0.00    +0.000 OA
ENDBRANCH   4  11
ENDBRANCH   1   7
BRANCH   1  12
ATOM     12  O   UNL     1       3.517   5.077  18.881  0.00  0.00    +0.000 OA
BRANCH  12  13
ATOM     13  N   UNL     1       2.588   4.106  19.244  0.00  0.00    +0.000 N 
ATOM     14  C   UNL     1       1.832   3.468  18.316  0.00  0.00    +0.000 C 
ATOM     15  O   UNL     1       1.883   3.574  17.101  0.00  0.00    +0.000 OA
ATOM     16  C   UNL     1       0.852   2.603  19.059  0.00  0.00    +0.000 C 
ATOM     17  C   UNL     1       1.065   2.950  20.528  0.00  0.00    +0.000 C 
ATOM     18  C   UNL     1       2.119   4.021  20.512  0.00  0.00    +0.000 C 
ATOM     19  O   UNL     1       2.449   4.686  21.480  0.00  0.00    +0.000 OA
ENDBRANCH  12  13
ENDBRANCH   1  12
TORSDOF 4
ENDMDL
MODEL 5
REMARK VINA RESULT:      -6.9      2.682      6.444
REMARK  Name = 
REMARK  5 active torsions:
REMARK  status: ('A' for Active; 'I' for Inactive)
REMARK    1  A    between atoms: C_1  and  O_2
REMARK    2  A    between atoms: O_2  and  C_3
REMARK    3  A    between atoms: C_6  and  S_7
REMARK    4  A    between atoms: S_7  and  O_10
REMARK    5  A    between atoms: O_10  and  N_11
REMARK                            x       y       z     vdW  Elec       q    Type
REMARK                         _______ _______ _______ _____ _____    ______ ____
ROOT
ATOM      1  S   UNL     1       6.270   6.521  16.297  0.00  0.00    +0.000 S 
ATOM      2  O   UNL     1       5.409   6.882  15.190  0.00  0.00    +0.000 OA
ATOM      3  O   UNL     1       6.959   7.549  17.055  0.00  0.00    +0.000 OA
ENDROOT
BRANCH   1   7
ATOM      4  C   UNL     1       3.771   4.014  19.183  0.00  0.00    +0.000 A 
ATOM      5  C   UNL     1       5.168   3.962  19.221  0.00  0.00    +0.000 A 
ATOM      6  C   UNL     1       5.933   4.765  18.374  0.00  0.00    +0.000 A 
ATOM      7  C   UNL     1       5.288   5.602  17.464  0.00  0.00    +0.000 A 
ATOM      8  C   UNL     1       3.892   5.673  17.420  0.00  0.00    +0.000 A 
ATOM      9  C   UNL     1       3.135   4.874  18.286  0.00  0.00    +0.000 A 
BRANCH   4  11
ATOM     10  C   UNL     1       2.145   2.312  19.444  0.00  0.00    +0.000 C 
ATOM     11  O   UNL     1       3.143   3.140  20.030  0.00  0.00    +0.000 OA
ENDBRANCH   4  11
ENDBRANCH   1   7
BRANCH   1  12
ATOM     12  O   UNL     1       7.365   5.433  15.755  0.00  0.00    +0.000 OA
BRANCH  12  13
ATOM     13  N   UNL     1       7.022   4.936  14.501  0.00  0.00    +0.000 N 
ATOM     14  C   UNL     1       6.221   3.850  14.365  0.00  0.00    +0.000 C 
ATOM     15  O   UNL     1       5.653   3.219  15.242  0.00  0.00    +0.000 OA
ATOM     16  C   UNL     1       6.177   3.510  12.900  0.00  0.00    +0.000 C 
ATOM     17  C   UNL     1       7.174   4.463  12.251  0.00  0.00    +0.000 C 
ATOM     18  C   UNL     1       7.747   5.246  13.399  0.00  0.00    +0.000 C 
ATOM     19  O   UNL     1       8.706   5.997  13.319  0.00  0.00    +0.000 OA
ENDBRANCH  12  13
ENDBRANCH   1  12
TORSDOF 4
ENDMDL
MODEL 6
REMARK VINA RESULT:      -6.8      2.740      6.498
REMARK  Name = 
REMARK  5 active torsions:
REMARK  status: ('A' for Active; 'I' for Inactive)
REMARK    1  A    between atoms: C_1  and  O_2
REMARK    2  A    between atoms: O_2  and  C_3
REMARK    3  A    between atoms: C_6  and  S_7
REMARK    4  A    between atoms: S_7  and  O_10
REMARK    5  A    between atoms: O_10  and  N_11
REMARK                            x       y       z     vdW  Elec       q    Type
REMARK                         _______ _______ _______ _____ _____    ______ ____
ROOT
ATOM      1  S   UNL     1       6.250   6.550  16.284  0.00  0.00    +0.000 S 
ATOM      2  O   UNL     1       5.394   6.892  15.167  0.00  0.00    +0.000 OA
ATOM      3  O   UNL     1       6.967   7.587  17.002  0.00  0.00    +0.000 OA
ENDROOT
BRANCH   1   7
ATOM      4  C   UNL     1       3.701   4.512  19.480  0.00  0.00    +0.000 A 
ATOM      5  C   UNL     1       3.136   5.449  18.609  0.00  0.00    +0.000 A 
ATOM      6  C   UNL     1       3.902   6.034  17.600  0.00  0.00    +0.000 A 
ATOM      7  C   UNL     1       5.250   5.698  17.486  0.00  0.00    +0.000 A 
ATOM      8  C   UNL     1       5.828   4.756  18.343  0.00  0.00    +0.000 A 
ATOM      9  C   UNL     1       5.046   4.162  19.342  0.00  0.00    +0.000 A 
BRANCH   4  11
ATOM     10  C   UNL     1       1.472   4.322  20.257  0.00  0.00    +0.000 C 
ATOM     11  O   UNL     1       2.856   4.053  20.453  0.00  0.00    +0.000 OA
ENDBRANCH   4  11
ENDBRANCH   1   7
BRANCH   1  12
ATOM     12  O   UNL     1       7.316   5.416  15.779  0.00  0.00    +0.000 OA
BRANCH  12  13
ATOM     13  N   UNL     1       6.987   4.924  14.519  0.00  0.00    +0.000 N 
ATOM     14  C   UNL     1       6.190   3.837  14.370  0.00  0.00    +0.000 C 
ATOM     15  O   UNL     1       5.615   3.200  15.238  0.00  0.00    +0.000 OA
ATOM     16  C   UNL     1       6.163   3.503  12.903  0.00  0.00    +0.000 C 
ATOM     17  C   UNL     1       7.164   4.462  12.269  0.00  0.00    +0.000 C 
ATOM     18  C   UNL     1       7.723   5.241  13.426  0.00  0.00    +0.000 C 
ATOM     19  O   UNL     1       8.680   5.995  13.360  0.00  0.00    +0.000 OA
ENDBRANCH  12  13
ENDBRANCH   1  12
TORSDOF 4
ENDMDL
MODEL 7
REMARK VINA RESULT:      -6.8      0.285      1.747
REMARK  Name = 
REMARK  5 active torsions:
REMARK  status: ('A' for Active; 'I' for Inactive)
REMARK    1  A    between atoms: C_1  and  O_2
REMARK    2  A    between atoms: O_2  and  C_3
REMARK    3  A    between atoms: C_6  and  S_7
REMARK    4  A    between atoms: S_7  and  O_10
REMARK    5  A    between atoms: O_10  and  N_11
REMARK                            x       y       z     vdW  Elec       q    Type
REMARK                         _______ _______ _______ _____ _____    ______ ____
ROOT
ATOM      1  S   UNL     1       4.776   4.188  18.579  0.00  0.00    +0.000 S 
ATOM      2  O   UNL     1       5.858   4.015  19.524  0.00  0.00    +0.000 OA
ATOM      3  O   UNL     1       3.810   5.257  18.759  0.00  0.00    +0.000 OA
ENDROOT
BRANCH   1   7
ATOM      4  C   UNL     1       6.665   4.611  14.442  0.00  0.00    +0.000 A 
ATOM      5  C   UNL     1       5.332   4.210  14.578  0.00  0.00    +0.000 A 
ATOM      6  C   UNL     1       4.740   4.128  15.839  0.00  0.00    +0.000 A 
ATOM      7  C   UNL     1       5.500   4.424  16.969  0.00  0.00    +0.000 A 
ATOM      8  C   UNL     1       6.831   4.838  16.849  0.00  0.00    +0.000 A 
ATOM      9  C   UNL     1       7.411   4.931  15.578  0.00  0.00    +0.000 A 
BRANCH   4  11
ATOM     10  C   UNL     1       6.549   3.643  12.283  0.00  0.00    +0.000 C 
ATOM     11  O   UNL     1       7.137   4.601  13.157  0.00  0.00    +0.000 OA
ENDBRANCH   4  11
ENDBRANCH   1   7
BRANCH   1  12
ATOM     12  O   UNL     1       3.979   2.765  18.451  0.00  0.00    +0.000 OA
BRANCH  12  13
ATOM     13  N   UNL     1       2.779   2.780  19.156  0.00  0.00    +0.000 N 
ATOM     14  C   UNL     1       1.642   3.275  18.607  0.00  0.00    +0.000 C 
ATOM     15  O   UNL     1       1.472   3.689  17.472  0.00  0.00    +0.000 OA
ATOM     16  C   UNL     1       0.589   3.268  19.682  0.00  0.00    +0.000 C 
ATOM     17  C   UNL     1       1.328   2.837  20.944  0.00  0.00    +0.000 C 
ATOM     18  C   UNL     1       2.756   2.674  20.507  0.00  0.00    +0.000 C 
ATOM     19  O   UNL     1       3.699   2.501  21.262  0.00  0.00    +0.000 OA
ENDBRANCH  12  13
ENDBRANCH   1  12
TORSDOF 4
ENDMDL
MODEL 8
REMARK VINA RESULT:      -6.7      1.007      1.240
REMARK  Name = 
REMARK  5 active torsions:
REMARK  status: ('A' for Active; 'I' for Inactive)
REMARK    1  A    between atoms: C_1  and  O_2
REMARK    2  A    between atoms: O_2  and  C_3
REMARK    3  A    between atoms: C_6  and  S_7
REMARK    4  A    between atoms: S_7  and  O_10
REMARK    5  A    between atoms: O_10  and  N_11
REMARK                            x       y       z     vdW  Elec       q    Type
REMARK                         _______ _______ _______ _____ _____    ______ ____
ROOT
ATOM      1  S   UNL     1       4.721   4.518  18.816  0.00  0.00    +0.000 S 
ATOM      2  O   UNL     1       4.559   3.115  19.133  0.00  0.00    +0.000 OA
ATOM      3  O   UNL     1       5.481   5.385  19.697  0.00  0.00    +0.000 OA
ENDROOT
BRANCH   1   7
ATOM      4  C   UNL     1       6.686   4.602  14.694  0.00  0.00    +0.000 A 
ATOM      5  C   UNL     1       5.298   4.486  14.819  0.00  0.00    +0.000 A 
ATOM      6  C   UNL     1       4.692   4.511  16.075  0.00  0.00    +0.000 A 
ATOM      7  C   UNL     1       5.490   4.623  17.214  0.00  0.00    +0.000 A 
ATOM      8  C   UNL     1       6.879   4.750  17.106  0.00  0.00    +0.000 A 
ATOM      9  C   UNL     1       7.474   4.741  15.838  0.00  0.00    +0.000 A 
BRANCH   4  11
ATOM     10  C   UNL     1       6.431   3.651  12.540  0.00  0.00    +0.000 C 
ATOM     11  O   UNL     1       7.155   4.513  13.411  0.00  0.00    +0.000 OA
ENDBRANCH   4  11
ENDBRANCH   1   7
BRANCH   1  12
ATOM     12  O   UNL     1       3.234   5.162  18.586  0.00  0.00    +0.000 OA
BRANCH  12  13
ATOM     13  N   UNL     1       2.228   4.308  19.028  0.00  0.00    +0.000 N 
ATOM     14  C   UNL     1       1.960   4.154  20.349  0.00  0.00    +0.000 C 
ATOM     15  O   UNL     1       2.463   4.741  21.293  0.00  0.00    +0.000 OA
ATOM     16  C   UNL     1       0.929   3.065  20.469  0.00  0.00    +0.000 C 
ATOM     17  C   UNL     1       0.760   2.533  19.051  0.00  0.00    +0.000 C 
ATOM     18  C   UNL     1       1.740   3.325  18.233  0.00  0.00    +0.000 C 
ATOM     19  O   UNL     1       2.035   3.083  17.073  0.00  0.00    +0.000 OA
ENDBRANCH  12  13
ENDBRANCH   1  12
TORSDOF 4
ENDMDL
MODEL 9
REMARK VINA RESULT:      -6.7      2.494      3.767
REMARK  Name = 
REMARK  5 active torsions:
REMARK  status: ('A' for Active; 'I' for Inactive)
REMARK    1  A    between atoms: C_1  and  O_2
REMARK    2  A    between atoms: O_2  and  C_3
REMARK    3  A    between atoms: C_6  and  S_7
REMARK    4  A    between atoms: S_7  and  O_10
REMARK    5  A    between atoms: O_10  and  N_11
REMARK                            x       y       z     vdW  Elec       q    Type
REMARK                         _______ _______ _______ _____ _____    ______ ____
ROOT
ATOM      1  S   UNL     1       4.486   3.983  17.377  0.00  0.00    +0.000 S 
ATOM      2  O   UNL     1       4.735   3.585  16.008  0.00  0.00    +0.000 OA
ATOM      3  O   UNL     1       4.510   2.998  18.443  0.00  0.00    +0.000 OA
ENDROOT
BRANCH   1   7
ATOM      4  C   UNL     1       7.681   7.106  18.329  0.00  0.00    +0.000 A 
ATOM      5  C   UNL     1       6.722   7.347  17.340  0.00  0.00    +0.000 A 
ATOM      6  C   UNL     1       5.716   6.415  17.083  0.00  0.00    +0.000 A 
ATOM      7  C   UNL     1       5.692   5.222  17.804  0.00  0.00    +0.000 A 
ATOM      8  C   UNL     1       6.637   4.971  18.804  0.00  0.00    +0.000 A 
ATOM      9  C   UNL     1       7.633   5.920  19.064  0.00  0.00    +0.000 A 
BRANCH   4  11
ATOM     10  C   UNL     1       8.263   9.381  18.017  0.00  0.00    +0.000 C 
ATOM     11  O   UNL     1       8.639   8.076  18.445  0.00  0.00    +0.000 OA
ENDBRANCH   4  11
ENDBRANCH   1   7
BRANCH   1  12
ATOM     12  O   UNL     1       3.060   4.784  17.423  0.00  0.00    +0.000 OA
BRANCH  12  13
ATOM     13  N   UNL     1       2.424   4.636  18.652  0.00  0.00    +0.000 N 
ATOM     14  C   UNL     1       1.440   3.722  18.835  0.00  0.00    +0.000 C 
ATOM     15  O   UNL     1       1.027   2.892  18.041  0.00  0.00    +0.000 OA
ATOM     16  C   UNL     1       0.888   3.932  20.218  0.00  0.00    +0.000 C 
ATOM     17  C   UNL     1       1.598   5.179  20.733  0.00  0.00    +0.000 C 
ATOM     18  C   UNL     1       2.469   5.615  19.588  0.00  0.00    +0.000 C 
ATOM     19  O   UNL     1       3.072   6.675  19.538  0.00  0.00    +0.000 OA
ENDBRANCH  12  13
ENDBRANCH   1  12
TORSDOF 4
ENDMDL
