MODEL 1
REMARK VINA RESULT:      -7.7      0.000      0.000
REMARK  Name = 
REMARK  10 active torsions:
REMARK  status: ('A' for Active; 'I' for Inactive)
REMARK    1  A    between atoms: C_1  and  O_2
REMARK    2  A    between atoms: O_2  and  C_3
REMARK    3  A    between atoms: C_6  and  C_7
REMARK    4  A    between atoms: C_12  and  S_13
REMARK    5  A    between atoms: S_13  and  C_15
REMARK    6  A    between atoms: C_15  and  C_16
REMARK    7  A    between atoms: C_19  and  C_20
REMARK    8  A    between atoms: C_21  and  O_22
REMARK    9  A    between atoms: O_22  and  C_23
REMARK   10  A    between atoms: C_24  and  C_25
REMARK                            x       y       z     vdW  Elec       q    Type
REMARK                         _______ _______ _______ _____ _____    ______ ____
ROOT
ATOM      1  C   UNL     1       3.301   5.708  18.586  0.00  0.00    +0.000 A 
ATOM      2  S   UNL     1       2.868   4.542  19.824  0.00  0.00    +0.000 S 
ATOM      3  C   UNL     1       1.878   5.659  20.715  0.00  0.00    +0.000 A 
ATOM      4  C   UNL     1       1.920   6.824  20.053  0.00  0.00    +0.000 A 
ATOM      5  N   UNL     1       1.332   8.023  20.307  0.00  0.00    +0.000 N 
ATOM      6  C   UNL     1       1.756   8.759  19.177  0.00  0.00    +0.000 A 
ATOM      7  N   UNL     1       2.579   8.099  18.326  0.00  0.00    +0.000 NA
ATOM      8  C   UNL     1       2.661   6.867  18.903  0.00  0.00    +0.000 A 
ATOM      9  H   UNL     1       0.736   8.308  21.070  0.00  0.00    +0.000 HD
ENDROOT
BRANCH   1  13
ATOM     10  C   UNL     1       5.808   4.636  15.269  0.00  0.00    +0.000 A 
ATOM     11  C   UNL     1       5.303   3.667  16.131  0.00  0.00    +0.000 A 
ATOM     12  C   UNL     1       4.491   4.024  17.209  0.00  0.00    +0.000 A 
ATOM     13  C   UNL     1       4.168   5.365  17.454  0.00  0.00    +0.000 A 
ATOM     14  C   UNL     1       4.677   6.334  16.575  0.00  0.00    +0.000 A 
ATOM     15  C   UNL     1       5.492   5.973  15.493  0.00  0.00    +0.000 A 
BRANCH  10  17
ATOM     16  C   UNL     1       5.959   3.698  13.106  0.00  0.00    +0.000 C 
ATOM     17  O   UNL     1       6.618   4.157  14.278  0.00  0.00    +0.000 OA
ENDBRANCH  10  17
ENDBRANCH   1  13
BRANCH   6  18
ATOM     18  S   UNL     1       1.183  10.394  18.919  0.00  0.00    +0.000 S 
ATOM     19  O   UNL     1       2.226  11.068  17.952  0.00  0.00    +0.000 OA
BRANCH  18  20
ATOM     20  C   UNL     1      -0.377  10.051  18.045  0.00  0.00    +0.000 C 
BRANCH  20  21
ATOM     21  C   UNL     1      -1.532  10.905  18.535  0.00  0.00    +0.000 A 
ATOM     22  N   UNL     1      -1.263  11.731  19.577  0.00  0.00    +0.000 NA
ATOM     23  C   UNL     1      -2.282  12.429  20.109  0.00  0.00    +0.000 A 
ATOM     24  C   UNL     1      -3.595  12.394  19.655  0.00  0.00    +0.000 A 
ATOM     25  C   UNL     1      -4.597  13.239  20.375  0.00  0.00    +0.000 C 
ATOM     26  C   UNL     1      -3.854  11.591  18.534  0.00  0.00    +0.000 A 
ATOM     27  C   UNL     1      -2.802  10.858  17.935  0.00  0.00    +0.000 A 
ATOM     28  C   UNL     1      -3.025  10.033  16.693  0.00  0.00    +0.000 C 
BRANCH  26  29
ATOM     29  O   UNL     1      -5.059  11.529  17.882  0.00  0.00    +0.000 OA
ATOM     30  C   UNL     1      -6.097  10.758  18.471  0.00  0.00    +0.000 C 
ENDBRANCH  26  29
ENDBRANCH  20  21
ENDBRANCH  18  20
ENDBRANCH   6  18
TORSDOF 6
ENDMDL
MODEL 2
REMARK VINA RESULT:      -7.5      3.129      4.270
REMARK  Name = 
REMARK  10 active torsions:
REMARK  status: ('A' for Active; 'I' for Inactive)
REMARK    1  A    between atoms: C_1  and  O_2
REMARK    2  A    between atoms: O_2  and  C_3
REMARK    3  A    between atoms: C_6  and  C_7
REMARK    4  A    between atoms: C_12  and  S_13
REMARK    5  A    between atoms: S_13  and  C_15
REMARK    6  A    between atoms: C_15  and  C_16
REMARK    7  A    between atoms: C_19  and  C_20
REMARK    8  A    between atoms: C_21  and  O_22
REMARK    9  A    between atoms: O_22  and  C_23
REMARK   10  A    between atoms: C_24  and  C_25
REMARK                            x       y       z     vdW  Elec       q    Type
REMARK                         _______ _______ _______ _____ _____    ______ ____
ROOT
ATOM      1  C   UNL     1       2.084   7.803  19.164  0.00  0.00    +0.000 A 
ATOM      2  S   UNL     1       2.426   8.765  17.737  0.00  0.00    +0.000 S 
ATOM      3  C   UNL     1       1.503  10.135  18.278  0.00  0.00    +0.000 A 
ATOM      4  C   UNL     1       0.997   9.810  19.476  0.00  0.00    +0.000 A 
ATOM      5  N   UNL     1       0.208  10.506  20.337  0.00  0.00    +0.000 N 
ATOM      6  C   UNL     1       0.126   9.586  21.407  0.00  0.00    +0.000 A 
ATOM      7  N   UNL     1       0.757   8.403  21.209  0.00  0.00    +0.000 NA
ATOM      8  C   UNL     1       1.310   8.575  19.975  0.00  0.00    +0.000 A 
ATOM      9  H   UNL     1      -0.189  11.431  20.255  0.00  0.00    +0.000 HD
ENDROOT
BRANCH   1  13
ATOM     10  C   UNL     1       3.587   3.820  19.717  0.00  0.00    +0.000 A 
ATOM     11  C   UNL     1       2.473   4.271  20.417  0.00  0.00    +0.000 A 
ATOM     12  C   UNL     1       1.992   5.569  20.234  0.00  0.00    +0.000 A 
ATOM     13  C   UNL     1       2.621   6.451  19.346  0.00  0.00    +0.000 A 
ATOM     14  C   UNL     1       3.740   5.983  18.638  0.00  0.00    +0.000 A 
ATOM     15  C   UNL     1       4.221   4.680  18.824  0.00  0.00    +0.000 A 
BRANCH  10  17
ATOM     16  C   UNL     1       3.745   1.573  19.004  0.00  0.00    +0.000 C 
ATOM     17  O   UNL     1       3.976   2.544  20.015  0.00  0.00    +0.000 OA
ENDBRANCH  10  17
ENDBRANCH   1  13
BRANCH   6  18
ATOM     18  S   UNL     1      -0.706  10.020  22.886  0.00  0.00    +0.000 S 
ATOM     19  O   UNL     1       0.320   9.763  24.050  0.00  0.00    +0.000 OA
BRANCH  18  20
ATOM     20  C   UNL     1      -0.935  11.806  22.611  0.00  0.00    +0.000 C 
BRANCH  20  21
ATOM     21  C   UNL     1      -2.375  12.254  22.782  0.00  0.00    +0.000 A 
ATOM     22  N   UNL     1      -2.829  12.327  24.058  0.00  0.00    +0.000 NA
ATOM     23  C   UNL     1      -4.127  12.620  24.251  0.00  0.00    +0.000 A 
ATOM     24  C   UNL     1      -5.043  12.886  23.241  0.00  0.00    +0.000 A 
ATOM     25  C   UNL     1      -6.450  13.191  23.646  0.00  0.00    +0.000 C 
ATOM     26  C   UNL     1      -4.552  12.877  21.927  0.00  0.00    +0.000 A 
ATOM     27  C   UNL     1      -3.186  12.592  21.686  0.00  0.00    +0.000 A 
ATOM     28  C   UNL     1      -2.607  12.634  20.296  0.00  0.00    +0.000 C 
BRANCH  26  29
ATOM     29  O   UNL     1      -5.281  13.230  20.820  0.00  0.00    +0.000 OA
ATOM     30  C   UNL     1      -6.091  12.235  20.209  0.00  0.00    +0.000 C 
ENDBRANCH  26  29
ENDBRANCH  20  21
ENDBRANCH  18  20
ENDBRANCH   6  18
TORSDOF 6
ENDMDL
MODEL 3
REMARK VINA RESULT:      -7.5      2.024      2.589
REMARK  Name = 
REMARK  10 active torsions:
REMARK  status: ('A' for Active; 'I' for Inactive)
REMARK    1  A    between atoms: C_1  and  O_2
REMARK    2  A    between atoms: O_2  and  C_3
REMARK    3  A    between atoms: C_6  and  C_7
REMARK    4  A    between atoms: C_12  and  S_13
REMARK    5  A    between atoms: S_13  and  C_15
REMARK    6  A    between atoms: C_15  and  C_16
REMARK    7  A    between atoms: C_19  and  C_20
REMARK    8  A    between atoms: C_21  and  O_22
REMARK    9  A    between atoms: O_22  and  C_23
REMARK   10  A    between atoms: C_24  and  C_25
REMARK                            x       y       z     vdW  Elec       q    Type
REMARK                         _______ _______ _______ _____ _____    ______ ____
ROOT
ATOM      1  C   UNL     1       4.113   4.376  18.849  0.00  0.00    +0.000 A 
ATOM      2  S   UNL     1       3.942   2.780  19.557  0.00  0.00    +0.000 S 
ATOM      3  C   UNL     1       2.764   3.283  20.732  0.00  0.00    +0.000 A 
ATOM      4  C   UNL     1       2.561   4.594  20.538  0.00  0.00    +0.000 A 
ATOM      5  N   UNL     1       1.750   5.480  21.172  0.00  0.00    +0.000 N 
ATOM      6  C   UNL     1       1.999   6.644  20.410  0.00  0.00    +0.000 A 
ATOM      7  N   UNL     1       2.923   6.511  19.427  0.00  0.00    +0.000 NA
ATOM      8  C   UNL     1       3.259   5.194  19.525  0.00  0.00    +0.000 A 
ATOM      9  H   UNL     1       1.122   5.348  21.952  0.00  0.00    +0.000 HD
ENDROOT
BRANCH   1  13
ATOM     10  C   UNL     1       6.799   5.171  15.596  0.00  0.00    +0.000 A 
ATOM     11  C   UNL     1       7.002   5.737  16.850  0.00  0.00    +0.000 A 
ATOM     12  C   UNL     1       6.122   5.477  17.902  0.00  0.00    +0.000 A 
ATOM     13  C   UNL     1       5.011   4.643  17.722  0.00  0.00    +0.000 A 
ATOM     14  C   UNL     1       4.819   4.070  16.454  0.00  0.00    +0.000 A 
ATOM     15  C   UNL     1       5.704   4.334  15.399  0.00  0.00    +0.000 A 
BRANCH  10  17
ATOM     16  C   UNL     1       7.493   5.011  13.343  0.00  0.00    +0.000 C 
ATOM     17  O   UNL     1       7.711   5.536  14.646  0.00  0.00    +0.000 OA
ENDBRANCH  10  17
ENDBRANCH   1  13
BRANCH   6  18
ATOM     18  S   UNL     1       1.107   8.118  20.726  0.00  0.00    +0.000 S 
ATOM     19  O   UNL     1       1.779   8.765  21.992  0.00  0.00    +0.000 OA
BRANCH  18  20
ATOM     20  C   UNL     1       1.515   9.066  19.225  0.00  0.00    +0.000 C 
BRANCH  20  21
ATOM     21  C   UNL     1       0.840  10.424  19.178  0.00  0.00    +0.000 A 
ATOM     22  N   UNL     1       1.461  11.422  19.854  0.00  0.00    +0.000 NA
ATOM     23  C   UNL     1       0.845  12.616  19.925  0.00  0.00    +0.000 A 
ATOM     24  C   UNL     1      -0.373  12.921  19.331  0.00  0.00    +0.000 A 
ATOM     25  C   UNL     1      -0.907  14.305  19.520  0.00  0.00    +0.000 C 
ATOM     26  C   UNL     1      -0.978  11.905  18.576  0.00  0.00    +0.000 A 
ATOM     27  C   UNL     1      -0.349  10.642  18.462  0.00  0.00    +0.000 A 
ATOM     28  C   UNL     1      -0.934   9.545  17.609  0.00  0.00    +0.000 C 
BRANCH  26  29
ATOM     29  O   UNL     1      -2.117  12.063  17.826  0.00  0.00    +0.000 OA
ATOM     30  C   UNL     1      -3.364  11.770  18.440  0.00  0.00    +0.000 C 
ENDBRANCH  26  29
ENDBRANCH  20  21
ENDBRANCH  18  20
ENDBRANCH   6  18
TORSDOF 6
ENDMDL
MODEL 4
REMARK VINA RESULT:      -7.5      3.161      4.367
REMARK  Name = 
REMARK  10 active torsions:
REMARK  status: ('A' for Active; 'I' for Inactive)
REMARK    1  A    between atoms: C_1  and  O_2
REMARK    2  A    between atoms: O_2  and  C_3
REMARK    3  A    between atoms: C_6  and  C_7
REMARK    4  A    between atoms: C_12  and  S_13
REMARK    5  A    between atoms: S_13  and  C_15
REMARK    6  A    between atoms: C_15  and  C_16
REMARK    7  A    between atoms: C_19  and  C_20
REMARK    8  A    between atoms: C_21  and  O_22
REMARK    9  A    between atoms: O_22  and  C_23
REMARK   10  A    between atoms: C_24  and  C_25
REMARK                            x       y       z     vdW  Elec       q    Type
REMARK                         _______ _______ _______ _____ _____    ______ ____
ROOT
ATOM      1  C   UNL     1       1.955   7.865  19.064  0.00  0.00    +0.000 A 
ATOM      2  S   UNL     1       2.429   8.889  17.720  0.00  0.00    +0.000 S 
ATOM      3  C   UNL     1       1.623  10.299  18.340  0.00  0.00    +0.000 A 
ATOM      4  C   UNL     1       1.053   9.939  19.499  0.00  0.00    +0.000 A 
ATOM      5  N   UNL     1       0.307  10.644  20.390  0.00  0.00    +0.000 N 
ATOM      6  C   UNL     1       0.107   9.662  21.387  0.00  0.00    +0.000 A 
ATOM      7  N   UNL     1       0.629   8.441  21.117  0.00  0.00    +0.000 NA
ATOM      8  C   UNL     1       1.233   8.647  19.912  0.00  0.00    +0.000 A 
ATOM      9  H   UNL     1       0.001  11.606  20.368  0.00  0.00    +0.000 HD
ENDROOT
BRANCH   1  13
ATOM     10  C   UNL     1       3.078   3.734  19.390  0.00  0.00    +0.000 A 
ATOM     11  C   UNL     1       2.508   4.410  20.463  0.00  0.00    +0.000 A 
ATOM     12  C   UNL     1       2.148   5.754  20.351  0.00  0.00    +0.000 A 
ATOM     13  C   UNL     1       2.357   6.458  19.157  0.00  0.00    +0.000 A 
ATOM     14  C   UNL     1       2.926   5.764  18.077  0.00  0.00    +0.000 A 
ATOM     15  C   UNL     1       3.287   4.414  18.193  0.00  0.00    +0.000 A 
BRANCH  10  17
ATOM     16  C   UNL     1       3.522   1.588  18.508  0.00  0.00    +0.000 C 
ATOM     17  O   UNL     1       3.417   2.435  19.644  0.00  0.00    +0.000 OA
ENDBRANCH  10  17
ENDBRANCH   1  13
BRANCH   6  18
ATOM     18  S   UNL     1      -0.726  10.067  22.874  0.00  0.00    +0.000 S 
ATOM     19  O   UNL     1       0.300   9.784  24.033  0.00  0.00    +0.000 OA
BRANCH  18  20
ATOM     20  C   UNL     1      -0.951  11.858  22.637  0.00  0.00    +0.000 C 
BRANCH  20  21
ATOM     21  C   UNL     1      -2.260  12.207  21.955  0.00  0.00    +0.000 A 
ATOM     22  N   UNL     1      -2.242  12.218  20.598  0.00  0.00    +0.000 NA
ATOM     23  C   UNL     1      -3.352  12.621  19.955  0.00  0.00    +0.000 A 
ATOM     24  C   UNL     1      -4.536  13.004  20.572  0.00  0.00    +0.000 A 
ATOM     25  C   UNL     1      -5.669  13.426  19.691  0.00  0.00    +0.000 C 
ATOM     26  C   UNL     1      -4.572  12.925  21.972  0.00  0.00    +0.000 A 
ATOM     27  C   UNL     1      -3.430  12.485  22.682  0.00  0.00    +0.000 A 
ATOM     28  C   UNL     1      -3.448  12.327  24.181  0.00  0.00    +0.000 C 
BRANCH  26  29
ATOM     29  O   UNL     1      -5.689  13.148  22.737  0.00  0.00    +0.000 OA
ATOM     30  C   UNL     1      -6.003  14.490  23.084  0.00  0.00    +0.000 C 
ENDBRANCH  26  29
ENDBRANCH  20  21
ENDBRANCH  18  20
ENDBRANCH   6  18
TORSDOF 6
ENDMDL
MODEL 5
REMARK VINA RESULT:      -7.5      3.186      4.287
REMARK  Name = 
REMARK  10 active torsions:
REMARK  status: ('A' for Active; 'I' for Inactive)
REMARK    1  A    between atoms: C_1  and  O_2
REMARK    2  A    between atoms: O_2  and  C_3
REMARK    3  A    between atoms: C_6  and  C_7
REMARK    4  A    between atoms: C_12  and  S_13
REMARK    5  A    between atoms: S_13  and  C_15
REMARK    6  A    between atoms: C_15  and  C_16
REMARK    7  A    between atoms: C_19  and  C_20
REMARK    8  A    between atoms: C_21  and  O_22
REMARK    9  A    between atoms: O_22  and  C_23
REMARK   10  A    between atoms: C_24  and  C_25
REMARK                            x       y       z     vdW  Elec       q    Type
REMARK                         _______ _______ _______ _____ _____    ______ ____
ROOT
ATOM      1  C   UNL     1       2.017   7.589  19.150  0.00  0.00    +0.000 A 
ATOM      2  S   UNL     1       2.506   8.538  17.757  0.00  0.00    +0.000 S 
ATOM      3  C   UNL     1       1.708   9.984  18.297  0.00  0.00    +0.000 A 
ATOM      4  C   UNL     1       1.129   9.691  19.470  0.00  0.00    +0.000 A 
ATOM      5  N   UNL     1       0.385  10.447  20.319  0.00  0.00    +0.000 N 
ATOM      6  C   UNL     1       0.171   9.521  21.365  0.00  0.00    +0.000 A 
ATOM      7  N   UNL     1       0.685   8.284  21.163  0.00  0.00    +0.000 NA
ATOM      8  C   UNL     1       1.297   8.421  19.952  0.00  0.00    +0.000 A 
ATOM      9  H   UNL     1       0.087  11.409  20.245  0.00  0.00    +0.000 HD
ENDROOT
BRANCH   1  13
ATOM     10  C   UNL     1       3.212   3.490  19.596  0.00  0.00    +0.000 A 
ATOM     11  C   UNL     1       3.449   4.183  18.413  0.00  0.00    +0.000 A 
ATOM     12  C   UNL     1       3.055   5.515  18.275  0.00  0.00    +0.000 A 
ATOM     13  C   UNL     1       2.407   6.186  19.320  0.00  0.00    +0.000 A 
ATOM     14  C   UNL     1       2.178   5.480  20.512  0.00  0.00    +0.000 A 
ATOM     15  C   UNL     1       2.575   4.142  20.648  0.00  0.00    +0.000 A 
BRANCH  10  17
ATOM     16  C   UNL     1       3.589   1.535  18.323  0.00  0.00    +0.000 C 
ATOM     17  O   UNL     1       3.614   2.183  19.587  0.00  0.00    +0.000 OA
ENDBRANCH  10  17
ENDBRANCH   1  13
BRANCH   6  18
ATOM     18  S   UNL     1      -0.665  10.010  22.824  0.00  0.00    +0.000 S 
ATOM     19  O   UNL     1       0.353   9.782  24.002  0.00  0.00    +0.000 OA
BRANCH  18  20
ATOM     20  C   UNL     1      -0.875  11.788  22.491  0.00  0.00    +0.000 C 
BRANCH  20  21
ATOM     21  C   UNL     1      -2.305  12.262  22.673  0.00  0.00    +0.000 A 
ATOM     22  N   UNL     1      -2.761  12.309  23.950  0.00  0.00    +0.000 NA
ATOM     23  C   UNL     1      -4.052  12.624  24.149  0.00  0.00    +0.000 A 
ATOM     24  C   UNL     1      -4.960  12.937  23.145  0.00  0.00    +0.000 A 
ATOM     25  C   UNL     1      -6.361  13.261  23.556  0.00  0.00    +0.000 C 
ATOM     26  C   UNL     1      -4.467  12.955  21.831  0.00  0.00    +0.000 A 
ATOM     27  C   UNL     1      -3.107  12.648  21.585  0.00  0.00    +0.000 A 
ATOM     28  C   UNL     1      -2.523  12.717  20.198  0.00  0.00    +0.000 C 
BRANCH  26  29
ATOM     29  O   UNL     1      -5.186  13.356  20.734  0.00  0.00    +0.000 OA
ATOM     30  C   UNL     1      -5.400  14.748  20.549  0.00  0.00    +0.000 C 
ENDBRANCH  26  29
ENDBRANCH  20  21
ENDBRANCH  18  20
ENDBRANCH   6  18
TORSDOF 6
ENDMDL
MODEL 6
REMARK VINA RESULT:      -7.4      3.349      9.798
REMARK  Name = 
REMARK  10 active torsions:
REMARK  status: ('A' for Active; 'I' for Inactive)
REMARK    1  A    between atoms: C_1  and  O_2
REMARK    2  A    between atoms: O_2  and  C_3
REMARK    3  A    between atoms: C_6  and  C_7
REMARK    4  A    between atoms: C_12  and  S_13
REMARK    5  A    between atoms: S_13  and  C_15
REMARK    6  A    between atoms: C_15  and  C_16
REMARK    7  A    between atoms: C_19  and  C_20
REMARK    8  A    between atoms: C_21  and  O_22
REMARK    9  A    between atoms: O_22  and  C_23
REMARK   10  A    between atoms: C_24  and  C_25
REMARK                            x       y       z     vdW  Elec       q    Type
REMARK                         _______ _______ _______ _____ _____    ______ ____
ROOT
ATOM      1  C   UNL     1       1.522   8.827  19.610  0.00  0.00    +0.000 A 
ATOM      2  S   UNL     1       1.984   9.656  18.134  0.00  0.00    +0.000 S 
ATOM      3  C   UNL     1       2.745   8.259  17.433  0.00  0.00    +0.000 A 
ATOM      4  C   UNL     1       2.616   7.263  18.321  0.00  0.00    +0.000 A 
ATOM      5  N   UNL     1       3.026   5.968  18.283  0.00  0.00    +0.000 N 
ATOM      6  C   UNL     1       2.498   5.498  19.508  0.00  0.00    +0.000 A 
ATOM      7  N   UNL     1       1.868   6.428  20.266  0.00  0.00    +0.000 NA
ATOM      8  C   UNL     1       1.951   7.541  19.484  0.00  0.00    +0.000 A 
ATOM      9  H   UNL     1       3.538   5.466  17.573  0.00  0.00    +0.000 HD
ENDROOT
BRANCH   1  13
ATOM     10  C   UNL     1      -0.670  10.829  22.712  0.00  0.00    +0.000 A 
ATOM     11  C   UNL     1      -0.324  11.488  21.536  0.00  0.00    +0.000 A 
ATOM     12  C   UNL     1       0.391  10.831  20.534  0.00  0.00    +0.000 A 
ATOM     13  C   UNL     1       0.784   9.495  20.687  0.00  0.00    +0.000 A 
ATOM     14  C   UNL     1       0.424   8.837  21.874  0.00  0.00    +0.000 A 
ATOM     15  C   UNL     1      -0.294   9.499  22.880  0.00  0.00    +0.000 A 
BRANCH  10  17
ATOM     16  C   UNL     1      -2.626  12.045  23.236  0.00  0.00    +0.000 C 
ATOM     17  O   UNL     1      -1.336  11.596  23.626  0.00  0.00    +0.000 OA
ENDBRANCH  10  17
ENDBRANCH   1  13
BRANCH   6  18
ATOM     18  S   UNL     1       2.636   3.807  19.941  0.00  0.00    +0.000 S 
ATOM     19  O   UNL     1       1.912   3.008  18.796  0.00  0.00    +0.000 OA
BRANCH  18  20
ATOM     20  C   UNL     1       4.441   3.595  19.832  0.00  0.00    +0.000 C 
BRANCH  20  21
ATOM     21  C   UNL     1       5.002   3.966  18.471  0.00  0.00    +0.000 A 
ATOM     22  N   UNL     1       4.355   3.445  17.398  0.00  0.00    +0.000 NA
ATOM     23  C   UNL     1       4.878   3.663  16.178  0.00  0.00    +0.000 A 
ATOM     24  C   UNL     1       6.021   4.411  15.923  0.00  0.00    +0.000 A 
ATOM     25  C   UNL     1       6.456   4.544  14.498  0.00  0.00    +0.000 C 
ATOM     26  C   UNL     1       6.646   5.004  17.030  0.00  0.00    +0.000 A 
ATOM     27  C   UNL     1       6.113   4.813  18.327  0.00  0.00    +0.000 A 
ATOM     28  C   UNL     1       6.718   5.484  19.533  0.00  0.00    +0.000 C 
BRANCH  26  29
ATOM     29  O   UNL     1       7.710   5.868  16.954  0.00  0.00    +0.000 OA
ATOM     30  C   UNL     1       7.444   7.262  17.034  0.00  0.00    +0.000 C 
ENDBRANCH  26  29
ENDBRANCH  20  21
ENDBRANCH  18  20
ENDBRANCH   6  18
TORSDOF 6
ENDMDL
MODEL 7
REMARK VINA RESULT:      -7.3      2.578      3.114
REMARK  Name = 
REMARK  10 active torsions:
REMARK  status: ('A' for Active; 'I' for Inactive)
REMARK    1  A    between atoms: C_1  and  O_2
REMARK    2  A    between atoms: O_2  and  C_3
REMARK    3  A    between atoms: C_6  and  C_7
REMARK    4  A    between atoms: C_12  and  S_13
REMARK    5  A    between atoms: S_13  and  C_15
REMARK    6  A    between atoms: C_15  and  C_16
REMARK    7  A    between atoms: C_19  and  C_20
REMARK    8  A    between atoms: C_21  and  O_22
REMARK    9  A    between atoms: O_22  and  C_23
REMARK   10  A    between atoms: C_24  and  C_25
REMARK                            x       y       z     vdW  Elec       q    Type
REMARK                         _______ _______ _______ _____ _____    ______ ____
ROOT
ATOM      1  C   UNL     1       2.951   6.333  18.862  0.00  0.00    +0.000 A 
ATOM      2  S   UNL     1       2.536   5.248  20.177  0.00  0.00    +0.000 S 
ATOM      3  C   UNL     1       1.547   6.415  21.002  0.00  0.00    +0.000 A 
ATOM      4  C   UNL     1       1.576   7.534  20.266  0.00  0.00    +0.000 A 
ATOM      5  N   UNL     1       0.982   8.744  20.446  0.00  0.00    +0.000 N 
ATOM      6  C   UNL     1       1.391   9.407  19.267  0.00  0.00    +0.000 A 
ATOM      7  N   UNL     1       2.211   8.698  18.454  0.00  0.00    +0.000 NA
ATOM      8  C   UNL     1       2.306   7.506  19.109  0.00  0.00    +0.000 A 
ATOM      9  H   UNL     1       0.390   9.075  21.195  0.00  0.00    +0.000 HD
ENDROOT
BRANCH   1  13
ATOM     10  C   UNL     1       5.509   5.192  15.608  0.00  0.00    +0.000 A 
ATOM     11  C   UNL     1       5.357   6.527  15.968  0.00  0.00    +0.000 A 
ATOM     12  C   UNL     1       4.521   6.890  17.026  0.00  0.00    +0.000 A 
ATOM     13  C   UNL     1       3.811   5.922  17.747  0.00  0.00    +0.000 A 
ATOM     14  C   UNL     1       3.977   4.577  17.380  0.00  0.00    +0.000 A 
ATOM     15  C   UNL     1       4.817   4.215  16.318  0.00  0.00    +0.000 A 
BRANCH  10  17
ATOM     16  C   UNL     1       5.980   3.876  13.703  0.00  0.00    +0.000 C 
ATOM     17  O   UNL     1       6.326   4.976  14.534  0.00  0.00    +0.000 OA
ENDBRANCH  10  17
ENDBRANCH   1  13
BRANCH   6  18
ATOM     18  S   UNL     1       0.806  11.018  18.908  0.00  0.00    +0.000 S 
ATOM     19  O   UNL     1      -0.755  10.887  18.760  0.00  0.00    +0.000 OA
BRANCH  18  20
ATOM     20  C   UNL     1       1.237  11.867  20.461  0.00  0.00    +0.000 C 
BRANCH  20  21
ATOM     21  C   UNL     1       0.039  12.098  21.363  0.00  0.00    +0.000 A 
ATOM     22  N   UNL     1      -0.225  11.121  22.266  0.00  0.00    +0.000 NA
ATOM     23  C   UNL     1      -1.335  11.236  23.016  0.00  0.00    +0.000 A 
ATOM     24  C   UNL     1      -2.227  12.300  22.961  0.00  0.00    +0.000 A 
ATOM     25  C   UNL     1      -3.413  12.256  23.871  0.00  0.00    +0.000 C 
ATOM     26  C   UNL     1      -1.913  13.341  22.075  0.00  0.00    +0.000 A 
ATOM     27  C   UNL     1      -0.741  13.264  21.284  0.00  0.00    +0.000 A 
ATOM     28  C   UNL     1      -0.335  14.389  20.367  0.00  0.00    +0.000 C 
BRANCH  26  29
ATOM     29  O   UNL     1      -2.611  14.518  21.975  0.00  0.00    +0.000 OA
ATOM     30  C   UNL     1      -2.421  15.495  22.989  0.00  0.00    +0.000 C 
ENDBRANCH  26  29
ENDBRANCH  20  21
ENDBRANCH  18  20
ENDBRANCH   6  18
TORSDOF 6
ENDMDL
MODEL 8
REMARK VINA RESULT:      -7.3      2.246      2.925
REMARK  Name = 
REMARK  10 active torsions:
REMARK  status: ('A' for Active; 'I' for Inactive)
REMARK    1  A    between atoms: C_1  and  O_2
REMARK    2  A    between atoms: O_2  and  C_3
REMARK    3  A    between atoms: C_6  and  C_7
REMARK    4  A    between atoms: C_12  and  S_13
REMARK    5  A    between atoms: S_13  and  C_15
REMARK    6  A    between atoms: C_15  and  C_16
REMARK    7  A    between atoms: C_19  and  C_20
REMARK    8  A    between atoms: C_21  and  O_22
REMARK    9  A    between atoms: O_22  and  C_23
REMARK   10  A    between atoms: C_24  and  C_25
REMARK                            x       y       z     vdW  Elec       q    Type
REMARK                         _______ _______ _______ _____ _____    ______ ____
ROOT
ATOM      1  C   UNL     1       4.196   4.621  18.747  0.00  0.00    +0.000 A 
ATOM      2  S   UNL     1       4.038   3.078  19.568  0.00  0.00    +0.000 S 
ATOM      3  C   UNL     1       2.834   3.648  20.685  0.00  0.00    +0.000 A 
ATOM      4  C   UNL     1       2.615   4.938  20.392  0.00  0.00    +0.000 A 
ATOM      5  N   UNL     1       1.781   5.856  20.947  0.00  0.00    +0.000 N 
ATOM      6  C   UNL     1       2.025   6.964  20.105  0.00  0.00    +0.000 A 
ATOM      7  N   UNL     1       2.967   6.774  19.149  0.00  0.00    +0.000 NA
ATOM      8  C   UNL     1       3.321   5.473  19.349  0.00  0.00    +0.000 A 
ATOM      9  H   UNL     1       1.142   5.771  21.725  0.00  0.00    +0.000 HD
ENDROOT
BRANCH   1  13
ATOM     10  C   UNL     1       6.915   5.148  15.466  0.00  0.00    +0.000 A 
ATOM     11  C   UNL     1       7.365   4.718  16.711  0.00  0.00    +0.000 A 
ATOM     12  C   UNL     1       6.476   4.552  17.773  0.00  0.00    +0.000 A 
ATOM     13  C   UNL     1       5.109   4.818  17.617  0.00  0.00    +0.000 A 
ATOM     14  C   UNL     1       4.664   5.244  16.355  0.00  0.00    +0.000 A 
ATOM     15  C   UNL     1       5.559   5.410  15.289  0.00  0.00    +0.000 A 
BRANCH  10  17
ATOM     16  C   UNL     1       7.540   4.937  13.197  0.00  0.00    +0.000 C 
ATOM     17  O   UNL     1       7.893   5.304  14.524  0.00  0.00    +0.000 OA
ENDBRANCH  10  17
ENDBRANCH   1  13
BRANCH   6  18
ATOM     18  S   UNL     1       1.108   8.443  20.298  0.00  0.00    +0.000 S 
ATOM     19  O   UNL     1       1.819   9.244  21.451  0.00  0.00    +0.000 OA
BRANCH  18  20
ATOM     20  C   UNL     1       1.419   9.226  18.684  0.00  0.00    +0.000 C 
BRANCH  20  21
ATOM     21  C   UNL     1       1.148  10.718  18.684  0.00  0.00    +0.000 A 
ATOM     22  N   UNL     1       2.225  11.521  18.499  0.00  0.00    +0.000 NA
ATOM     23  C   UNL     1       2.047  12.850  18.595  0.00  0.00    +0.000 A 
ATOM     24  C   UNL     1       0.831  13.476  18.841  0.00  0.00    +0.000 A 
ATOM     25  C   UNL     1       0.825  14.970  18.916  0.00  0.00    +0.000 C 
ATOM     26  C   UNL     1      -0.292  12.645  18.963  0.00  0.00    +0.000 A 
ATOM     27  C   UNL     1      -0.146  11.241  18.848  0.00  0.00    +0.000 A 
ATOM     28  C   UNL     1      -1.336  10.318  18.911  0.00  0.00    +0.000 C 
BRANCH  26  29
ATOM     29  O   UNL     1      -1.583  13.092  19.089  0.00  0.00    +0.000 OA
ATOM     30  C   UNL     1      -2.024  13.503  20.376  0.00  0.00    +0.000 C 
ENDBRANCH  26  29
ENDBRANCH  20  21
ENDBRANCH  18  20
ENDBRANCH   6  18
TORSDOF 6
ENDMDL
MODEL 9
REMARK VINA RESULT:      -7.3      2.545      2.876
REMARK  Name = 
REMARK  10 active torsions:
REMARK  status: ('A' for Active; 'I' for Inactive)
REMARK    1  A    between atoms: C_1  and  O_2
REMARK    2  A    between atoms: O_2  and  C_3
REMARK    3  A    between atoms: C_6  and  C_7
REMARK    4  A    between atoms: C_12  and  S_13
REMARK    5  A    between atoms: S_13  and  C_15
REMARK    6  A    between atoms: C_15  and  C_16
REMARK    7  A    between atoms: C_19  and  C_20
REMARK    8  A    between atoms: C_21  and  O_22
REMARK    9  A    between atoms: O_22  and  C_23
REMARK   10  A    between atoms: C_24  and  C_25
REMARK                            x       y       z     vdW  Elec       q    Type
REMARK                         _______ _______ _______ _____ _____    ______ ____
ROOT
ATOM      1  C   UNL     1       3.299   5.949  18.618  0.00  0.00    +0.000 A 
ATOM      2  S   UNL     1       3.008   4.758  19.874  0.00  0.00    +0.000 S 
ATOM      3  C   UNL     1       1.953   5.791  20.792  0.00  0.00    +0.000 A 
ATOM      4  C   UNL     1       1.872   6.951  20.124  0.00  0.00    +0.000 A 
ATOM      5  N   UNL     1       1.190   8.095  20.392  0.00  0.00    +0.000 N 
ATOM      6  C   UNL     1       1.512   8.857  19.246  0.00  0.00    +0.000 A 
ATOM      7  N   UNL     1       2.362   8.266  18.372  0.00  0.00    +0.000 NA
ATOM      8  C   UNL     1       2.570   7.050  18.951  0.00  0.00    +0.000 A 
ATOM      9  H   UNL     1       0.595   8.333  21.173  0.00  0.00    +0.000 HD
ENDROOT
BRANCH   1  13
ATOM     10  C   UNL     1       5.769   5.085  15.215  0.00  0.00    +0.000 A 
ATOM     11  C   UNL     1       5.112   4.069  15.902  0.00  0.00    +0.000 A 
ATOM     12  C   UNL     1       4.313   4.358  17.010  0.00  0.00    +0.000 A 
ATOM     13  C   UNL     1       4.156   5.675  17.461  0.00  0.00    +0.000 A 
ATOM     14  C   UNL     1       4.817   6.694  16.756  0.00  0.00    +0.000 A 
ATOM     15  C   UNL     1       5.620   6.401  15.644  0.00  0.00    +0.000 A 
BRANCH  10  17
ATOM     16  C   UNL     1       5.957   3.709  13.304  0.00  0.00    +0.000 C 
ATOM     17  O   UNL     1       6.548   4.664  14.174  0.00  0.00    +0.000 OA
ENDBRANCH  10  17
ENDBRANCH   1  13
BRANCH   6  18
ATOM     18  S   UNL     1       0.791  10.434  18.999  0.00  0.00    +0.000 S 
ATOM     19  O   UNL     1      -0.764  10.196  18.959  0.00  0.00    +0.000 OA
BRANCH  18  20
ATOM     20  C   UNL     1       1.276  11.253  20.551  0.00  0.00    +0.000 C 
BRANCH  20  21
ATOM     21  C   UNL     1       0.089  11.663  21.404  0.00  0.00    +0.000 A 
ATOM     22  N   UNL     1      -0.253  10.808  22.400  0.00  0.00    +0.000 NA
ATOM     23  C   UNL     1      -1.360  11.080  23.113  0.00  0.00    +0.000 A 
ATOM     24  C   UNL     1      -2.172  12.192  22.931  0.00  0.00    +0.000 A 
ATOM     25  C   UNL     1      -3.367  12.328  23.820  0.00  0.00    +0.000 C 
ATOM     26  C   UNL     1      -1.775  13.109  21.946  0.00  0.00    +0.000 A 
ATOM     27  C   UNL     1      -0.604  12.866  21.188  0.00  0.00    +0.000 A 
ATOM     28  C   UNL     1      -0.109  13.855  20.165  0.00  0.00    +0.000 C 
BRANCH  26  29
ATOM     29  O   UNL     1      -2.387  14.314  21.710  0.00  0.00    +0.000 OA
ATOM     30  C   UNL     1      -2.136  15.378  22.619  0.00  0.00    +0.000 C 
ENDBRANCH  26  29
ENDBRANCH  20  21
ENDBRANCH  18  20
ENDBRANCH   6  18
TORSDOF 6
ENDMDL
