MODEL 1
REMARK VINA RESULT:      -7.7      0.000      0.000
REMARK  Name = 
REMARK  9 active torsions:
REMARK  status: ('A' for Active; 'I' for Inactive)
REMARK    1  A    between atoms: C_1  and  C_2
REMARK    2  A    between atoms: C_2  and  C_3
REMARK    3  A    between atoms: C_3  and  C_4
REMARK    4  A    between atoms: C_4  and  N_5
REMARK    5  A    between atoms: C_6  and  S_7
REMARK    6  A    between atoms: S_7  and  C_8
REMARK    7  A    between atoms: C_8  and  C_9
REMARK    8  A    between atoms: C_16  and  C_17
REMARK    9  A    between atoms: C_21  and  C_22
REMARK                            x       y       z     vdW  Elec       q    Type
REMARK                         _______ _______ _______ _____ _____    ______ ____
ROOT
ATOM      1  N   UNL     1       2.576   6.341  19.616  0.00  0.00    +0.000 N 
ATOM      2  C   UNL     1       3.394   6.056  18.549  0.00  0.00    +0.000 A 
ATOM      3  N   UNL     1       3.453   7.096  17.749  0.00  0.00    +0.000 NA
ATOM      4  N   UNL     1       2.674   8.092  18.298  0.00  0.00    +0.000 NA
ATOM      5  C   UNL     1       2.154   7.643  19.425  0.00  0.00    +0.000 A 
ENDROOT
BRANCH   5   6
ATOM      6  C   UNL     1       1.298   8.414  20.285  0.00  0.00    +0.000 A 
ATOM      7  C   UNL     1       0.600   9.575  19.982  0.00  0.00    +0.000 A 
ATOM      8  C   UNL     1      -0.090   9.983  21.150  0.00  0.00    +0.000 A 
ATOM      9  C   UNL     1       0.216   9.050  22.110  0.00  0.00    +0.000 A 
ATOM     10  O   UNL     1       1.041   8.102  21.599  0.00  0.00    +0.000 OA
ENDBRANCH   5   6
BRANCH   1  11
ATOM     11  C   UNL     1       2.205   5.467  20.712  0.00  0.00    +0.000 C 
BRANCH  11  12
ATOM     12  C   UNL     1       0.950   4.655  20.393  0.00  0.00    +0.000 C 
BRANCH  12  14
ATOM     13  C   UNL     1       2.018   2.741  21.624  0.00  0.00    +0.000 C 
ATOM     14  C   UNL     1       1.229   3.153  20.391  0.00  0.00    +0.000 C 
ENDBRANCH  12  14
ENDBRANCH  11  12
ENDBRANCH   1  11
BRANCH   2  15
ATOM     15  S   UNL     1       4.222   4.546  18.331  0.00  0.00    +0.000 S 
BRANCH  15  16
ATOM     16  C   UNL     1       5.962   5.072  18.155  0.00  0.00    +0.000 C 
BRANCH  16  17
ATOM     17  C   UNL     1       6.314   5.404  16.699  0.00  0.00    +0.000 C 
ATOM     18  O   UNL     1       6.457   6.563  16.330  0.00  0.00    +0.000 OA
ATOM     19  N   UNL     1       6.498   4.293  15.895  0.00  0.00    +0.000 N 
ATOM     20  C   UNL     1       6.730   4.366  14.520  0.00  0.00    +0.000 A 
ATOM     21  C   UNL     1       7.700   5.189  13.960  0.00  0.00    +0.000 A 
ATOM     22  C   UNL     1       7.878   5.163  12.580  0.00  0.00    +0.000 A 
ATOM     23  C   UNL     1       7.046   4.365  11.798  0.00  0.00    +0.000 A 
ATOM     24  C   UNL     1       6.090   3.582  12.434  0.00  0.00    +0.000 A 
ATOM     25  C   UNL     1       5.083   2.804  11.646  0.00  0.00    +0.000 C 
ATOM     26  N   UNL     1       5.965   3.535  13.786  0.00  0.00    +0.000 NA
ATOM     27  H   UNL     1       5.947   3.479  16.147  0.00  0.00    +0.000 HD
ENDBRANCH  16  17
ENDBRANCH  15  16
ENDBRANCH   2  15
TORSDOF 7
ENDMDL
MODEL 2
REMARK VINA RESULT:      -7.6      2.397      4.327
REMARK  Name = 
REMARK  9 active torsions:
REMARK  status: ('A' for Active; 'I' for Inactive)
REMARK    1  A    between atoms: C_1  and  C_2
REMARK    2  A    between atoms: C_2  and  C_3
REMARK    3  A    between atoms: C_3  and  C_4
REMARK    4  A    between atoms: C_4  and  N_5
REMARK    5  A    between atoms: C_6  and  S_7
REMARK    6  A    between atoms: S_7  and  C_8
REMARK    7  A    between atoms: C_8  and  C_9
REMARK    8  A    between atoms: C_16  and  C_17
REMARK    9  A    between atoms: C_21  and  C_22
REMARK                            x       y       z     vdW  Elec       q    Type
REMARK                         _______ _______ _______ _____ _____    ______ ____
ROOT
ATOM      1  N   UNL     1       4.304   5.120  18.405  0.00  0.00    +0.000 N 
ATOM      2  C   UNL     1       5.649   5.315  18.197  0.00  0.00    +0.000 A 
ATOM      3  N   UNL     1       6.336   4.521  18.986  0.00  0.00    +0.000 NA
ATOM      4  N   UNL     1       5.435   3.778  19.719  0.00  0.00    +0.000 NA
ATOM      5  C   UNL     1       4.214   4.130  19.364  0.00  0.00    +0.000 A 
ENDROOT
BRANCH   5   6
ATOM      6  C   UNL     1       3.015   3.552  19.908  0.00  0.00    +0.000 A 
ATOM      7  C   UNL     1       2.377   3.866  21.099  0.00  0.00    +0.000 A 
ATOM      8  C   UNL     1       1.246   3.021  21.222  0.00  0.00    +0.000 A 
ATOM      9  C   UNL     1       1.245   2.234  20.096  0.00  0.00    +0.000 A 
ATOM     10  O   UNL     1       2.297   2.551  19.300  0.00  0.00    +0.000 OA
ENDBRANCH   5   6
BRANCH   1  11
ATOM     11  C   UNL     1       3.197   5.812  17.775  0.00  0.00    +0.000 C 
BRANCH  11  12
ATOM     12  C   UNL     1       2.716   6.998  18.610  0.00  0.00    +0.000 C 
BRANCH  12  14
ATOM     13  C   UNL     1       1.531   9.159  18.117  0.00  0.00    +0.000 C 
ATOM     14  C   UNL     1       2.754   8.304  17.820  0.00  0.00    +0.000 C 
ENDBRANCH  12  14
ENDBRANCH  11  12
ENDBRANCH   1  11
BRANCH   2  15
ATOM     15  S   UNL     1       6.305   6.436  17.046  0.00  0.00    +0.000 S 
BRANCH  15  16
ATOM     16  C   UNL     1       7.100   5.331  15.828  0.00  0.00    +0.000 C 
BRANCH  16  17
ATOM     17  C   UNL     1       6.078   4.718  14.862  0.00  0.00    +0.000 C 
ATOM     18  O   UNL     1       4.880   4.731  15.114  0.00  0.00    +0.000 OA
ATOM     19  N   UNL     1       6.632   4.216  13.697  0.00  0.00    +0.000 N 
ATOM     20  C   UNL     1       5.898   3.531  12.726  0.00  0.00    +0.000 A 
ATOM     21  C   UNL     1       4.708   4.016  12.197  0.00  0.00    +0.000 A 
ATOM     22  C   UNL     1       4.071   3.274  11.206  0.00  0.00    +0.000 A 
ATOM     23  C   UNL     1       4.606   2.049  10.819  0.00  0.00    +0.000 A 
ATOM     24  C   UNL     1       5.792   1.628  11.407  0.00  0.00    +0.000 A 
ATOM     25  C   UNL     1       6.349   0.266  11.131  0.00  0.00    +0.000 C 
ATOM     26  N   UNL     1       6.468   2.382  12.312  0.00  0.00    +0.000 NA
ATOM     27  H   UNL     1       7.577   3.859  13.785  0.00  0.00    +0.000 HD
ENDBRANCH  16  17
ENDBRANCH  15  16
ENDBRANCH   2  15
TORSDOF 7
ENDMDL
MODEL 3
REMARK VINA RESULT:      -7.5      2.178      7.255
REMARK  Name = 
REMARK  9 active torsions:
REMARK  status: ('A' for Active; 'I' for Inactive)
REMARK    1  A    between atoms: C_1  and  C_2
REMARK    2  A    between atoms: C_2  and  C_3
REMARK    3  A    between atoms: C_3  and  C_4
REMARK    4  A    between atoms: C_4  and  N_5
REMARK    5  A    between atoms: C_6  and  S_7
REMARK    6  A    between atoms: S_7  and  C_8
REMARK    7  A    between atoms: C_8  and  C_9
REMARK    8  A    between atoms: C_16  and  C_17
REMARK    9  A    between atoms: C_21  and  C_22
REMARK                            x       y       z     vdW  Elec       q    Type
REMARK                         _______ _______ _______ _____ _____    ______ ____
ROOT
ATOM      1  N   UNL     1       5.044   4.204  17.771  0.00  0.00    +0.000 N 
ATOM      2  C   UNL     1       4.479   3.210  18.533  0.00  0.00    +0.000 A 
ATOM      3  N   UNL     1       4.966   3.259  19.752  0.00  0.00    +0.000 NA
ATOM      4  N   UNL     1       5.858   4.309  19.805  0.00  0.00    +0.000 NA
ATOM      5  C   UNL     1       5.899   4.884  18.618  0.00  0.00    +0.000 A 
ENDROOT
BRANCH   5   6
ATOM      6  C   UNL     1       6.710   6.028  18.300  0.00  0.00    +0.000 A 
ATOM      7  C   UNL     1       7.910   6.414  18.879  0.00  0.00    +0.000 A 
ATOM      8  C   UNL     1       8.326   7.616  18.254  0.00  0.00    +0.000 A 
ATOM      9  C   UNL     1       7.360   7.905  17.320  0.00  0.00    +0.000 A 
ATOM     10  O   UNL     1       6.393   6.955  17.335  0.00  0.00    +0.000 OA
ENDBRANCH   5   6
BRANCH   1  11
ATOM     11  C   UNL     1       4.821   4.485  16.366  0.00  0.00    +0.000 C 
BRANCH  11  12
ATOM     12  C   UNL     1       5.887   3.842  15.480  0.00  0.00    +0.000 C 
BRANCH  12  14
ATOM     13  C   UNL     1       6.065   3.612  12.983  0.00  0.00    +0.000 C 
ATOM     14  C   UNL     1       6.047   4.583  14.154  0.00  0.00    +0.000 C 
ENDBRANCH  12  14
ENDBRANCH  11  12
ENDBRANCH   1  11
BRANCH   2  15
ATOM     15  S   UNL     1       3.291   2.088  17.947  0.00  0.00    +0.000 S 
BRANCH  15  16
ATOM     16  C   UNL     1       2.127   1.978  19.350  0.00  0.00    +0.000 C 
BRANCH  16  17
ATOM     17  C   UNL     1       1.562   3.353  19.732  0.00  0.00    +0.000 C 
ATOM     18  O   UNL     1       0.429   3.470  20.182  0.00  0.00    +0.000 OA
ATOM     19  N   UNL     1       2.456   4.396  19.569  0.00  0.00    +0.000 N 
ATOM     20  C   UNL     1       2.120   5.738  19.766  0.00  0.00    +0.000 A 
ATOM     21  C   UNL     1       1.475   6.194  20.909  0.00  0.00    +0.000 A 
ATOM     22  C   UNL     1       1.217   7.558  21.026  0.00  0.00    +0.000 A 
ATOM     23  C   UNL     1       1.555   8.410  19.978  0.00  0.00    +0.000 A 
ATOM     24  C   UNL     1       2.185   7.871  18.862  0.00  0.00    +0.000 A 
ATOM     25  C   UNL     1       2.456   8.708  17.651  0.00  0.00    +0.000 C 
ATOM     26  N   UNL     1       2.518   6.558  18.774  0.00  0.00    +0.000 NA
ATOM     27  H   UNL     1       3.130   4.277  18.821  0.00  0.00    +0.000 HD
ENDBRANCH  16  17
ENDBRANCH  15  16
ENDBRANCH   2  15
TORSDOF 7
ENDMDL
MODEL 4
REMARK VINA RESULT:      -7.5      2.492      8.064
REMARK  Name = 
REMARK  9 active torsions:
REMARK  status: ('A' for Active; 'I' for Inactive)
REMARK    1  A    between atoms: C_1  and  C_2
REMARK    2  A    between atoms: C_2  and  C_3
REMARK    3  A    between atoms: C_3  and  C_4
REMARK    4  A    between atoms: C_4  and  N_5
REMARK    5  A    between atoms: C_6  and  S_7
REMARK    6  A    between atoms: S_7  and  C_8
REMARK    7  A    between atoms: C_8  and  C_9
REMARK    8  A    between atoms: C_16  and  C_17
REMARK    9  A    between atoms: C_21  and  C_22
REMARK                            x       y       z     vdW  Elec       q    Type
REMARK                         _______ _______ _______ _____ _____    ______ ____
ROOT
ATOM      1  N   UNL     1       3.506   5.715  19.013  0.00  0.00    +0.000 N 
ATOM      2  C   UNL     1       2.606   6.709  19.317  0.00  0.00    +0.000 A 
ATOM      3  N   UNL     1       2.716   7.684  18.444  0.00  0.00    +0.000 NA
ATOM      4  N   UNL     1       3.693   7.327  17.539  0.00  0.00    +0.000 NA
ATOM      5  C   UNL     1       4.162   6.141  17.874  0.00  0.00    +0.000 A 
ENDROOT
BRANCH   5   6
ATOM      6  C   UNL     1       5.185   5.439  17.147  0.00  0.00    +0.000 A 
ATOM      7  C   UNL     1       5.102   4.875  15.882  0.00  0.00    +0.000 A 
ATOM      8  C   UNL     1       6.352   4.273  15.593  0.00  0.00    +0.000 A 
ATOM      9  C   UNL     1       7.140   4.502  16.694  0.00  0.00    +0.000 A 
ATOM     10  O   UNL     1       6.452   5.206  17.627  0.00  0.00    +0.000 OA
ENDBRANCH   5   6
BRANCH   1  11
ATOM     11  C   UNL     1       3.746   4.481  19.736  0.00  0.00    +0.000 C 
BRANCH  11  12
ATOM     12  C   UNL     1       2.942   3.317  19.160  0.00  0.00    +0.000 C 
BRANCH  12  14
ATOM     13  C   UNL     1       2.123   2.867  21.494  0.00  0.00    +0.000 C 
ATOM     14  C   UNL     1       1.732   2.976  20.028  0.00  0.00    +0.000 C 
ENDBRANCH  12  14
ENDBRANCH  11  12
ENDBRANCH   1  11
BRANCH   2  15
ATOM     15  S   UNL     1       1.495   6.645  20.649  0.00  0.00    +0.000 S 
BRANCH  15  16
ATOM     16  C   UNL     1       1.582   8.343  21.317  0.00  0.00    +0.000 C 
BRANCH  16  17
ATOM     17  C   UNL     1       0.338   9.164  20.953  0.00  0.00    +0.000 C 
ATOM     18  O   UNL     1      -0.545   9.374  21.774  0.00  0.00    +0.000 OA
ATOM     19  N   UNL     1       0.350   9.666  19.663  0.00  0.00    +0.000 N 
ATOM     20  C   UNL     1      -0.722  10.358  19.095  0.00  0.00    +0.000 A 
ATOM     21  C   UNL     1      -1.352  11.424  19.726  0.00  0.00    +0.000 A 
ATOM     22  C   UNL     1      -2.389  12.072  19.059  0.00  0.00    +0.000 A 
ATOM     23  C   UNL     1      -2.802  11.601  17.816  0.00  0.00    +0.000 A 
ATOM     24  C   UNL     1      -2.129  10.519  17.260  0.00  0.00    +0.000 A 
ATOM     25  C   UNL     1      -2.606   9.885  15.991  0.00  0.00    +0.000 C 
ATOM     26  N   UNL     1      -1.062   9.934  17.862  0.00  0.00    +0.000 NA
ATOM     27  H   UNL     1       0.843   9.099  18.982  0.00  0.00    +0.000 HD
ENDBRANCH  16  17
ENDBRANCH  15  16
ENDBRANCH   2  15
TORSDOF 7
ENDMDL
MODEL 5
REMARK VINA RESULT:      -7.4      0.827      1.022
REMARK  Name = 
REMARK  9 active torsions:
REMARK  status: ('A' for Active; 'I' for Inactive)
REMARK    1  A    between atoms: C_1  and  C_2
REMARK    2  A    between atoms: C_2  and  C_3
REMARK    3  A    between atoms: C_3  and  C_4
REMARK    4  A    between atoms: C_4  and  N_5
REMARK    5  A    between atoms: C_6  and  S_7
REMARK    6  A    between atoms: S_7  and  C_8
REMARK    7  A    between atoms: C_8  and  C_9
REMARK    8  A    between atoms: C_16  and  C_17
REMARK    9  A    between atoms: C_21  and  C_22
REMARK                            x       y       z     vdW  Elec       q    Type
REMARK                         _______ _______ _______ _____ _____    ______ ____
ROOT
ATOM      1  N   UNL     1       1.899   6.413  19.812  0.00  0.00    +0.000 N 
ATOM      2  C   UNL     1       2.638   6.352  18.654  0.00  0.00    +0.000 A 
ATOM      3  N   UNL     1       2.861   7.568  18.210  0.00  0.00    +0.000 NA
ATOM      4  N   UNL     1       2.273   8.450  19.092  0.00  0.00    +0.000 NA
ATOM      5  C   UNL     1       1.703   7.758  20.060  0.00  0.00    +0.000 A 
ENDROOT
BRANCH   5   6
ATOM      6  C   UNL     1       1.006   8.345  21.172  0.00  0.00    +0.000 A 
ATOM      7  C   UNL     1      -0.364   8.435  21.373  0.00  0.00    +0.000 A 
ATOM      8  C   UNL     1      -0.579   9.113  22.598  0.00  0.00    +0.000 A 
ATOM      9  C   UNL     1       0.671   9.401  23.090  0.00  0.00    +0.000 A 
ATOM     10  O   UNL     1       1.627   8.937  22.246  0.00  0.00    +0.000 OA
ENDBRANCH   5   6
BRANCH   1  11
ATOM     11  C   UNL     1       1.402   5.309  20.609  0.00  0.00    +0.000 C 
BRANCH  11  12
ATOM     12  C   UNL     1       2.530   4.577  21.336  0.00  0.00    +0.000 C 
BRANCH  12  14
ATOM     13  C   UNL     1       1.229   2.639  20.404  0.00  0.00    +0.000 C 
ATOM     14  C   UNL     1       2.271   3.075  21.423  0.00  0.00    +0.000 C 
ENDBRANCH  12  14
ENDBRANCH  11  12
ENDBRANCH   1  11
BRANCH   2  15
ATOM     15  S   UNL     1       3.191   4.877  17.926  0.00  0.00    +0.000 S 
BRANCH  15  16
ATOM     16  C   UNL     1       5.006   5.084  17.944  0.00  0.00    +0.000 C 
BRANCH  16  17
ATOM     17  C   UNL     1       5.560   5.383  16.545  0.00  0.00    +0.000 C 
ATOM     18  O   UNL     1       5.679   6.534  16.143  0.00  0.00    +0.000 OA
ATOM     19  N   UNL     1       5.944   4.257  15.837  0.00  0.00    +0.000 N 
ATOM     20  C   UNL     1       6.385   4.293  14.512  0.00  0.00    +0.000 A 
ATOM     21  C   UNL     1       7.373   5.164  14.068  0.00  0.00    +0.000 A 
ATOM     22  C   UNL     1       7.768   5.096  12.735  0.00  0.00    +0.000 A 
ATOM     23  C   UNL     1       7.128   4.206  11.877  0.00  0.00    +0.000 A 
ATOM     24  C   UNL     1       6.139   3.379  12.396  0.00  0.00    +0.000 A 
ATOM     25  C   UNL     1       5.325   2.496  11.503  0.00  0.00    +0.000 C 
ATOM     26  N   UNL     1       5.805   3.377  13.713  0.00  0.00    +0.000 NA
ATOM     27  H   UNL     1       5.418   3.416  16.043  0.00  0.00    +0.000 HD
ENDBRANCH  16  17
ENDBRANCH  15  16
ENDBRANCH   2  15
TORSDOF 7
ENDMDL
MODEL 6
REMARK VINA RESULT:      -7.4      1.861      8.402
REMARK  Name = 
REMARK  9 active torsions:
REMARK  status: ('A' for Active; 'I' for Inactive)
REMARK    1  A    between atoms: C_1  and  C_2
REMARK    2  A    between atoms: C_2  and  C_3
REMARK    3  A    between atoms: C_3  and  C_4
REMARK    4  A    between atoms: C_4  and  N_5
REMARK    5  A    between atoms: C_6  and  S_7
REMARK    6  A    between atoms: S_7  and  C_8
REMARK    7  A    between atoms: C_8  and  C_9
REMARK    8  A    between atoms: C_16  and  C_17
REMARK    9  A    between atoms: C_21  and  C_22
REMARK                            x       y       z     vdW  Elec       q    Type
REMARK                         _______ _______ _______ _____ _____    ______ ____
ROOT
ATOM      1  N   UNL     1       6.082   4.858  16.906  0.00  0.00    +0.000 N 
ATOM      2  C   UNL     1       5.061   4.442  17.727  0.00  0.00    +0.000 A 
ATOM      3  N   UNL     1       4.147   3.824  17.014  0.00  0.00    +0.000 NA
ATOM      4  N   UNL     1       4.574   3.816  15.703  0.00  0.00    +0.000 NA
ATOM      5  C   UNL     1       5.741   4.429  15.638  0.00  0.00    +0.000 A 
ENDROOT
BRANCH   5   6
ATOM      6  C   UNL     1       6.501   4.598  14.429  0.00  0.00    +0.000 A 
ATOM      7  C   UNL     1       6.352   3.928  13.223  0.00  0.00    +0.000 A 
ATOM      8  C   UNL     1       7.339   4.416  12.332  0.00  0.00    +0.000 A 
ATOM      9  C   UNL     1       8.041   5.364  13.035  0.00  0.00    +0.000 A 
ATOM     10  O   UNL     1       7.541   5.485  14.290  0.00  0.00    +0.000 OA
ENDBRANCH   5   6
BRANCH   1  11
ATOM     11  C   UNL     1       7.268   5.608  17.272  0.00  0.00    +0.000 C 
BRANCH  11  12
ATOM     12  C   UNL     1       6.954   7.083  17.523  0.00  0.00    +0.000 C 
BRANCH  12  14
ATOM     13  C   UNL     1       7.895   9.380  17.920  0.00  0.00    +0.000 C 
ATOM     14  C   UNL     1       8.222   7.932  17.585  0.00  0.00    +0.000 C 
ENDBRANCH  12  14
ENDBRANCH  11  12
ENDBRANCH   1  11
BRANCH   2  15
ATOM     15  S   UNL     1       5.023   4.698  19.443  0.00  0.00    +0.000 S 
BRANCH  15  16
ATOM     16  C   UNL     1       3.429   3.943  19.919  0.00  0.00    +0.000 C 
BRANCH  16  17
ATOM     17  C   UNL     1       2.363   5.004  20.224  0.00  0.00    +0.000 C 
ATOM     18  O   UNL     1       1.254   4.688  20.636  0.00  0.00    +0.000 OA
ATOM     19  N   UNL     1       2.794   6.307  20.041  0.00  0.00    +0.000 N 
ATOM     20  C   UNL     1       1.961   7.420  20.169  0.00  0.00    +0.000 A 
ATOM     21  C   UNL     1       1.141   7.626  21.272  0.00  0.00    +0.000 A 
ATOM     22  C   UNL     1       0.374   8.787  21.321  0.00  0.00    +0.000 A 
ATOM     23  C   UNL     1       0.404   9.672  20.247  0.00  0.00    +0.000 A 
ATOM     24  C   UNL     1       1.240   9.386  19.174  0.00  0.00    +0.000 A 
ATOM     25  C   UNL     1       1.221  10.226  17.936  0.00  0.00    +0.000 C 
ATOM     26  N   UNL     1       2.056   8.300  19.154  0.00  0.00    +0.000 NA
ATOM     27  H   UNL     1       3.494   6.434  19.318  0.00  0.00    +0.000 HD
ENDBRANCH  16  17
ENDBRANCH  15  16
ENDBRANCH   2  15
TORSDOF 7
ENDMDL
MODEL 7
REMARK VINA RESULT:      -7.3      5.284      7.667
REMARK  Name = 
REMARK  9 active torsions:
REMARK  status: ('A' for Active; 'I' for Inactive)
REMARK    1  A    between atoms: C_1  and  C_2
REMARK    2  A    between atoms: C_2  and  C_3
REMARK    3  A    between atoms: C_3  and  C_4
REMARK    4  A    between atoms: C_4  and  N_5
REMARK    5  A    between atoms: C_6  and  S_7
REMARK    6  A    between atoms: S_7  and  C_8
REMARK    7  A    between atoms: C_8  and  C_9
REMARK    8  A    between atoms: C_16  and  C_17
REMARK    9  A    between atoms: C_21  and  C_22
REMARK                            x       y       z     vdW  Elec       q    Type
REMARK                         _______ _______ _______ _____ _____    ______ ____
ROOT
ATOM      1  N   UNL     1       5.468   5.408  17.657  0.00  0.00    +0.000 N 
ATOM      2  C   UNL     1       6.617   5.854  18.266  0.00  0.00    +0.000 A 
ATOM      3  N   UNL     1       6.640   5.446  19.515  0.00  0.00    +0.000 NA
ATOM      4  N   UNL     1       5.498   4.706  19.735  0.00  0.00    +0.000 NA
ATOM      5  C   UNL     1       4.797   4.674  18.617  0.00  0.00    +0.000 A 
ENDROOT
BRANCH   5   6
ATOM      6  C   UNL     1       3.549   3.977  18.463  0.00  0.00    +0.000 A 
ATOM      7  C   UNL     1       2.276   4.517  18.349  0.00  0.00    +0.000 A 
ATOM      8  C   UNL     1       1.358   3.443  18.239  0.00  0.00    +0.000 A 
ATOM      9  C   UNL     1       2.116   2.298  18.287  0.00  0.00    +0.000 A 
ATOM     10  O   UNL     1       3.430   2.609  18.413  0.00  0.00    +0.000 OA
ENDBRANCH   5   6
BRANCH   1  11
ATOM     11  C   UNL     1       5.025   5.660  16.299  0.00  0.00    +0.000 C 
BRANCH  11  12
ATOM     12  C   UNL     1       5.207   4.435  15.404  0.00  0.00    +0.000 C 
BRANCH  12  14
ATOM     13  C   UNL     1       6.254   3.767  13.218  0.00  0.00    +0.000 C 
ATOM     14  C   UNL     1       6.431   4.567  14.500  0.00  0.00    +0.000 C 
ENDBRANCH  12  14
ENDBRANCH  11  12
ENDBRANCH   1  11
BRANCH   2  15
ATOM     15  S   UNL     1       7.838   6.798  17.473  0.00  0.00    +0.000 S 
BRANCH  15  16
ATOM     16  C   UNL     1       7.238   8.506  17.718  0.00  0.00    +0.000 C 
BRANCH  16  17
ATOM     17  C   UNL     1       8.347   9.432  18.234  0.00  0.00    +0.000 C 
ATOM     18  O   UNL     1       9.136   9.060  19.093  0.00  0.00    +0.000 OA
ATOM     19  N   UNL     1       8.389  10.666  17.608  0.00  0.00    +0.000 N 
ATOM     20  C   UNL     1       9.255  11.694  17.988  0.00  0.00    +0.000 A 
ATOM     21  C   UNL     1      10.620  11.505  18.164  0.00  0.00    +0.000 A 
ATOM     22  C   UNL     1      11.404  12.603  18.508  0.00  0.00    +0.000 A 
ATOM     23  C   UNL     1      10.796  13.837  18.722  0.00  0.00    +0.000 A 
ATOM     24  C   UNL     1       9.422  13.939  18.540  0.00  0.00    +0.000 A 
ATOM     25  C   UNL     1       8.692  15.201  18.880  0.00  0.00    +0.000 C 
ATOM     26  N   UNL     1       8.660  12.896  18.122  0.00  0.00    +0.000 NA
ATOM     27  H   UNL     1       7.495  11.019  17.285  0.00  0.00    +0.000 HD
ENDBRANCH  16  17
ENDBRANCH  15  16
ENDBRANCH   2  15
TORSDOF 7
ENDMDL
MODEL 8
REMARK VINA RESULT:      -7.2      2.332      4.035
REMARK  Name = 
REMARK  9 active torsions:
REMARK  status: ('A' for Active; 'I' for Inactive)
REMARK    1  A    between atoms: C_1  and  C_2
REMARK    2  A    between atoms: C_2  and  C_3
REMARK    3  A    between atoms: C_3  and  C_4
REMARK    4  A    between atoms: C_4  and  N_5
REMARK    5  A    between atoms: C_6  and  S_7
REMARK    6  A    between atoms: S_7  and  C_8
REMARK    7  A    between atoms: C_8  and  C_9
REMARK    8  A    between atoms: C_16  and  C_17
REMARK    9  A    between atoms: C_21  and  C_22
REMARK                            x       y       z     vdW  Elec       q    Type
REMARK                         _______ _______ _______ _____ _____    ______ ____
ROOT
ATOM      1  N   UNL     1       3.857   5.080  18.363  0.00  0.00    +0.000 N 
ATOM      2  C   UNL     1       4.438   5.032  17.118  0.00  0.00    +0.000 A 
ATOM      3  N   UNL     1       4.334   3.816  16.631  0.00  0.00    +0.000 NA
ATOM      4  N   UNL     1       3.663   3.049  17.559  0.00  0.00    +0.000 NA
ATOM      5  C   UNL     1       3.367   3.809  18.596  0.00  0.00    +0.000 A 
ENDROOT
BRANCH   5   6
ATOM      6  C   UNL     1       2.650   3.353  19.756  0.00  0.00    +0.000 A 
ATOM      7  C   UNL     1       1.277   3.327  19.958  0.00  0.00    +0.000 A 
ATOM      8  C   UNL     1       1.041   2.815  21.258  0.00  0.00    +0.000 A 
ATOM      9  C   UNL     1       2.280   2.549  21.786  0.00  0.00    +0.000 A 
ATOM     10  O   UNL     1       3.250   2.861  20.890  0.00  0.00    +0.000 OA
ENDBRANCH   5   6
BRANCH   1  11
ATOM     11  C   UNL     1       3.782   6.211  19.267  0.00  0.00    +0.000 C 
BRANCH  11  12
ATOM     12  C   UNL     1       2.374   6.800  19.327  0.00  0.00    +0.000 C 
BRANCH  12  14
ATOM     13  C   UNL     1       2.347   8.961  18.043  0.00  0.00    +0.000 C 
ATOM     14  C   UNL     1       1.986   7.484  18.018  0.00  0.00    +0.000 C 
ENDBRANCH  12  14
ENDBRANCH  11  12
ENDBRANCH   1  11
BRANCH   2  15
ATOM     15  S   UNL     1       5.174   6.393  16.332  0.00  0.00    +0.000 S 
BRANCH  15  16
ATOM     16  C   UNL     1       6.885   5.815  16.060  0.00  0.00    +0.000 C 
BRANCH  16  17
ATOM     17  C   UNL     1       7.059   5.178  14.675  0.00  0.00    +0.000 C 
ATOM     18  O   UNL     1       7.994   5.488  13.948  0.00  0.00    +0.000 OA
ATOM     19  N   UNL     1       6.113   4.214  14.374  0.00  0.00    +0.000 N 
ATOM     20  C   UNL     1       6.028   3.578  13.133  0.00  0.00    +0.000 A 
ATOM     21  C   UNL     1       7.124   2.995  12.507  0.00  0.00    +0.000 A 
ATOM     22  C   UNL     1       6.927   2.352  11.287  0.00  0.00    +0.000 A 
ATOM     23  C   UNL     1       5.663   2.363  10.705  0.00  0.00    +0.000 A 
ATOM     24  C   UNL     1       4.623   2.980  11.389  0.00  0.00    +0.000 A 
ATOM     25  C   UNL     1       3.273   3.138  10.761  0.00  0.00    +0.000 C 
ATOM     26  N   UNL     1       4.784   3.535  12.618  0.00  0.00    +0.000 NA
ATOM     27  H   UNL     1       5.201   4.355  14.794  0.00  0.00    +0.000 HD
ENDBRANCH  16  17
ENDBRANCH  15  16
ENDBRANCH   2  15
TORSDOF 7
ENDMDL
MODEL 9
REMARK VINA RESULT:      -7.1      3.800     10.315
REMARK  Name = 
REMARK  9 active torsions:
REMARK  status: ('A' for Active; 'I' for Inactive)
REMARK    1  A    between atoms: C_1  and  C_2
REMARK    2  A    between atoms: C_2  and  C_3
REMARK    3  A    between atoms: C_3  and  C_4
REMARK    4  A    between atoms: C_4  and  N_5
REMARK    5  A    between atoms: C_6  and  S_7
REMARK    6  A    between atoms: S_7  and  C_8
REMARK    7  A    between atoms: C_8  and  C_9
REMARK    8  A    between atoms: C_16  and  C_17
REMARK    9  A    between atoms: C_21  and  C_22
REMARK                            x       y       z     vdW  Elec       q    Type
REMARK                         _______ _______ _______ _____ _____    ______ ____
ROOT
ATOM      1  N   UNL     1       2.279   6.673  19.720  0.00  0.00    +0.000 N 
ATOM      2  C   UNL     1       1.726   7.912  19.939  0.00  0.00    +0.000 A 
ATOM      3  N   UNL     1       1.942   8.680  18.896  0.00  0.00    +0.000 NA
ATOM      4  N   UNL     1       2.636   7.937  17.965  0.00  0.00    +0.000 NA
ATOM      5  C   UNL     1       2.831   6.728  18.455  0.00  0.00    +0.000 A 
ENDROOT
BRANCH   5   6
ATOM      6  C   UNL     1       3.508   5.670  17.755  0.00  0.00    +0.000 A 
ATOM      7  C   UNL     1       4.777   5.689  17.194  0.00  0.00    +0.000 A 
ATOM      8  C   UNL     1       5.005   4.426  16.594  0.00  0.00    +0.000 A 
ATOM      9  C   UNL     1       3.865   3.694  16.820  0.00  0.00    +0.000 A 
ATOM     10  O   UNL     1       2.966   4.429  17.522  0.00  0.00    +0.000 OA
ENDBRANCH   5   6
BRANCH   1  11
ATOM     11  C   UNL     1       2.306   5.539  20.624  0.00  0.00    +0.000 C 
BRANCH  11  12
ATOM     12  C   UNL     1       1.071   4.653  20.465  0.00  0.00    +0.000 C 
BRANCH  12  14
ATOM     13  C   UNL     1       2.266   2.782  21.643  0.00  0.00    +0.000 C 
ATOM     14  C   UNL     1       1.433   3.170  20.430  0.00  0.00    +0.000 C 
ENDBRANCH  12  14
ENDBRANCH  11  12
ENDBRANCH   1  11
BRANCH   2  15
ATOM     15  S   UNL     1       0.865   8.356  21.380  0.00  0.00    +0.000 S 
BRANCH  15  16
ATOM     16  C   UNL     1      -0.209   9.712  20.795  0.00  0.00    +0.000 C 
BRANCH  16  17
ATOM     17  C   UNL     1      -0.528  10.712  21.914  0.00  0.00    +0.000 C 
ATOM     18  O   UNL     1       0.188  10.805  22.903  0.00  0.00    +0.000 OA
ATOM     19  N   UNL     1      -1.638  11.501  21.668  0.00  0.00    +0.000 N 
ATOM     20  C   UNL     1      -2.160  12.408  22.593  0.00  0.00    +0.000 A 
ATOM     21  C   UNL     1      -1.378  13.350  23.251  0.00  0.00    +0.000 A 
ATOM     22  C   UNL     1      -2.001  14.234  24.128  0.00  0.00    +0.000 A 
ATOM     23  C   UNL     1      -3.367  14.112  24.365  0.00  0.00    +0.000 A 
ATOM     24  C   UNL     1      -4.075  13.134  23.678  0.00  0.00    +0.000 A 
ATOM     25  C   UNL     1      -5.516  12.867  23.983  0.00  0.00    +0.000 C 
ATOM     26  N   UNL     1      -3.494  12.323  22.757  0.00  0.00    +0.000 NA
ATOM     27  H   UNL     1      -2.362  11.067  21.107  0.00  0.00    +0.000 HD
ENDBRANCH  16  17
ENDBRANCH  15  16
ENDBRANCH   2  15
TORSDOF 7
ENDMDL
