MODEL 1
REMARK VINA RESULT:      -8.4      0.000      0.000
REMARK  Name = 
REMARK  5 active torsions:
REMARK  status: ('A' for Active; 'I' for Inactive)
REMARK    1  A    between atoms: C_2  and  C_22
REMARK    2  A    between atoms: N_3  and  C_4
REMARK    3  A    between atoms: C_6  and  C_7
REMARK    4  A    between atoms: N_14  and  C_15
REMARK    5  A    between atoms: C_25  and  N_26
REMARK                            x       y       z     vdW  Elec       q    Type
REMARK                         _______ _______ _______ _____ _____    ______ ____
ROOT
ATOM      1  C   UNL     1       2.346   6.902  19.200  0.00  0.00    +0.000 A 
ATOM      2  C   UNL     1       2.075   8.197  19.548  0.00  0.00    +0.000 A 
ATOM      3  C   UNL     1       1.174   8.105  20.636  0.00  0.00    +0.000 A 
ATOM      4  N   UNL     1       0.937   6.823  20.953  0.00  0.00    +0.000 NA
ATOM      5  N   UNL     1       1.673   6.081  20.095  0.00  0.00    +0.000 N 
ENDROOT
BRANCH   5   6
ATOM      6  C   UNL     1       1.847   4.679  20.283  0.00  0.00    +0.000 A 
ATOM      7  C   UNL     1       2.265   4.216  21.549  0.00  0.00    +0.000 A 
ATOM      8  C   UNL     1       2.404   2.851  21.806  0.00  0.00    +0.000 A 
ATOM      9  C   UNL     1       2.130   1.927  20.805  0.00  0.00    +0.000 A 
ATOM     10  C   UNL     1       1.714   2.369  19.549  0.00  0.00    +0.000 A 
ATOM     11  C   UNL     1       1.567   3.738  19.277  0.00  0.00    +0.000 A 
ATOM     12 BR   UNL     1       1.126   4.165  17.476  0.00  0.00    +0.000 Br
ENDBRANCH   5   6
BRANCH   3  13
ATOM     13  C   UNL     1       0.536   9.207  21.355  0.00  0.00    +0.000 A 
ATOM     14  C   UNL     1      -0.129   8.973  22.567  0.00  0.00    +0.000 A 
ATOM     15  C   UNL     1      -0.762  10.017  23.245  0.00  0.00    +0.000 A 
ATOM     16  C   UNL     1      -0.731  11.308  22.721  0.00  0.00    +0.000 A 
ATOM     17  C   UNL     1      -0.065  11.558  21.523  0.00  0.00    +0.000 A 
ATOM     18  C   UNL     1       0.565  10.513  20.841  0.00  0.00    +0.000 A 
ENDBRANCH   3  13
BRANCH   1  21
ATOM     19  O   UNL     1       4.793   5.719  19.464  0.00  0.00    +0.000 OA
ATOM     20  C   UNL     1       4.401   5.931  18.330  0.00  0.00    +0.000 C 
ATOM     21  N   UNL     1       3.131   6.556  18.111  0.00  0.00    +0.000 N 
ATOM     22  H   UNL     1       2.746   6.720  17.194  0.00  0.00    +0.000 HD
BRANCH  20  23
ATOM     23  C   UNL     1       5.191   5.582  17.118  0.00  0.00    +0.000 A 
ATOM     24  C   UNL     1       4.726   4.643  16.184  0.00  0.00    +0.000 A 
ATOM     25  C   UNL     1       5.453   4.393  15.017  0.00  0.00    +0.000 A 
ATOM     26  C   UNL     1       6.661   5.065  14.790  0.00  0.00    +0.000 A 
ATOM     27  C   UNL     1       7.155   5.971  15.739  0.00  0.00    +0.000 A 
ATOM     28  C   UNL     1       6.420   6.224  16.903  0.00  0.00    +0.000 A 
BRANCH  26  29
ATOM     29  N   UNL     1       7.403   4.814  13.548  0.00  0.00    +0.000 N 
ATOM     30  O   UNL     1       8.375   5.546  13.303  0.00  0.00    +0.000 OA
ATOM     31  O   UNL     1       7.020   3.886  12.826  0.00  0.00    +0.000 OA
ENDBRANCH  26  29
ENDBRANCH  20  23
ENDBRANCH   1  21
TORSDOF 5
ENDMDL
MODEL 2
REMARK VINA RESULT:      -8.3      0.053      1.049
REMARK  Name = 
REMARK  5 active torsions:
REMARK  status: ('A' for Active; 'I' for Inactive)
REMARK    1  A    between atoms: C_2  and  C_22
REMARK    2  A    between atoms: N_3  and  C_4
REMARK    3  A    between atoms: C_6  and  C_7
REMARK    4  A    between atoms: N_14  and  C_15
REMARK    5  A    between atoms: C_25  and  N_26
REMARK                            x       y       z     vdW  Elec       q    Type
REMARK                         _______ _______ _______ _____ _____    ______ ____
ROOT
ATOM      1  C   UNL     1       2.329   6.928  19.202  0.00  0.00    +0.000 A 
ATOM      2  C   UNL     1       2.048   8.221  19.549  0.00  0.00    +0.000 A 
ATOM      3  C   UNL     1       1.140   8.123  20.631  0.00  0.00    +0.000 A 
ATOM      4  N   UNL     1       0.908   6.840  20.946  0.00  0.00    +0.000 NA
ATOM      5  N   UNL     1       1.654   6.102  20.093  0.00  0.00    +0.000 N 
ENDROOT
BRANCH   5   6
ATOM      6  C   UNL     1       1.835   4.702  20.281  0.00  0.00    +0.000 A 
ATOM      7  C   UNL     1       2.245   4.240  21.550  0.00  0.00    +0.000 A 
ATOM      8  C   UNL     1       2.391   2.876  21.807  0.00  0.00    +0.000 A 
ATOM      9  C   UNL     1       2.130   1.951  20.803  0.00  0.00    +0.000 A 
ATOM     10  C   UNL     1       1.722   2.391  19.544  0.00  0.00    +0.000 A 
ATOM     11  C   UNL     1       1.569   3.760  19.272  0.00  0.00    +0.000 A 
ATOM     12 BR   UNL     1       1.140   4.185  17.467  0.00  0.00    +0.000 Br
ENDBRANCH   5   6
BRANCH   3  13
ATOM     13  C   UNL     1       0.490   9.221  21.346  0.00  0.00    +0.000 A 
ATOM     14  C   UNL     1       0.539  10.527  20.837  0.00  0.00    +0.000 A 
ATOM     15  C   UNL     1      -0.058  11.583  21.528  0.00  0.00    +0.000 A 
ATOM     16  C   UNL     1      -0.716  11.344  22.733  0.00  0.00    +0.000 A 
ATOM     17  C   UNL     1      -0.782  10.050  23.246  0.00  0.00    +0.000 A 
ATOM     18  C   UNL     1      -0.181   8.993  22.557  0.00  0.00    +0.000 A 
ENDBRANCH   3  13
BRANCH   1  21
ATOM     19  O   UNL     1       4.754   5.705  19.481  0.00  0.00    +0.000 OA
ATOM     20  C   UNL     1       4.382   5.940  18.346  0.00  0.00    +0.000 C 
ATOM     21  N   UNL     1       3.124   6.588  18.119  0.00  0.00    +0.000 N 
ATOM     22  H   UNL     1       2.754   6.771  17.200  0.00  0.00    +0.000 HD
BRANCH  20  23
ATOM     23  C   UNL     1       5.184   5.598  17.140  0.00  0.00    +0.000 A 
ATOM     24  C   UNL     1       4.770   4.602  16.243  0.00  0.00    +0.000 A 
ATOM     25  C   UNL     1       5.504   4.355  15.078  0.00  0.00    +0.000 A 
ATOM     26  C   UNL     1       6.666   5.092  14.818  0.00  0.00    +0.000 A 
ATOM     27  C   UNL     1       7.111   6.058  15.730  0.00  0.00    +0.000 A 
ATOM     28  C   UNL     1       6.369   6.306  16.892  0.00  0.00    +0.000 A 
BRANCH  26  29
ATOM     29  N   UNL     1       7.414   4.844  13.578  0.00  0.00    +0.000 N 
ATOM     30  O   UNL     1       6.970   3.981  12.804  0.00  0.00    +0.000 OA
ATOM     31  O   UNL     1       8.433   5.515  13.377  0.00  0.00    +0.000 OA
ENDBRANCH  26  29
ENDBRANCH  20  23
ENDBRANCH   1  21
TORSDOF 5
ENDMDL
MODEL 3
REMARK VINA RESULT:      -8.1      2.900      8.356
REMARK  Name = 
REMARK  5 active torsions:
REMARK  status: ('A' for Active; 'I' for Inactive)
REMARK    1  A    between atoms: C_2  and  C_22
REMARK    2  A    between atoms: N_3  and  C_4
REMARK    3  A    between atoms: C_6  and  C_7
REMARK    4  A    between atoms: N_14  and  C_15
REMARK    5  A    between atoms: C_25  and  N_26
REMARK                            x       y       z     vdW  Elec       q    Type
REMARK                         _______ _______ _______ _____ _____    ______ ____
ROOT
ATOM      1  C   UNL     1       3.896   5.868  17.533  0.00  0.00    +0.000 A 
ATOM      2  C   UNL     1       4.680   6.192  16.459  0.00  0.00    +0.000 A 
ATOM      3  C   UNL     1       5.008   4.954  15.856  0.00  0.00    +0.000 A 
ATOM      4  N   UNL     1       4.428   3.935  16.509  0.00  0.00    +0.000 NA
ATOM      5  N   UNL     1       3.723   4.489  17.521  0.00  0.00    +0.000 N 
ENDROOT
BRANCH   5   6
ATOM      6  C   UNL     1       2.795   3.727  18.287  0.00  0.00    +0.000 A 
ATOM      7  C   UNL     1       1.429   3.778  17.934  0.00  0.00    +0.000 A 
ATOM      8  C   UNL     1       0.480   3.015  18.617  0.00  0.00    +0.000 A 
ATOM      9  C   UNL     1       0.878   2.189  19.662  0.00  0.00    +0.000 A 
ATOM     10  C   UNL     1       2.224   2.127  20.021  0.00  0.00    +0.000 A 
ATOM     11  C   UNL     1       3.190   2.887  19.342  0.00  0.00    +0.000 A 
ATOM     12 BR   UNL     1       4.952   2.783  20.053  0.00  0.00    +0.000 Br
ENDBRANCH   5   6
BRANCH   3  13
ATOM     13  C   UNL     1       5.867   4.734  14.693  0.00  0.00    +0.000 A 
ATOM     14  C   UNL     1       7.073   5.436  14.559  0.00  0.00    +0.000 A 
ATOM     15  C   UNL     1       7.885   5.249  13.438  0.00  0.00    +0.000 A 
ATOM     16  C   UNL     1       7.502   4.352  12.442  0.00  0.00    +0.000 A 
ATOM     17  C   UNL     1       6.310   3.640  12.566  0.00  0.00    +0.000 A 
ATOM     18  C   UNL     1       5.495   3.830  13.686  0.00  0.00    +0.000 A 
ENDBRANCH   3  13
BRANCH   1  21
ATOM     19  O   UNL     1       1.472   7.098  17.274  0.00  0.00    +0.000 OA
ATOM     20  C   UNL     1       2.144   7.400  18.243  0.00  0.00    +0.000 C 
ATOM     21  N   UNL     1       3.431   6.803  18.444  0.00  0.00    +0.000 N 
ATOM     22  H   UNL     1       4.009   6.991  19.248  0.00  0.00    +0.000 HD
BRANCH  20  23
ATOM     23  C   UNL     1       1.704   8.393  19.260  0.00  0.00    +0.000 A 
ATOM     24  C   UNL     1       1.353   9.704  18.902  0.00  0.00    +0.000 A 
ATOM     25  C   UNL     1       0.870  10.592  19.868  0.00  0.00    +0.000 A 
ATOM     26  C   UNL     1       0.757  10.178  21.201  0.00  0.00    +0.000 A 
ATOM     27  C   UNL     1       1.147   8.885  21.576  0.00  0.00    +0.000 A 
ATOM     28  C   UNL     1       1.623   7.996  20.604  0.00  0.00    +0.000 A 
BRANCH  26  29
ATOM     29  N   UNL     1       0.222  11.111  22.202  0.00  0.00    +0.000 N 
ATOM     30  O   UNL     1      -0.217  10.628  23.257  0.00  0.00    +0.000 OA
ATOM     31  O   UNL     1       0.251  12.318  21.937  0.00  0.00    +0.000 OA
ENDBRANCH  26  29
ENDBRANCH  20  23
ENDBRANCH   1  21
TORSDOF 5
ENDMDL
MODEL 4
REMARK VINA RESULT:      -8.0      2.794      8.249
REMARK  Name = 
REMARK  5 active torsions:
REMARK  status: ('A' for Active; 'I' for Inactive)
REMARK    1  A    between atoms: C_2  and  C_22
REMARK    2  A    between atoms: N_3  and  C_4
REMARK    3  A    between atoms: C_6  and  C_7
REMARK    4  A    between atoms: N_14  and  C_15
REMARK    5  A    between atoms: C_25  and  N_26
REMARK                            x       y       z     vdW  Elec       q    Type
REMARK                         _______ _______ _______ _____ _____    ______ ____
ROOT
ATOM      1  C   UNL     1       4.253   5.768  17.610  0.00  0.00    +0.000 A 
ATOM      2  C   UNL     1       4.764   6.067  16.376  0.00  0.00    +0.000 A 
ATOM      3  C   UNL     1       5.264   4.841  15.878  0.00  0.00    +0.000 A 
ATOM      4  N   UNL     1       5.040   3.844  16.747  0.00  0.00    +0.000 NA
ATOM      5  N   UNL     1       4.397   4.399  17.799  0.00  0.00    +0.000 N 
ENDROOT
BRANCH   5   6
ATOM      6  C   UNL     1       3.798   3.598  18.813  0.00  0.00    +0.000 A 
ATOM      7  C   UNL     1       4.620   3.088  19.841  0.00  0.00    +0.000 A 
ATOM      8  C   UNL     1       4.081   2.338  20.888  0.00  0.00    +0.000 A 
ATOM      9  C   UNL     1       2.715   2.085  20.927  0.00  0.00    +0.000 A 
ATOM     10  C   UNL     1       1.889   2.584  19.919  0.00  0.00    +0.000 A 
ATOM     11  C   UNL     1       2.417   3.342  18.861  0.00  0.00    +0.000 A 
ATOM     12 BR   UNL     1       1.170   3.823  17.507  0.00  0.00    +0.000 Br
ENDBRANCH   5   6
BRANCH   3  13
ATOM     13  C   UNL     1       5.956   4.615  14.609  0.00  0.00    +0.000 A 
ATOM     14  C   UNL     1       7.152   5.288  14.324  0.00  0.00    +0.000 A 
ATOM     15  C   UNL     1       7.804   5.096  13.103  0.00  0.00    +0.000 A 
ATOM     16  C   UNL     1       7.269   4.223  12.158  0.00  0.00    +0.000 A 
ATOM     17  C   UNL     1       6.085   3.539  12.431  0.00  0.00    +0.000 A 
ATOM     18  C   UNL     1       5.431   3.734  13.651  0.00  0.00    +0.000 A 
ENDBRANCH   3  13
BRANCH   1  21
ATOM     19  O   UNL     1       1.733   6.785  17.346  0.00  0.00    +0.000 OA
ATOM     20  C   UNL     1       2.403   7.204  18.272  0.00  0.00    +0.000 C 
ATOM     21  N   UNL     1       3.739   6.724  18.472  0.00  0.00    +0.000 N 
ATOM     22  H   UNL     1       4.320   7.011  19.243  0.00  0.00    +0.000 HD
BRANCH  20  23
ATOM     23  C   UNL     1       1.911   8.227  19.235  0.00  0.00    +0.000 A 
ATOM     24  C   UNL     1       1.610   9.534  18.825  0.00  0.00    +0.000 A 
ATOM     25  C   UNL     1       1.077  10.452  19.735  0.00  0.00    +0.000 A 
ATOM     26  C   UNL     1       0.864  10.070  21.066  0.00  0.00    +0.000 A 
ATOM     27  C   UNL     1       1.204   8.779  21.495  0.00  0.00    +0.000 A 
ATOM     28  C   UNL     1       1.731   7.861  20.577  0.00  0.00    +0.000 A 
BRANCH  26  29
ATOM     29  N   UNL     1       0.278  11.033  22.008  0.00  0.00    +0.000 N 
ATOM     30  O   UNL     1       0.283  12.230  21.680  0.00  0.00    +0.000 OA
ATOM     31  O   UNL     1      -0.191  10.592  23.063  0.00  0.00    +0.000 OA
ENDBRANCH  26  29
ENDBRANCH  20  23
ENDBRANCH   1  21
TORSDOF 5
ENDMDL
MODEL 5
REMARK VINA RESULT:      -8.0      2.784      8.234
REMARK  Name = 
REMARK  5 active torsions:
REMARK  status: ('A' for Active; 'I' for Inactive)
REMARK    1  A    between atoms: C_2  and  C_22
REMARK    2  A    between atoms: N_3  and  C_4
REMARK    3  A    between atoms: C_6  and  C_7
REMARK    4  A    between atoms: N_14  and  C_15
REMARK    5  A    between atoms: C_25  and  N_26
REMARK                            x       y       z     vdW  Elec       q    Type
REMARK                         _______ _______ _______ _____ _____    ______ ____
ROOT
ATOM      1  C   UNL     1       4.205   5.789  17.702  0.00  0.00    +0.000 A 
ATOM      2  C   UNL     1       4.724   6.114  16.478  0.00  0.00    +0.000 A 
ATOM      3  C   UNL     1       5.234   4.899  15.961  0.00  0.00    +0.000 A 
ATOM      4  N   UNL     1       5.008   3.885  16.810  0.00  0.00    +0.000 NA
ATOM      5  N   UNL     1       4.354   4.418  17.867  0.00  0.00    +0.000 N 
ENDROOT
BRANCH   5   6
ATOM      6  C   UNL     1       3.750   3.595  18.861  0.00  0.00    +0.000 A 
ATOM      7  C   UNL     1       4.567   3.067  19.884  0.00  0.00    +0.000 A 
ATOM      8  C   UNL     1       4.023   2.296  20.913  0.00  0.00    +0.000 A 
ATOM      9  C   UNL     1       2.658   2.038  20.937  0.00  0.00    +0.000 A 
ATOM     10  C   UNL     1       1.838   2.554  19.934  0.00  0.00    +0.000 A 
ATOM     11  C   UNL     1       2.371   3.333  18.895  0.00  0.00    +0.000 A 
ATOM     12 BR   UNL     1       1.131   3.837  17.542  0.00  0.00    +0.000 Br
ENDBRANCH   5   6
BRANCH   3  13
ATOM     13  C   UNL     1       5.937   4.700  14.694  0.00  0.00    +0.000 A 
ATOM     14  C   UNL     1       5.403   3.855  13.711  0.00  0.00    +0.000 A 
ATOM     15  C   UNL     1       6.082   3.641  12.510  0.00  0.00    +0.000 A 
ATOM     16  C   UNL     1       7.300   4.277  12.276  0.00  0.00    +0.000 A 
ATOM     17  C   UNL     1       7.839   5.128  13.239  0.00  0.00    +0.000 A 
ATOM     18  C   UNL     1       7.161   5.339  14.443  0.00  0.00    +0.000 A 
ENDBRANCH   3  13
BRANCH   1  21
ATOM     19  O   UNL     1       1.758   6.943  17.328  0.00  0.00    +0.000 OA
ATOM     20  C   UNL     1       2.384   7.282  18.317  0.00  0.00    +0.000 C 
ATOM     21  N   UNL     1       3.679   6.727  18.577  0.00  0.00    +0.000 N 
ATOM     22  H   UNL     1       4.220   6.946  19.398  0.00  0.00    +0.000 HD
BRANCH  20  23
ATOM     23  C   UNL     1       1.876   8.280  19.297  0.00  0.00    +0.000 A 
ATOM     24  C   UNL     1       1.531   9.582  18.906  0.00  0.00    +0.000 A 
ATOM     25  C   UNL     1       0.985  10.474  19.834  0.00  0.00    +0.000 A 
ATOM     26  C   UNL     1       0.803  10.072  21.163  0.00  0.00    +0.000 A 
ATOM     27  C   UNL     1       1.187   8.788  21.573  0.00  0.00    +0.000 A 
ATOM     28  C   UNL     1       1.727   7.896  20.638  0.00  0.00    +0.000 A 
BRANCH  26  29
ATOM     29  N   UNL     1       0.204  11.008  22.124  0.00  0.00    +0.000 N 
ATOM     30  O   UNL     1      -0.132  10.557  23.230  0.00  0.00    +0.000 OA
ATOM     31  O   UNL     1       0.078  12.188  21.776  0.00  0.00    +0.000 OA
ENDBRANCH  26  29
ENDBRANCH  20  23
ENDBRANCH   1  21
TORSDOF 5
ENDMDL
MODEL 6
REMARK VINA RESULT:      -8.0      2.914      8.345
REMARK  Name = 
REMARK  5 active torsions:
REMARK  status: ('A' for Active; 'I' for Inactive)
REMARK    1  A    between atoms: C_2  and  C_22
REMARK    2  A    between atoms: N_3  and  C_4
REMARK    3  A    between atoms: C_6  and  C_7
REMARK    4  A    between atoms: N_14  and  C_15
REMARK    5  A    between atoms: C_25  and  N_26
REMARK                            x       y       z     vdW  Elec       q    Type
REMARK                         _______ _______ _______ _____ _____    ______ ____
ROOT
ATOM      1  C   UNL     1       3.954   5.891  17.415  0.00  0.00    +0.000 A 
ATOM      2  C   UNL     1       4.701   6.207  16.313  0.00  0.00    +0.000 A 
ATOM      3  C   UNL     1       5.036   4.963  15.726  0.00  0.00    +0.000 A 
ATOM      4  N   UNL     1       4.495   3.948  16.415  0.00  0.00    +0.000 NA
ATOM      5  N   UNL     1       3.808   4.509  17.436  0.00  0.00    +0.000 N 
ENDROOT
BRANCH   5   6
ATOM      6  C   UNL     1       2.916   3.746  18.243  0.00  0.00    +0.000 A 
ATOM      7  C   UNL     1       1.558   3.678  17.866  0.00  0.00    +0.000 A 
ATOM      8  C   UNL     1       0.648   2.905  18.591  0.00  0.00    +0.000 A 
ATOM      9  C   UNL     1       1.078   2.190  19.701  0.00  0.00    +0.000 A 
ATOM     10  C   UNL     1       2.418   2.245  20.085  0.00  0.00    +0.000 A 
ATOM     11  C   UNL     1       3.344   3.016  19.365  0.00  0.00    +0.000 A 
ATOM     12 BR   UNL     1       5.094   3.085  20.109  0.00  0.00    +0.000 Br
ENDBRANCH   5   6
BRANCH   3  13
ATOM     13  C   UNL     1       5.867   4.735  14.544  0.00  0.00    +0.000 A 
ATOM     14  C   UNL     1       5.460   3.828  13.556  0.00  0.00    +0.000 A 
ATOM     15  C   UNL     1       6.261   3.587  12.437  0.00  0.00    +0.000 A 
ATOM     16  C   UNL     1       7.474   4.257  12.292  0.00  0.00    +0.000 A 
ATOM     17  C   UNL     1       7.887   5.170  13.261  0.00  0.00    +0.000 A 
ATOM     18  C   UNL     1       7.088   5.408  14.383  0.00  0.00    +0.000 A 
ENDBRANCH   3  13
BRANCH   1  21
ATOM     19  O   UNL     1       1.441   6.951  17.293  0.00  0.00    +0.000 OA
ATOM     20  C   UNL     1       2.161   7.340  18.194  0.00  0.00    +0.000 C 
ATOM     21  N   UNL     1       3.497   6.836  18.320  0.00  0.00    +0.000 N 
ATOM     22  H   UNL     1       4.119   7.097  19.068  0.00  0.00    +0.000 HD
BRANCH  20  23
ATOM     23  C   UNL     1       1.732   8.349  19.200  0.00  0.00    +0.000 A 
ATOM     24  C   UNL     1       1.449   9.674  18.835  0.00  0.00    +0.000 A 
ATOM     25  C   UNL     1       0.975  10.581  19.788  0.00  0.00    +0.000 A 
ATOM     26  C   UNL     1       0.802  10.170  21.116  0.00  0.00    +0.000 A 
ATOM     27  C   UNL     1       1.125   8.860  21.499  0.00  0.00    +0.000 A 
ATOM     28  C   UNL     1       1.593   7.954  20.539  0.00  0.00    +0.000 A 
BRANCH  26  29
ATOM     29  N   UNL     1       0.277  11.122  22.103  0.00  0.00    +0.000 N 
ATOM     30  O   UNL     1       0.350  12.330  21.828  0.00  0.00    +0.000 OA
ATOM     31  O   UNL     1      -0.212  10.663  23.141  0.00  0.00    +0.000 OA
ENDBRANCH  26  29
ENDBRANCH  20  23
ENDBRANCH   1  21
TORSDOF 5
ENDMDL
MODEL 7
REMARK VINA RESULT:      -7.8      4.468      6.986
REMARK  Name = 
REMARK  5 active torsions:
REMARK  status: ('A' for Active; 'I' for Inactive)
REMARK    1  A    between atoms: C_2  and  C_22
REMARK    2  A    between atoms: N_3  and  C_4
REMARK    3  A    between atoms: C_6  and  C_7
REMARK    4  A    between atoms: N_14  and  C_15
REMARK    5  A    between atoms: C_25  and  N_26
REMARK                            x       y       z     vdW  Elec       q    Type
REMARK                         _______ _______ _______ _____ _____    ______ ____
ROOT
ATOM      1  C   UNL     1      -0.421  10.570  18.236  0.00  0.00    +0.000 A 
ATOM      2  C   UNL     1      -1.736  10.376  17.911  0.00  0.00    +0.000 A 
ATOM      3  C   UNL     1      -2.407  11.527  18.387  0.00  0.00    +0.000 A 
ATOM      4  N   UNL     1      -1.542  12.389  18.943  0.00  0.00    +0.000 NA
ATOM      5  N   UNL     1      -0.320  11.822  18.830  0.00  0.00    +0.000 N 
ENDROOT
BRANCH   5   6
ATOM      6  C   UNL     1       0.870  12.554  19.108  0.00  0.00    +0.000 A 
ATOM      7  C   UNL     1       1.845  12.665  18.093  0.00  0.00    +0.000 A 
ATOM      8  C   UNL     1       3.008  13.411  18.290  0.00  0.00    +0.000 A 
ATOM      9  C   UNL     1       3.218  14.058  19.502  0.00  0.00    +0.000 A 
ATOM     10  C   UNL     1       2.263  13.959  20.514  0.00  0.00    +0.000 A 
ATOM     11  C   UNL     1       1.088  13.214  20.329  0.00  0.00    +0.000 A 
ATOM     12 BR   UNL     1      -0.035  13.076  21.860  0.00  0.00    +0.000 Br
ENDBRANCH   5   6
BRANCH   3  13
ATOM     13  C   UNL     1      -3.842  11.803  18.333  0.00  0.00    +0.000 A 
ATOM     14  C   UNL     1      -4.553  11.630  17.138  0.00  0.00    +0.000 A 
ATOM     15  C   UNL     1      -5.919  11.917  17.073  0.00  0.00    +0.000 A 
ATOM     16  C   UNL     1      -6.589  12.373  18.207  0.00  0.00    +0.000 A 
ATOM     17  C   UNL     1      -5.897  12.540  19.405  0.00  0.00    +0.000 A 
ATOM     18  C   UNL     1      -4.530  12.258  19.469  0.00  0.00    +0.000 A 
ENDBRANCH   3  13
BRANCH   1  21
ATOM     19  O   UNL     1       0.758   9.173  20.264  0.00  0.00    +0.000 OA
ATOM     20  C   UNL     1       1.130   8.923  19.132  0.00  0.00    +0.000 C 
ATOM     21  N   UNL     1       0.564   9.621  18.015  0.00  0.00    +0.000 N 
ATOM     22  H   UNL     1       0.811   9.425  17.058  0.00  0.00    +0.000 HD
BRANCH  20  23
ATOM     23  C   UNL     1       2.181   7.914  18.825  0.00  0.00    +0.000 A 
ATOM     24  C   UNL     1       3.021   8.046  17.709  0.00  0.00    +0.000 A 
ATOM     25  C   UNL     1       4.048   7.124  17.488  0.00  0.00    +0.000 A 
ATOM     26  C   UNL     1       4.225   6.053  18.373  0.00  0.00    +0.000 A 
ATOM     27  C   UNL     1       3.362   5.888  19.466  0.00  0.00    +0.000 A 
ATOM     28  C   UNL     1       2.339   6.818  19.687  0.00  0.00    +0.000 A 
BRANCH  26  29
ATOM     29  N   UNL     1       5.324   5.105  18.147  0.00  0.00    +0.000 N 
ATOM     30  O   UNL     1       5.596   4.811  16.973  0.00  0.00    +0.000 OA
ATOM     31  O   UNL     1       5.918   4.666  19.139  0.00  0.00    +0.000 OA
ENDBRANCH  26  29
ENDBRANCH  20  23
ENDBRANCH   1  21
TORSDOF 5
ENDMDL
MODEL 8
REMARK VINA RESULT:      -7.8      4.600      7.326
REMARK  Name = 
REMARK  5 active torsions:
REMARK  status: ('A' for Active; 'I' for Inactive)
REMARK    1  A    between atoms: C_2  and  C_22
REMARK    2  A    between atoms: N_3  and  C_4
REMARK    3  A    between atoms: C_6  and  C_7
REMARK    4  A    between atoms: N_14  and  C_15
REMARK    5  A    between atoms: C_25  and  N_26
REMARK                            x       y       z     vdW  Elec       q    Type
REMARK                         _______ _______ _______ _____ _____    ______ ____
ROOT
ATOM      1  C   UNL     1       0.907  11.219  19.066  0.00  0.00    +0.000 A 
ATOM      2  C   UNL     1       1.855  12.177  19.307  0.00  0.00    +0.000 A 
ATOM      3  C   UNL     1       1.338  13.360  18.727  0.00  0.00    +0.000 A 
ATOM      4  N   UNL     1       0.128  13.142  18.191  0.00  0.00    +0.000 NA
ATOM      5  N   UNL     1      -0.154  11.839  18.418  0.00  0.00    +0.000 N 
ENDROOT
BRANCH   5   6
ATOM      6  C   UNL     1      -1.456  11.308  18.189  0.00  0.00    +0.000 A 
ATOM      7  C   UNL     1      -1.618  10.335  17.179  0.00  0.00    +0.000 A 
ATOM      8  C   UNL     1      -2.860   9.743  16.943  0.00  0.00    +0.000 A 
ATOM      9  C   UNL     1      -3.960  10.112  17.708  0.00  0.00    +0.000 A 
ATOM     10  C   UNL     1      -3.815  11.071  18.711  0.00  0.00    +0.000 A 
ATOM     11  C   UNL     1      -2.572  11.673  18.961  0.00  0.00    +0.000 A 
ATOM     12 BR   UNL     1      -2.588  13.055  20.270  0.00  0.00    +0.000 Br
ENDBRANCH   5   6
BRANCH   3  13
ATOM     13  C   UNL     1       1.982  14.672  18.666  0.00  0.00    +0.000 A 
ATOM     14  C   UNL     1       3.237  14.819  18.058  0.00  0.00    +0.000 A 
ATOM     15  C   UNL     1       3.868  16.064  18.019  0.00  0.00    +0.000 A 
ATOM     16  C   UNL     1       3.247  17.177  18.582  0.00  0.00    +0.000 A 
ATOM     17  C   UNL     1       1.995  17.049  19.182  0.00  0.00    +0.000 A 
ATOM     18  C   UNL     1       1.365  15.802  19.225  0.00  0.00    +0.000 A 
ENDBRANCH   3  13
BRANCH   1  21
ATOM     19  O   UNL     1       2.269   9.459  17.484  0.00  0.00    +0.000 OA
ATOM     20  C   UNL     1       1.807   9.024  18.523  0.00  0.00    +0.000 C 
ATOM     21  N   UNL     1       1.073   9.885  19.403  0.00  0.00    +0.000 N 
ATOM     22  H   UNL     1       0.703   9.584  20.290  0.00  0.00    +0.000 HD
BRANCH  20  23
ATOM     23  C   UNL     1       1.951   7.605  18.947  0.00  0.00    +0.000 A 
ATOM     24  C   UNL     1       1.727   7.209  20.274  0.00  0.00    +0.000 A 
ATOM     25  C   UNL     1       1.795   5.858  20.626  0.00  0.00    +0.000 A 
ATOM     26  C   UNL     1       2.109   4.899  19.655  0.00  0.00    +0.000 A 
ATOM     27  C   UNL     1       2.378   5.290  18.335  0.00  0.00    +0.000 A 
ATOM     28  C   UNL     1       2.302   6.644  17.986  0.00  0.00    +0.000 A 
BRANCH  26  29
ATOM     29  N   UNL     1       2.150   3.479  20.029  0.00  0.00    +0.000 N 
ATOM     30  O   UNL     1       1.174   3.020  20.642  0.00  0.00    +0.000 OA
ATOM     31  O   UNL     1       3.150   2.828  19.705  0.00  0.00    +0.000 OA
ENDBRANCH  26  29
ENDBRANCH  20  23
ENDBRANCH   1  21
TORSDOF 5
ENDMDL
MODEL 9
REMARK VINA RESULT:      -7.8      4.444      6.948
REMARK  Name = 
REMARK  5 active torsions:
REMARK  status: ('A' for Active; 'I' for Inactive)
REMARK    1  A    between atoms: C_2  and  C_22
REMARK    2  A    between atoms: N_3  and  C_4
REMARK    3  A    between atoms: C_6  and  C_7
REMARK    4  A    between atoms: N_14  and  C_15
REMARK    5  A    between atoms: C_25  and  N_26
REMARK                            x       y       z     vdW  Elec       q    Type
REMARK                         _______ _______ _______ _____ _____    ______ ____
ROOT
ATOM      1  C   UNL     1      -0.374  10.598  18.318  0.00  0.00    +0.000 A 
ATOM      2  C   UNL     1      -1.694  10.393  18.025  0.00  0.00    +0.000 A 
ATOM      3  C   UNL     1      -2.360  11.548  18.501  0.00  0.00    +0.000 A 
ATOM      4  N   UNL     1      -1.487  12.421  19.025  0.00  0.00    +0.000 NA
ATOM      5  N   UNL     1      -0.265  11.858  18.892  0.00  0.00    +0.000 N 
ENDROOT
BRANCH   5   6
ATOM      6  C   UNL     1       0.928  12.599  19.133  0.00  0.00    +0.000 A 
ATOM      7  C   UNL     1       1.910  12.641  18.120  0.00  0.00    +0.000 A 
ATOM      8  C   UNL     1       3.077  13.391  18.280  0.00  0.00    +0.000 A 
ATOM      9  C   UNL     1       3.282  14.111  19.450  0.00  0.00    +0.000 A 
ATOM     10  C   UNL     1       2.319  14.081  20.460  0.00  0.00    +0.000 A 
ATOM     11  C   UNL     1       1.141  13.333  20.312  0.00  0.00    +0.000 A 
ATOM     12 BR   UNL     1       0.006  13.297  21.840  0.00  0.00    +0.000 Br
ENDBRANCH   5   6
BRANCH   3  13
ATOM     13  C   UNL     1      -3.798  11.817  18.476  0.00  0.00    +0.000 A 
ATOM     14  C   UNL     1      -4.445  12.318  19.614  0.00  0.00    +0.000 A 
ATOM     15  C   UNL     1      -5.822  12.553  19.604  0.00  0.00    +0.000 A 
ATOM     16  C   UNL     1      -6.564  12.295  18.453  0.00  0.00    +0.000 A 
ATOM     17  C   UNL     1      -5.933  11.806  17.311  0.00  0.00    +0.000 A 
ATOM     18  C   UNL     1      -4.555  11.567  17.322  0.00  0.00    +0.000 A 
ENDBRANCH   3  13
BRANCH   1  21
ATOM     19  O   UNL     1       0.722   9.097  20.318  0.00  0.00    +0.000 OA
ATOM     20  C   UNL     1       1.132   8.895  19.189  0.00  0.00    +0.000 C 
ATOM     21  N   UNL     1       0.611   9.650  18.087  0.00  0.00    +0.000 N 
ATOM     22  H   UNL     1       0.889   9.496  17.131  0.00  0.00    +0.000 HD
BRANCH  20  23
ATOM     23  C   UNL     1       2.183   7.891  18.873  0.00  0.00    +0.000 A 
ATOM     24  C   UNL     1       3.006   8.022  17.743  0.00  0.00    +0.000 A 
ATOM     25  C   UNL     1       4.035   7.105  17.512  0.00  0.00    +0.000 A 
ATOM     26  C   UNL     1       4.232   6.040  18.401  0.00  0.00    +0.000 A 
ATOM     27  C   UNL     1       3.388   5.877  19.507  0.00  0.00    +0.000 A 
ATOM     28  C   UNL     1       2.362   6.802  19.738  0.00  0.00    +0.000 A 
BRANCH  26  29
ATOM     29  N   UNL     1       5.334   5.099  18.164  0.00  0.00    +0.000 N 
ATOM     30  O   UNL     1       5.914   4.633  19.158  0.00  0.00    +0.000 OA
ATOM     31  O   UNL     1       5.612   4.821  16.992  0.00  0.00    +0.000 OA
ENDBRANCH  26  29
ENDBRANCH  20  23
ENDBRANCH   1  21
TORSDOF 5
ENDMDL
