MODEL 1
REMARK VINA RESULT:      -7.4      0.000      0.000
REMARK  Name = 
REMARK  10 active torsions:
REMARK  status: ('A' for Active; 'I' for Inactive)
REMARK    1  A    between atoms: C_1  and  C_2
REMARK    2  A    between atoms: C_2  and  O_3
REMARK    3  A    between atoms: O_3  and  C_4
REMARK    4  A    between atoms: N_7  and  C_8
REMARK    5  A    between atoms: C_9  and  N_10
REMARK    6  A    between atoms: C_11  and  C_13
REMARK    7  A    between atoms: C_15  and  C_16
REMARK    8  A    between atoms: C_25  and  N_26
REMARK    9  A    between atoms: N_29  and  C_30
REMARK   10  A    between atoms: C_33  and  N_34
REMARK                            x       y       z     vdW  Elec       q    Type
REMARK                         _______ _______ _______ _____ _____    ______ ____
ROOT
ATOM      1  N   UNL     1       1.870   7.789  21.235  0.00  0.00    +0.000 N 
ATOM      2  C   UNL     1       1.261   6.620  20.816  0.00  0.00    +0.000 C 
ATOM      3  O   UNL     1       0.046   6.438  20.864  0.00  0.00    +0.000 OA
ATOM      4  H   UNL     1       2.844   7.902  21.011  0.00  0.00    +0.000 HD
ENDROOT
BRANCH   1   6
ATOM      5  C   UNL     1       0.606   9.960  21.182  0.00  0.00    +0.000 A 
ATOM      6  C   UNL     1       1.171   8.845  21.813  0.00  0.00    +0.000 A 
ATOM      7  C   UNL     1       0.916   9.023  23.191  0.00  0.00    +0.000 A 
ATOM      8  N   UNL     1       0.285  10.160  23.456  0.00  0.00    +0.000 NA
ATOM      9  N   UNL     1       0.064  10.699  22.239  0.00  0.00    +0.000 N 
ATOM     10  C   UNL     1      -0.798  11.859  22.216  0.00  0.00    +0.000 C 
BRANCH   5  14
ATOM     11  C   UNL     1      -0.246  12.787  18.110  0.00  0.00    +0.000 C 
ATOM     12  C   UNL     1       0.945  12.574  19.051  0.00  0.00    +0.000 C 
ATOM     13  C   UNL     1       1.461  11.148  19.194  0.00  0.00    +0.000 C 
ATOM     14  N   UNL     1       0.470  10.287  19.841  0.00  0.00    +0.000 N 
ATOM     15  C   UNL     1      -0.422   9.553  18.935  0.00  0.00    +0.000 C 
ATOM     16  C   UNL     1      -1.073  10.412  17.859  0.00  0.00    +0.000 C 
ATOM     17  C   UNL     1      -1.428  11.806  18.378  0.00  0.00    +0.000 C 
BRANCH  17  18
ATOM     18  N   UNL     1      -2.672  12.254  17.714  0.00  0.00    +0.000 NA
ATOM     19  H   UNL     1      -2.412  12.782  16.879  0.00  0.00    +0.000 HD
ATOM     20  H   UNL     1      -3.071  12.976  18.320  0.00  0.00    +0.000 HD
ENDBRANCH  17  18
BRANCH  11  21
ATOM     21  O   UNL     1      -0.753  14.130  18.263  0.00  0.00    +0.000 OA
BRANCH  21  23
ATOM     22  C   UNL     1      -0.325  16.433  18.689  0.00  0.00    +0.000 C 
ATOM     23  C   UNL     1       0.161  15.016  18.903  0.00  0.00    +0.000 C 
ENDBRANCH  21  23
ENDBRANCH  11  21
ENDBRANCH   5  14
ENDBRANCH   1   6
BRANCH   2  24
ATOM     24  C   UNL     1       2.169   5.609  20.214  0.00  0.00    +0.000 A 
ATOM     25  N   UNL     1       3.302   5.950  19.436  0.00  0.00    +0.000 NA
ATOM     26  C   UNL     1       3.955   4.854  19.070  0.00  0.00    +0.000 A 
ATOM     27  S   UNL     1       3.317   3.400  19.746  0.00  0.00    +0.000 S 
ATOM     28  C   UNL     1       1.957   4.242  20.325  0.00  0.00    +0.000 A 
BRANCH  26  29
ATOM     29  C   UNL     1       5.128   4.767  18.176  0.00  0.00    +0.000 A 
ATOM     30  C   UNL     1       6.399   5.175  18.593  0.00  0.00    +0.000 A 
ATOM     31  F   UNL     1       6.597   5.628  19.840  0.00  0.00    +0.000 F 
ATOM     32  C   UNL     1       7.513   5.112  17.741  0.00  0.00    +0.000 A 
ATOM     33  C   UNL     1       7.380   4.632  16.438  0.00  0.00    +0.000 A 
ATOM     34  C   UNL     1       6.133   4.217  15.996  0.00  0.00    +0.000 A 
ATOM     35  C   UNL     1       5.031   4.291  16.853  0.00  0.00    +0.000 A 
ATOM     36  F   UNL     1       3.853   3.904  16.339  0.00  0.00    +0.000 F 
ENDBRANCH  26  29
BRANCH  28  37
ATOM     37  N   UNL     1       0.907   3.548  20.820  0.00  0.00    +0.000 N 
ATOM     38  H   UNL     1       0.440   3.884  21.658  0.00  0.00    +0.000 HD
ATOM     39  H   UNL     1       0.875   2.535  20.697  0.00  0.00    +0.000 HD
ENDBRANCH  28  37
ENDBRANCH   2  24
TORSDOF 8
ENDMDL
MODEL 2
REMARK VINA RESULT:      -7.4      0.083      1.420
REMARK  Name = 
REMARK  10 active torsions:
REMARK  status: ('A' for Active; 'I' for Inactive)
REMARK    1  A    between atoms: C_1  and  C_2
REMARK    2  A    between atoms: C_2  and  O_3
REMARK    3  A    between atoms: O_3  and  C_4
REMARK    4  A    between atoms: N_7  and  C_8
REMARK    5  A    between atoms: C_9  and  N_10
REMARK    6  A    between atoms: C_11  and  C_13
REMARK    7  A    between atoms: C_15  and  C_16
REMARK    8  A    between atoms: C_25  and  N_26
REMARK    9  A    between atoms: N_29  and  C_30
REMARK   10  A    between atoms: C_33  and  N_34
REMARK                            x       y       z     vdW  Elec       q    Type
REMARK                         _______ _______ _______ _____ _____    ______ ____
ROOT
ATOM      1  N   UNL     1       1.859   7.783  21.242  0.00  0.00    +0.000 N 
ATOM      2  C   UNL     1       1.256   6.612  20.820  0.00  0.00    +0.000 C 
ATOM      3  O   UNL     1       0.042   6.427  20.859  0.00  0.00    +0.000 OA
ATOM      4  H   UNL     1       2.834   7.899  21.025  0.00  0.00    +0.000 HD
ENDROOT
BRANCH   1   6
ATOM      5  C   UNL     1       0.577   9.944  21.181  0.00  0.00    +0.000 A 
ATOM      6  C   UNL     1       1.154   8.837  21.817  0.00  0.00    +0.000 A 
ATOM      7  C   UNL     1       0.901   9.021  23.194  0.00  0.00    +0.000 A 
ATOM      8  N   UNL     1       0.262  10.155  23.455  0.00  0.00    +0.000 NA
ATOM      9  N   UNL     1       0.033  10.685  22.235  0.00  0.00    +0.000 N 
ATOM     10  C   UNL     1      -0.838  11.838  22.208  0.00  0.00    +0.000 C 
BRANCH   5  14
ATOM     11  C   UNL     1      -0.282  12.753  18.094  0.00  0.00    +0.000 C 
ATOM     12  C   UNL     1       0.915  12.542  19.030  0.00  0.00    +0.000 C 
ATOM     13  C   UNL     1       1.426  11.115  19.179  0.00  0.00    +0.000 C 
ATOM     14  N   UNL     1       0.435  10.262  19.838  0.00  0.00    +0.000 N 
ATOM     15  C   UNL     1      -0.464   9.525  18.943  0.00  0.00    +0.000 C 
ATOM     16  C   UNL     1      -1.118  10.379  17.864  0.00  0.00    +0.000 C 
ATOM     17  C   UNL     1      -1.465  11.778  18.375  0.00  0.00    +0.000 C 
BRANCH  17  18
ATOM     18  N   UNL     1      -2.711  12.226  17.715  0.00  0.00    +0.000 NA
ATOM     19  H   UNL     1      -3.501  11.843  18.236  0.00  0.00    +0.000 HD
ATOM     20  H   UNL     1      -2.760  11.718  16.828  0.00  0.00    +0.000 HD
ENDBRANCH  17  18
BRANCH  11  21
ATOM     21  O   UNL     1      -0.783  14.098  18.241  0.00  0.00    +0.000 OA
BRANCH  21  23
ATOM     22  C   UNL     1      -0.132  16.334  18.740  0.00  0.00    +0.000 C 
ATOM     23  C   UNL     1      -0.044  14.885  19.171  0.00  0.00    +0.000 C 
ENDBRANCH  21  23
ENDBRANCH  11  21
ENDBRANCH   5  14
ENDBRANCH   1   6
BRANCH   2  24
ATOM     24  C   UNL     1       2.171   5.605  20.223  0.00  0.00    +0.000 A 
ATOM     25  N   UNL     1       3.293   5.949  19.430  0.00  0.00    +0.000 NA
ATOM     26  C   UNL     1       3.956   4.855  19.073  0.00  0.00    +0.000 A 
ATOM     27  S   UNL     1       3.341   3.404  19.774  0.00  0.00    +0.000 S 
ATOM     28  C   UNL     1       1.977   4.237  20.354  0.00  0.00    +0.000 A 
BRANCH  26  29
ATOM     29  C   UNL     1       5.123   4.771  18.170  0.00  0.00    +0.000 A 
ATOM     30  C   UNL     1       5.005   4.291  16.862  0.00  0.00    +0.000 A 
ATOM     31  F   UNL     1       3.811   3.923  16.374  0.00  0.00    +0.000 F 
ATOM     32  C   UNL     1       6.114   4.192  16.008  0.00  0.00    +0.000 A 
ATOM     33  C   UNL     1       7.381   4.576  16.446  0.00  0.00    +0.000 A 
ATOM     34  C   UNL     1       7.530   5.060  17.738  0.00  0.00    +0.000 A 
ATOM     35  C   UNL     1       6.419   5.146  18.580  0.00  0.00    +0.000 A 
ATOM     36  F   UNL     1       6.652   5.590  19.825  0.00  0.00    +0.000 F 
ENDBRANCH  26  29
BRANCH  28  37
ATOM     37  N   UNL     1       0.939   3.538  20.867  0.00  0.00    +0.000 N 
ATOM     38  H   UNL     1       1.126   2.773  21.509  0.00  0.00    +0.000 HD
ATOM     39  H   UNL     1       0.089   3.425  20.313  0.00  0.00    +0.000 HD
ENDBRANCH  28  37
ENDBRANCH   2  24
TORSDOF 8
ENDMDL
MODEL 3
REMARK VINA RESULT:      -7.4      3.637      9.107
REMARK  Name = 
REMARK  10 active torsions:
REMARK  status: ('A' for Active; 'I' for Inactive)
REMARK    1  A    between atoms: C_1  and  C_2
REMARK    2  A    between atoms: C_2  and  O_3
REMARK    3  A    between atoms: O_3  and  C_4
REMARK    4  A    between atoms: N_7  and  C_8
REMARK    5  A    between atoms: C_9  and  N_10
REMARK    6  A    between atoms: C_11  and  C_13
REMARK    7  A    between atoms: C_15  and  C_16
REMARK    8  A    between atoms: C_25  and  N_26
REMARK    9  A    between atoms: N_29  and  C_30
REMARK   10  A    between atoms: C_33  and  N_34
REMARK                            x       y       z     vdW  Elec       q    Type
REMARK                         _______ _______ _______ _____ _____    ______ ____
ROOT
ATOM      1  N   UNL     1       1.901   6.792  19.672  0.00  0.00    +0.000 N 
ATOM      2  C   UNL     1       1.716   7.892  18.855  0.00  0.00    +0.000 C 
ATOM      3  O   UNL     1       1.712   7.826  17.627  0.00  0.00    +0.000 OA
ATOM      4  H   UNL     1       1.732   6.920  20.655  0.00  0.00    +0.000 HD
ENDROOT
BRANCH   1   6
ATOM      5  C   UNL     1       3.339   5.053  18.565  0.00  0.00    +0.000 A 
ATOM      6  C   UNL     1       2.170   5.517  19.182  0.00  0.00    +0.000 A 
ATOM      7  C   UNL     1       1.283   4.418  19.179  0.00  0.00    +0.000 A 
ATOM      8  N   UNL     1       1.790   3.346  18.583  0.00  0.00    +0.000 NA
ATOM      9  N   UNL     1       3.043   3.722  18.253  0.00  0.00    +0.000 N 
ATOM     10  C   UNL     1       3.904   2.669  17.765  0.00  0.00    +0.000 C 
BRANCH   5  14
ATOM     11  C   UNL     1       6.909   5.550  16.292  0.00  0.00    +0.000 C 
ATOM     12  C   UNL     1       5.453   5.984  16.084  0.00  0.00    +0.000 C 
ATOM     13  C   UNL     1       4.748   6.619  17.277  0.00  0.00    +0.000 C 
ATOM     14  N   UNL     1       4.573   5.654  18.364  0.00  0.00    +0.000 N 
ATOM     15  C   UNL     1       5.632   5.643  19.380  0.00  0.00    +0.000 C 
ATOM     16  C   UNL     1       7.045   5.570  18.816  0.00  0.00    +0.000 C 
ATOM     17  C   UNL     1       7.118   4.684  17.572  0.00  0.00    +0.000 C 
BRANCH  17  18
ATOM     18  N   UNL     1       8.428   3.997  17.557  0.00  0.00    +0.000 NA
ATOM     19  H   UNL     1       8.749   3.946  16.590  0.00  0.00    +0.000 HD
ATOM     20  H   UNL     1       8.236   3.017  17.781  0.00  0.00    +0.000 HD
ENDBRANCH  17  18
BRANCH  11  21
ATOM     21  O   UNL     1       7.350   4.769  15.162  0.00  0.00    +0.000 OA
BRANCH  21  23
ATOM     22  C   UNL     1       6.563   3.901  13.089  0.00  0.00    +0.000 C 
ATOM     23  C   UNL     1       6.321   3.972  14.581  0.00  0.00    +0.000 C 
ENDBRANCH  21  23
ENDBRANCH  11  21
ENDBRANCH   5  14
ENDBRANCH   1   6
BRANCH   2  24
ATOM     24  C   UNL     1       1.430   9.168  19.559  0.00  0.00    +0.000 A 
ATOM     25  N   UNL     1       1.359  10.419  18.900  0.00  0.00    +0.000 NA
ATOM     26  C   UNL     1       1.041  11.376  19.763  0.00  0.00    +0.000 A 
ATOM     27  S   UNL     1       0.693  10.800  21.351  0.00  0.00    +0.000 S 
ATOM     28  C   UNL     1       1.254   9.249  20.933  0.00  0.00    +0.000 A 
BRANCH  26  29
ATOM     29  C   UNL     1       0.961  12.828  19.500  0.00  0.00    +0.000 A 
ATOM     30  C   UNL     1       1.943  13.712  19.957  0.00  0.00    +0.000 A 
ATOM     31  F   UNL     1       3.015  13.258  20.624  0.00  0.00    +0.000 F 
ATOM     32  C   UNL     1       1.861  15.094  19.726  0.00  0.00    +0.000 A 
ATOM     33  C   UNL     1       0.783  15.630  19.022  0.00  0.00    +0.000 A 
ATOM     34  C   UNL     1      -0.207  14.779  18.552  0.00  0.00    +0.000 A 
ATOM     35  C   UNL     1      -0.116  13.406  18.796  0.00  0.00    +0.000 A 
ATOM     36  F   UNL     1      -1.130  12.654  18.341  0.00  0.00    +0.000 F 
ENDBRANCH  26  29
BRANCH  28  37
ATOM     37  N   UNL     1       1.429   8.322  21.903  0.00  0.00    +0.000 N 
ATOM     38  H   UNL     1       0.881   8.387  22.756  0.00  0.00    +0.000 HD
ATOM     39  H   UNL     1       2.347   7.891  22.022  0.00  0.00    +0.000 HD
ENDBRANCH  28  37
ENDBRANCH   2  24
TORSDOF 8
ENDMDL
MODEL 4
REMARK VINA RESULT:      -7.4      3.632      9.206
REMARK  Name = 
REMARK  10 active torsions:
REMARK  status: ('A' for Active; 'I' for Inactive)
REMARK    1  A    between atoms: C_1  and  C_2
REMARK    2  A    between atoms: C_2  and  O_3
REMARK    3  A    between atoms: O_3  and  C_4
REMARK    4  A    between atoms: N_7  and  C_8
REMARK    5  A    between atoms: C_9  and  N_10
REMARK    6  A    between atoms: C_11  and  C_13
REMARK    7  A    between atoms: C_15  and  C_16
REMARK    8  A    between atoms: C_25  and  N_26
REMARK    9  A    between atoms: N_29  and  C_30
REMARK   10  A    between atoms: C_33  and  N_34
REMARK                            x       y       z     vdW  Elec       q    Type
REMARK                         _______ _______ _______ _____ _____    ______ ____
ROOT
ATOM      1  N   UNL     1       1.922   6.790  19.689  0.00  0.00    +0.000 N 
ATOM      2  C   UNL     1       1.694   7.883  18.872  0.00  0.00    +0.000 C 
ATOM      3  O   UNL     1       1.646   7.809  17.646  0.00  0.00    +0.000 OA
ATOM      4  H   UNL     1       1.788   6.922  20.676  0.00  0.00    +0.000 HD
ENDROOT
BRANCH   1   6
ATOM      5  C   UNL     1       3.348   5.053  18.564  0.00  0.00    +0.000 A 
ATOM      6  C   UNL     1       2.187   5.515  19.196  0.00  0.00    +0.000 A 
ATOM      7  C   UNL     1       1.302   4.414  19.207  0.00  0.00    +0.000 A 
ATOM      8  N   UNL     1       1.803   3.343  18.605  0.00  0.00    +0.000 NA
ATOM      9  N   UNL     1       3.051   3.721  18.257  0.00  0.00    +0.000 N 
ATOM     10  C   UNL     1       3.907   2.669  17.759  0.00  0.00    +0.000 C 
BRANCH   5  14
ATOM     11  C   UNL     1       6.911   5.514  16.273  0.00  0.00    +0.000 C 
ATOM     12  C   UNL     1       5.452   5.933  16.056  0.00  0.00    +0.000 C 
ATOM     13  C   UNL     1       4.745   6.594  17.233  0.00  0.00    +0.000 C 
ATOM     14  N   UNL     1       4.578   5.657  18.345  0.00  0.00    +0.000 N 
ATOM     15  C   UNL     1       5.639   5.679  19.359  0.00  0.00    +0.000 C 
ATOM     16  C   UNL     1       7.051   5.600  18.794  0.00  0.00    +0.000 C 
ATOM     17  C   UNL     1       7.128   4.683  17.573  0.00  0.00    +0.000 C 
BRANCH  17  18
ATOM     18  N   UNL     1       8.443   4.004  17.575  0.00  0.00    +0.000 NA
ATOM     19  H   UNL     1       9.169   4.719  17.527  0.00  0.00    +0.000 HD
ATOM     20  H   UNL     1       8.523   3.542  16.665  0.00  0.00    +0.000 HD
ENDBRANCH  17  18
BRANCH  11  21
ATOM     21  O   UNL     1       7.355   4.706  15.162  0.00  0.00    +0.000 OA
BRANCH  21  23
ATOM     22  C   UNL     1       6.568   3.914  13.059  0.00  0.00    +0.000 C 
ATOM     23  C   UNL     1       6.313   3.952  14.550  0.00  0.00    +0.000 C 
ENDBRANCH  21  23
ENDBRANCH  11  21
ENDBRANCH   5  14
ENDBRANCH   1   6
BRANCH   2  24
ATOM     24  C   UNL     1       1.420   9.160  19.579  0.00  0.00    +0.000 A 
ATOM     25  N   UNL     1       1.337  10.410  18.919  0.00  0.00    +0.000 NA
ATOM     26  C   UNL     1       1.034  11.369  19.786  0.00  0.00    +0.000 A 
ATOM     27  S   UNL     1       0.714  10.795  21.381  0.00  0.00    +0.000 S 
ATOM     28  C   UNL     1       1.268   9.243  20.956  0.00  0.00    +0.000 A 
BRANCH  26  29
ATOM     29  C   UNL     1       0.949  12.820  19.522  0.00  0.00    +0.000 A 
ATOM     30  C   UNL     1      -0.106  13.371  18.788  0.00  0.00    +0.000 A 
ATOM     31  F   UNL     1      -1.098  12.595  18.328  0.00  0.00    +0.000 F 
ATOM     32  C   UNL     1      -0.180  14.747  18.519  0.00  0.00    +0.000 A 
ATOM     33  C   UNL     1       0.808  15.613  18.985  0.00  0.00    +0.000 A 
ATOM     34  C   UNL     1       1.866  15.098  19.719  0.00  0.00    +0.000 A 
ATOM     35  C   UNL     1       1.932  13.725  19.974  0.00  0.00    +0.000 A 
ATOM     36  F   UNL     1       3.004  13.300  20.660  0.00  0.00    +0.000 F 
ENDBRANCH  26  29
BRANCH  28  37
ATOM     37  N   UNL     1       1.460   8.319  21.924  0.00  0.00    +0.000 N 
ATOM     38  H   UNL     1       1.663   7.359  21.660  0.00  0.00    +0.000 HD
ATOM     39  H   UNL     1       0.969   8.417  22.814  0.00  0.00    +0.000 HD
ENDBRANCH  28  37
ENDBRANCH   2  24
TORSDOF 8
ENDMDL
MODEL 5
REMARK VINA RESULT:      -7.3      3.860      9.498
REMARK  Name = 
REMARK  10 active torsions:
REMARK  status: ('A' for Active; 'I' for Inactive)
REMARK    1  A    between atoms: C_1  and  C_2
REMARK    2  A    between atoms: C_2  and  O_3
REMARK    3  A    between atoms: O_3  and  C_4
REMARK    4  A    between atoms: N_7  and  C_8
REMARK    5  A    between atoms: C_9  and  N_10
REMARK    6  A    between atoms: C_11  and  C_13
REMARK    7  A    between atoms: C_15  and  C_16
REMARK    8  A    between atoms: C_25  and  N_26
REMARK    9  A    between atoms: N_29  and  C_30
REMARK   10  A    between atoms: C_33  and  N_34
REMARK                            x       y       z     vdW  Elec       q    Type
REMARK                         _______ _______ _______ _____ _____    ______ ____
ROOT
ATOM      1  N   UNL     1       1.512   6.627  18.427  0.00  0.00    +0.000 N 
ATOM      2  C   UNL     1       1.756   7.306  19.607  0.00  0.00    +0.000 C 
ATOM      3  O   UNL     1       2.418   6.837  20.530  0.00  0.00    +0.000 OA
ATOM      4  H   UNL     1       1.096   7.151  17.676  0.00  0.00    +0.000 HD
ENDROOT
BRANCH   1   6
ATOM      5  C   UNL     1       3.235   4.860  17.956  0.00  0.00    +0.000 A 
ATOM      6  C   UNL     1       1.934   5.320  18.200  0.00  0.00    +0.000 A 
ATOM      7  C   UNL     1       1.112   4.175  18.136  0.00  0.00    +0.000 A 
ATOM      8  N   UNL     1       1.785   3.071  17.837  0.00  0.00    +0.000 NA
ATOM      9  N   UNL     1       3.068   3.482  17.771  0.00  0.00    +0.000 N 
ATOM     10  C   UNL     1       4.057   2.434  17.659  0.00  0.00    +0.000 C 
BRANCH   5  14
ATOM     11  C   UNL     1       7.095   5.577  16.301  0.00  0.00    +0.000 C 
ATOM     12  C   UNL     1       5.674   5.971  15.881  0.00  0.00    +0.000 C 
ATOM     13  C   UNL     1       4.766   6.527  16.971  0.00  0.00    +0.000 C 
ATOM     14  N   UNL     1       4.460   5.510  17.978  0.00  0.00    +0.000 N 
ATOM     15  C   UNL     1       5.345   5.487  19.148  0.00  0.00    +0.000 C 
ATOM     16  C   UNL     1       6.832   5.486  18.813  0.00  0.00    +0.000 C 
ATOM     17  C   UNL     1       7.135   4.661  17.562  0.00  0.00    +0.000 C 
BRANCH  17  18
ATOM     18  N   UNL     1       8.457   4.019  17.729  0.00  0.00    +0.000 NA
ATOM     19  H   UNL     1       8.759   3.674  16.817  0.00  0.00    +0.000 HD
ATOM     20  H   UNL     1       8.288   3.154  18.251  0.00  0.00    +0.000 HD
ENDBRANCH  17  18
BRANCH  11  21
ATOM     21  O   UNL     1       7.739   4.863  15.225  0.00  0.00    +0.000 OA
BRANCH  21  23
ATOM     22  C   UNL     1       7.841   5.205  12.871  0.00  0.00    +0.000 C 
ATOM     23  C   UNL     1       6.960   4.800  14.034  0.00  0.00    +0.000 C 
ENDBRANCH  21  23
ENDBRANCH  11  21
ENDBRANCH   5  14
ENDBRANCH   1   6
BRANCH   2  24
ATOM     24  C   UNL     1       1.235   8.696  19.661  0.00  0.00    +0.000 A 
ATOM     25  N   UNL     1       0.250   9.120  20.587  0.00  0.00    +0.000 NA
ATOM     26  C   UNL     1       0.012  10.418  20.443  0.00  0.00    +0.000 A 
ATOM     27  S   UNL     1       1.038  11.195  19.294  0.00  0.00    +0.000 S 
ATOM     28  C   UNL     1       1.635   9.688  18.778  0.00  0.00    +0.000 A 
BRANCH  26  29
ATOM     29  C   UNL     1      -1.009  11.224  21.145  0.00  0.00    +0.000 A 
ATOM     30  C   UNL     1      -1.899  12.047  20.449  0.00  0.00    +0.000 A 
ATOM     31  F   UNL     1      -1.875  12.103  19.109  0.00  0.00    +0.000 F 
ATOM     32  C   UNL     1      -2.857  12.829  21.114  0.00  0.00    +0.000 A 
ATOM     33  C   UNL     1      -2.949  12.803  22.505  0.00  0.00    +0.000 A 
ATOM     34  C   UNL     1      -2.082  11.993  23.224  0.00  0.00    +0.000 A 
ATOM     35  C   UNL     1      -1.128  11.226  22.550  0.00  0.00    +0.000 A 
ATOM     36  F   UNL     1      -0.303  10.497  23.318  0.00  0.00    +0.000 F 
ENDBRANCH  26  29
BRANCH  28  37
ATOM     37  N   UNL     1       2.400   9.623  17.664  0.00  0.00    +0.000 N 
ATOM     38  H   UNL     1       2.219   8.896  16.979  0.00  0.00    +0.000 HD
ATOM     39  H   UNL     1       3.374   9.928  17.708  0.00  0.00    +0.000 HD
ENDBRANCH  28  37
ENDBRANCH   2  24
TORSDOF 8
ENDMDL
MODEL 6
REMARK VINA RESULT:      -7.2      3.831      9.435
REMARK  Name = 
REMARK  10 active torsions:
REMARK  status: ('A' for Active; 'I' for Inactive)
REMARK    1  A    between atoms: C_1  and  C_2
REMARK    2  A    between atoms: C_2  and  O_3
REMARK    3  A    between atoms: O_3  and  C_4
REMARK    4  A    between atoms: N_7  and  C_8
REMARK    5  A    between atoms: C_9  and  N_10
REMARK    6  A    between atoms: C_11  and  C_13
REMARK    7  A    between atoms: C_15  and  C_16
REMARK    8  A    between atoms: C_25  and  N_26
REMARK    9  A    between atoms: N_29  and  C_30
REMARK   10  A    between atoms: C_33  and  N_34
REMARK                            x       y       z     vdW  Elec       q    Type
REMARK                         _______ _______ _______ _____ _____    ______ ____
ROOT
ATOM      1  N   UNL     1       1.519   6.567  18.776  0.00  0.00    +0.000 N 
ATOM      2  C   UNL     1       1.678   7.306  19.933  0.00  0.00    +0.000 C 
ATOM      3  O   UNL     1       2.271   6.886  20.925  0.00  0.00    +0.000 OA
ATOM      4  H   UNL     1       1.159   7.051  17.971  0.00  0.00    +0.000 HD
ENDROOT
BRANCH   1   6
ATOM      5  C   UNL     1       3.243   4.790  18.348  0.00  0.00    +0.000 A 
ATOM      6  C   UNL     1       1.955   5.251  18.647  0.00  0.00    +0.000 A 
ATOM      7  C   UNL     1       1.158   4.091  18.763  0.00  0.00    +0.000 A 
ATOM      8  N   UNL     1       1.833   2.974  18.523  0.00  0.00    +0.000 NA
ATOM      9  N   UNL     1       3.097   3.398  18.316  0.00  0.00    +0.000 N 
ATOM     10  C   UNL     1       4.100   2.361  18.231  0.00  0.00    +0.000 C 
BRANCH   5  14
ATOM     11  C   UNL     1       6.875   5.509  16.240  0.00  0.00    +0.000 C 
ATOM     12  C   UNL     1       5.409   5.866  15.973  0.00  0.00    +0.000 C 
ATOM     13  C   UNL     1       4.620   6.446  17.141  0.00  0.00    +0.000 C 
ATOM     14  N   UNL     1       4.451   5.459  18.209  0.00  0.00    +0.000 N 
ATOM     15  C   UNL     1       5.463   5.491  19.270  0.00  0.00    +0.000 C 
ATOM     16  C   UNL     1       6.902   5.502  18.767  0.00  0.00    +0.000 C 
ATOM     17  C   UNL     1       7.077   4.638  17.518  0.00  0.00    +0.000 C 
BRANCH  17  18
ATOM     18  N   UNL     1       8.421   4.023  17.553  0.00  0.00    +0.000 NA
ATOM     19  H   UNL     1       9.002   4.567  18.193  0.00  0.00    +0.000 HD
ATOM     20  H   UNL     1       8.847   4.219  16.643  0.00  0.00    +0.000 HD
ENDBRANCH  17  18
BRANCH  11  21
ATOM     21  O   UNL     1       7.407   4.768  15.121  0.00  0.00    +0.000 OA
BRANCH  21  23
ATOM     22  C   UNL     1       6.707   3.995  12.981  0.00  0.00    +0.000 C 
ATOM     23  C   UNL     1       6.442   3.946  14.470  0.00  0.00    +0.000 C 
ENDBRANCH  21  23
ENDBRANCH  11  21
ENDBRANCH   5  14
ENDBRANCH   1   6
BRANCH   2  24
ATOM     24  C   UNL     1       1.156   8.696  19.878  0.00  0.00    +0.000 A 
ATOM     25  N   UNL     1       0.183   9.195  20.778  0.00  0.00    +0.000 NA
ATOM     26  C   UNL     1      -0.059  10.477  20.529  0.00  0.00    +0.000 A 
ATOM     27  S   UNL     1       0.953  11.156  19.308  0.00  0.00    +0.000 S 
ATOM     28  C   UNL     1       1.546   9.611  18.911  0.00  0.00    +0.000 A 
BRANCH  26  29
ATOM     29  C   UNL     1      -1.071  11.339  21.173  0.00  0.00    +0.000 A 
ATOM     30  C   UNL     1      -1.227  11.373  22.562  0.00  0.00    +0.000 A 
ATOM     31  F   UNL     1      -0.432  10.644  23.359  0.00  0.00    +0.000 F 
ATOM     32  C   UNL     1      -2.201  12.176  23.178  0.00  0.00    +0.000 A 
ATOM     33  C   UNL     1      -3.048  12.974  22.409  0.00  0.00    +0.000 A 
ATOM     34  C   UNL     1      -2.916  12.965  21.028  0.00  0.00    +0.000 A 
ATOM     35  C   UNL     1      -1.948  12.155  20.429  0.00  0.00    +0.000 A 
ATOM     36  F   UNL     1      -1.906  12.175  19.087  0.00  0.00    +0.000 F 
ENDBRANCH  26  29
BRANCH  28  37
ATOM     37  N   UNL     1       2.297   9.454  17.798  0.00  0.00    +0.000 N 
ATOM     38  H   UNL     1       2.651   8.531  17.564  0.00  0.00    +0.000 HD
ATOM     39  H   UNL     1       2.886  10.225  17.479  0.00  0.00    +0.000 HD
ENDBRANCH  28  37
ENDBRANCH   2  24
TORSDOF 8
ENDMDL
MODEL 7
REMARK VINA RESULT:      -7.1      3.788      9.418
REMARK  Name = 
REMARK  10 active torsions:
REMARK  status: ('A' for Active; 'I' for Inactive)
REMARK    1  A    between atoms: C_1  and  C_2
REMARK    2  A    between atoms: C_2  and  O_3
REMARK    3  A    between atoms: O_3  and  C_4
REMARK    4  A    between atoms: N_7  and  C_8
REMARK    5  A    between atoms: C_9  and  N_10
REMARK    6  A    between atoms: C_11  and  C_13
REMARK    7  A    between atoms: C_15  and  C_16
REMARK    8  A    between atoms: C_25  and  N_26
REMARK    9  A    between atoms: N_29  and  C_30
REMARK   10  A    between atoms: C_33  and  N_34
REMARK                            x       y       z     vdW  Elec       q    Type
REMARK                         _______ _______ _______ _____ _____    ______ ____
ROOT
ATOM      1  N   UNL     1       1.876   7.013  19.732  0.00  0.00    +0.000 N 
ATOM      2  C   UNL     1       1.562   7.884  18.705  0.00  0.00    +0.000 C 
ATOM      3  O   UNL     1       1.492   7.541  17.527  0.00  0.00    +0.000 OA
ATOM      4  H   UNL     1       1.755   7.350  20.671  0.00  0.00    +0.000 HD
ENDROOT
BRANCH   1   6
ATOM      5  C   UNL     1       3.377   5.157  18.944  0.00  0.00    +0.000 A 
ATOM      6  C   UNL     1       2.211   5.678  19.521  0.00  0.00    +0.000 A 
ATOM      7  C   UNL     1       1.408   4.556  19.822  0.00  0.00    +0.000 A 
ATOM      8  N   UNL     1       1.960   3.409  19.446  0.00  0.00    +0.000 NA
ATOM      9  N   UNL     1       3.163   3.774  18.957  0.00  0.00    +0.000 N 
ATOM     10  C   UNL     1       4.071   2.691  18.658  0.00  0.00    +0.000 C 
BRANCH   5  14
ATOM     11  C   UNL     1       6.607   5.533  16.191  0.00  0.00    +0.000 C 
ATOM     12  C   UNL     1       5.121   5.907  16.136  0.00  0.00    +0.000 C 
ATOM     13  C   UNL     1       4.550   6.632  17.349  0.00  0.00    +0.000 C 
ATOM     14  N   UNL     1       4.552   5.769  18.531  0.00  0.00    +0.000 N 
ATOM     15  C   UNL     1       5.730   5.881  19.398  0.00  0.00    +0.000 C 
ATOM     16  C   UNL     1       7.062   5.793  18.663  0.00  0.00    +0.000 C 
ATOM     17  C   UNL     1       7.011   4.797  17.505  0.00  0.00    +0.000 C 
BRANCH  17  18
ATOM     18  N   UNL     1       8.334   4.146  17.382  0.00  0.00    +0.000 NA
ATOM     19  H   UNL     1       8.760   4.118  18.309  0.00  0.00    +0.000 HD
ATOM     20  H   UNL     1       8.930   4.810  16.882  0.00  0.00    +0.000 HD
ENDBRANCH  17  18
BRANCH  11  21
ATOM     21  O   UNL     1       6.931   4.662  15.087  0.00  0.00    +0.000 OA
BRANCH  21  23
ATOM     22  C   UNL     1       6.149   3.695  13.056  0.00  0.00    +0.000 C 
ATOM     23  C   UNL     1       5.791   4.060  14.481  0.00  0.00    +0.000 C 
ENDBRANCH  21  23
ENDBRANCH  11  21
ENDBRANCH   5  14
ENDBRANCH   1   6
BRANCH   2  24
ATOM     24  C   UNL     1       1.222   9.268  19.126  0.00  0.00    +0.000 A 
ATOM     25  N   UNL     1       0.228   9.563  20.091  0.00  0.00    +0.000 NA
ATOM     26  C   UNL     1       0.173  10.872  20.307  0.00  0.00    +0.000 A 
ATOM     27  S   UNL     1       1.382  11.773  19.469  0.00  0.00    +0.000 S 
ATOM     28  C   UNL     1       1.819  10.393  18.576  0.00  0.00    +0.000 A 
BRANCH  26  29
ATOM     29  C   UNL     1      -0.789  11.598  21.164  0.00  0.00    +0.000 A 
ATOM     30  C   UNL     1      -1.627  12.590  20.647  0.00  0.00    +0.000 A 
ATOM     31  F   UNL     1      -1.606  12.891  19.340  0.00  0.00    +0.000 F 
ATOM     32  C   UNL     1      -2.528  13.295  21.461  0.00  0.00    +0.000 A 
ATOM     33  C   UNL     1      -2.614  13.018  22.825  0.00  0.00    +0.000 A 
ATOM     34  C   UNL     1      -1.798  12.036  23.367  0.00  0.00    +0.000 A 
ATOM     35  C   UNL     1      -0.900  11.347  22.547  0.00  0.00    +0.000 A 
ATOM     36  F   UNL     1      -0.121  10.438  23.153  0.00  0.00    +0.000 F 
ENDBRANCH  26  29
BRANCH  28  37
ATOM     37  N   UNL     1       2.658  10.522  17.523  0.00  0.00    +0.000 N 
ATOM     38  H   UNL     1       3.642  10.298  17.641  0.00  0.00    +0.000 HD
ATOM     39  H   UNL     1       2.470  11.238  16.819  0.00  0.00    +0.000 HD
ENDBRANCH  28  37
ENDBRANCH   2  24
TORSDOF 8
ENDMDL
MODEL 8
REMARK VINA RESULT:      -7.0      3.773      9.518
REMARK  Name = 
REMARK  10 active torsions:
REMARK  status: ('A' for Active; 'I' for Inactive)
REMARK    1  A    between atoms: C_1  and  C_2
REMARK    2  A    between atoms: C_2  and  O_3
REMARK    3  A    between atoms: O_3  and  C_4
REMARK    4  A    between atoms: N_7  and  C_8
REMARK    5  A    between atoms: C_9  and  N_10
REMARK    6  A    between atoms: C_11  and  C_13
REMARK    7  A    between atoms: C_15  and  C_16
REMARK    8  A    between atoms: C_25  and  N_26
REMARK    9  A    between atoms: N_29  and  C_30
REMARK   10  A    between atoms: C_33  and  N_34
REMARK                            x       y       z     vdW  Elec       q    Type
REMARK                         _______ _______ _______ _____ _____    ______ ____
ROOT
ATOM      1  N   UNL     1       1.591   6.730  19.438  0.00  0.00    +0.000 N 
ATOM      2  C   UNL     1       1.574   7.705  20.419  0.00  0.00    +0.000 C 
ATOM      3  O   UNL     1       2.064   7.547  21.535  0.00  0.00    +0.000 OA
ATOM      4  H   UNL     1       1.306   7.006  18.514  0.00  0.00    +0.000 HD
ENDROOT
BRANCH   1   6
ATOM      5  C   UNL     1       3.341   4.938  19.235  0.00  0.00    +0.000 A 
ATOM      6  C   UNL     1       2.104   5.452  19.645  0.00  0.00    +0.000 A 
ATOM      7  C   UNL     1       1.450   4.384  20.296  0.00  0.00    +0.000 A 
ATOM      8  N   UNL     1       2.158   3.261  20.284  0.00  0.00    +0.000 NA
ATOM      9  N   UNL     1       3.312   3.612  19.681  0.00  0.00    +0.000 N 
ATOM     10  C   UNL     1       4.363   2.621  19.714  0.00  0.00    +0.000 C 
BRANCH   5  14
ATOM     11  C   UNL     1       6.356   5.011  16.224  0.00  0.00    +0.000 C 
ATOM     12  C   UNL     1       4.843   5.260  16.213  0.00  0.00    +0.000 C 
ATOM     13  C   UNL     1       4.287   6.161  17.309  0.00  0.00    +0.000 C 
ATOM     14  N   UNL     1       4.433   5.543  18.628  0.00  0.00    +0.000 N 
ATOM     15  C   UNL     1       5.648   5.902  19.368  0.00  0.00    +0.000 C 
ATOM     16  C   UNL     1       6.936   5.770  18.564  0.00  0.00    +0.000 C 
ATOM     17  C   UNL     1       6.899   4.570  17.617  0.00  0.00    +0.000 C 
BRANCH  17  18
ATOM     18  N   UNL     1       8.262   4.004  17.518  0.00  0.00    +0.000 NA
ATOM     19  H   UNL     1       8.694   4.366  16.667  0.00  0.00    +0.000 HD
ATOM     20  H   UNL     1       8.141   3.011  17.303  0.00  0.00    +0.000 HD
ENDBRANCH  17  18
BRANCH  11  21
ATOM     21  O   UNL     1       6.684   3.970  15.280  0.00  0.00    +0.000 OA
BRANCH  21  23
ATOM     22  C   UNL     1       5.964   3.677  13.030  0.00  0.00    +0.000 C 
ATOM     23  C   UNL     1       6.885   4.446  13.952  0.00  0.00    +0.000 C 
ENDBRANCH  21  23
ENDBRANCH  11  21
ENDBRANCH   5  14
ENDBRANCH   1   6
BRANCH   2  24
ATOM     24  C   UNL     1       0.993   9.010  20.010  0.00  0.00    +0.000 A 
ATOM     25  N   UNL     1      -0.056   9.647  20.715  0.00  0.00    +0.000 NA
ATOM     26  C   UNL     1      -0.340  10.818  20.157  0.00  0.00    +0.000 A 
ATOM     27  S   UNL     1       0.714  11.251  18.862  0.00  0.00    +0.000 S 
ATOM     28  C   UNL     1       1.400   9.694  18.873  0.00  0.00    +0.000 A 
BRANCH  26  29
ATOM     29  C   UNL     1      -1.429  11.746  20.528  0.00  0.00    +0.000 A 
ATOM     30  C   UNL     1      -2.545  11.933  19.706  0.00  0.00    +0.000 A 
ATOM     31  F   UNL     1      -2.675  11.244  18.563  0.00  0.00    +0.000 F 
ATOM     32  C   UNL     1      -3.572  12.828  20.046  0.00  0.00    +0.000 A 
ATOM     33  C   UNL     1      -3.508  13.561  21.230  0.00  0.00    +0.000 A 
ATOM     34  C   UNL     1      -2.416  13.395  22.069  0.00  0.00    +0.000 A 
ATOM     35  C   UNL     1      -1.397  12.506  21.715  0.00  0.00    +0.000 A 
ATOM     36  F   UNL     1      -0.358  12.428  22.561  0.00  0.00    +0.000 F 
ENDBRANCH  26  29
BRANCH  28  37
ATOM     37  N   UNL     1       2.225   9.325  17.868  0.00  0.00    +0.000 N 
ATOM     38  H   UNL     1       1.996   8.506  17.312  0.00  0.00    +0.000 HD
ATOM     39  H   UNL     1       3.226   9.514  17.948  0.00  0.00    +0.000 HD
ENDBRANCH  28  37
ENDBRANCH   2  24
TORSDOF 8
ENDMDL
MODEL 9
REMARK VINA RESULT:      -7.0      2.268      3.535
REMARK  Name = 
REMARK  10 active torsions:
REMARK  status: ('A' for Active; 'I' for Inactive)
REMARK    1  A    between atoms: C_1  and  C_2
REMARK    2  A    between atoms: C_2  and  O_3
REMARK    3  A    between atoms: O_3  and  C_4
REMARK    4  A    between atoms: N_7  and  C_8
REMARK    5  A    between atoms: C_9  and  N_10
REMARK    6  A    between atoms: C_11  and  C_13
REMARK    7  A    between atoms: C_15  and  C_16
REMARK    8  A    between atoms: C_25  and  N_26
REMARK    9  A    between atoms: N_29  and  C_30
REMARK   10  A    between atoms: C_33  and  N_34
REMARK                            x       y       z     vdW  Elec       q    Type
REMARK                         _______ _______ _______ _____ _____    ______ ____
ROOT
ATOM      1  N   UNL     1       1.033   9.100  18.249  0.00  0.00    +0.000 N 
ATOM      2  C   UNL     1       1.547   8.495  19.382  0.00  0.00    +0.000 C 
ATOM      3  O   UNL     1       1.225   8.818  20.523  0.00  0.00    +0.000 OA
ATOM      4  H   UNL     1       1.236   8.664  17.366  0.00  0.00    +0.000 HD
ENDROOT
BRANCH   1   6
ATOM      5  C   UNL     1       0.421  11.498  18.689  0.00  0.00    +0.000 A 
ATOM      6  C   UNL     1       0.155  10.179  18.295  0.00  0.00    +0.000 A 
ATOM      7  C   UNL     1      -1.221  10.152  17.980  0.00  0.00    +0.000 A 
ATOM      8  N   UNL     1      -1.822  11.318  18.183  0.00  0.00    +0.000 NA
ATOM      9  N   UNL     1      -0.819  12.135  18.569  0.00  0.00    +0.000 N 
ATOM     10  C   UNL     1      -1.156  13.537  18.662  0.00  0.00    +0.000 C 
BRANCH   5  14
ATOM     11  C   UNL     1       2.520  14.840  20.293  0.00  0.00    +0.000 C 
ATOM     12  C   UNL     1       1.687  13.715  20.918  0.00  0.00    +0.000 C 
ATOM     13  C   UNL     1       1.973  12.299  20.433  0.00  0.00    +0.000 C 
ATOM     14  N   UNL     1       1.606  12.136  19.025  0.00  0.00    +0.000 N 
ATOM     15  C   UNL     1       2.684  12.361  18.056  0.00  0.00    +0.000 C 
ATOM     16  C   UNL     1       3.457  13.658  18.266  0.00  0.00    +0.000 C 
ATOM     17  C   UNL     1       2.549  14.795  18.735  0.00  0.00    +0.000 C 
BRANCH  17  18
ATOM     18  N   UNL     1       3.047  16.064  18.160  0.00  0.00    +0.000 NA
ATOM     19  H   UNL     1       3.520  16.583  18.901  0.00  0.00    +0.000 HD
ATOM     20  H   UNL     1       2.219  16.637  17.979  0.00  0.00    +0.000 HD
ENDBRANCH  17  18
BRANCH  11  21
ATOM     21  O   UNL     1       1.975  16.120  20.680  0.00  0.00    +0.000 OA
BRANCH  21  23
ATOM     22  C   UNL     1      -0.091  17.057  19.957  0.00  0.00    +0.000 C 
ATOM     23  C   UNL     1       0.571  16.095  20.920  0.00  0.00    +0.000 C 
ENDBRANCH  21  23
ENDBRANCH  11  21
ENDBRANCH   5  14
ENDBRANCH   1   6
BRANCH   2  24
ATOM     24  C   UNL     1       2.462   7.352  19.133  0.00  0.00    +0.000 A 
ATOM     25  N   UNL     1       3.323   7.277  18.011  0.00  0.00    +0.000 NA
ATOM     26  C   UNL     1       4.060   6.174  18.070  0.00  0.00    +0.000 A 
ATOM     27  S   UNL     1       3.844   5.264  19.520  0.00  0.00    +0.000 S 
ATOM     28  C   UNL     1       2.519   6.237  19.957  0.00  0.00    +0.000 A 
BRANCH  26  29
ATOM     29  C   UNL     1       5.008   5.676  17.052  0.00  0.00    +0.000 A 
ATOM     30  C   UNL     1       4.760   4.506  16.329  0.00  0.00    +0.000 A 
ATOM     31  F   UNL     1       3.626   3.814  16.515  0.00  0.00    +0.000 F 
ATOM     32  C   UNL     1       5.668   4.019  15.374  0.00  0.00    +0.000 A 
ATOM     33  C   UNL     1       6.856   4.701  15.117  0.00  0.00    +0.000 A 
ATOM     34  C   UNL     1       7.131   5.867  15.817  0.00  0.00    +0.000 A 
ATOM     35  C   UNL     1       6.222   6.336  16.769  0.00  0.00    +0.000 A 
ATOM     36  F   UNL     1       6.576   7.451  17.428  0.00  0.00    +0.000 F 
ENDBRANCH  26  29
BRANCH  28  37
ATOM     37  N   UNL     1       1.737   5.866  20.996  0.00  0.00    +0.000 N 
ATOM     38  H   UNL     1       1.541   6.536  21.734  0.00  0.00    +0.000 HD
ATOM     39  H   UNL     1       1.741   4.891  21.302  0.00  0.00    +0.000 HD
ENDBRANCH  28  37
ENDBRANCH   2  24
TORSDOF 8
ENDMDL
