MODEL 1
REMARK VINA RESULT:      -8.5      0.000      0.000
REMARK  Name = 
REMARK  7 active torsions:
REMARK  status: ('A' for Active; 'I' for Inactive)
REMARK    1  A    between atoms: C_1  and  C_2
REMARK    2  A    between atoms: C_5  and  C_6
REMARK    3  A    between atoms: C_6  and  C_7
REMARK    4  A    between atoms: N_11  and  C_12
REMARK    5  A    between atoms: C_12  and  C_13
REMARK    6  A    between atoms: N_15  and  C_16
REMARK    7  A    between atoms: C_16  and  C_17
REMARK                            x       y       z     vdW  Elec       q    Type
REMARK                         _______ _______ _______ _____ _____    ______ ____
ROOT
ATOM      1  C   UNL     1       2.549   4.813  18.843  0.00  0.00    +0.000 C 
ATOM      2  C   UNL     1       1.292   4.186  19.442  0.00  0.00    +0.000 C 
ATOM      3  C   UNL     1       1.236   2.802  18.855  0.00  0.00    +0.000 C 
ATOM      4  C   UNL     1       2.680   2.437  18.563  0.00  0.00    +0.000 C 
ATOM      5  N   UNL     1       3.461   3.689  18.499  0.00  0.00    +0.000 NA
ENDROOT
BRANCH   1   6
ATOM      6  C   UNL     1       3.022   6.103  19.590  0.00  0.00    +0.000 C 
BRANCH   6  11
ATOM      7  C   UNL     1       0.631  11.352  18.809  0.00  0.00    +0.000 C 
ATOM      8  C   UNL     1       1.124   9.947  18.968  0.00  0.00    +0.000 A 
ATOM      9  C   UNL     1       1.734   9.278  17.905  0.00  0.00    +0.000 A 
ATOM     10  C   UNL     1       2.266   8.002  18.084  0.00  0.00    +0.000 A 
ATOM     11  C   UNL     1       2.256   7.388  19.344  0.00  0.00    +0.000 A 
ATOM     12  C   UNL     1       1.540   8.014  20.374  0.00  0.00    +0.000 A 
ATOM     13  C   UNL     1       0.982   9.281  20.189  0.00  0.00    +0.000 A 
ENDBRANCH   6  11
ENDBRANCH   1   6
BRANCH   5  14
ATOM     14  C   UNL     1       4.692   3.584  19.294  0.00  0.00    +0.000 C 
BRANCH  14  15
ATOM     15  C   UNL     1       5.861   4.379  18.689  0.00  0.00    +0.000 C 
ATOM     16  O   UNL     1       6.555   5.139  19.361  0.00  0.00    +0.000 OA
ATOM     17  N   UNL     1       6.000   4.243  17.324  0.00  0.00    +0.000 N 
ATOM     18  H   UNL     1       5.652   3.384  16.917  0.00  0.00    +0.000 HD
BRANCH  17  19
ATOM     19  C   UNL     1       7.048   4.947  16.613  0.00  0.00    +0.000 C 
BRANCH  19  20
ATOM     20  C   UNL     1       7.003   4.714  15.119  0.00  0.00    +0.000 A 
ATOM     21  C   UNL     1       6.094   3.807  14.574  0.00  0.00    +0.000 A 
ATOM     22  C   UNL     1       6.049   3.634  13.191  0.00  0.00    +0.000 A 
ATOM     23  C   UNL     1       6.916   4.373  12.390  0.00  0.00    +0.000 A 
ATOM     24  C   UNL     1       7.800   5.236  13.010  0.00  0.00    +0.000 A 
ATOM     25  N   UNL     1       7.871   5.418  14.345  0.00  0.00    +0.000 NA
ENDBRANCH  19  20
ENDBRANCH  17  19
ENDBRANCH  14  15
ENDBRANCH   5  14
TORSDOF 6
ENDMDL
MODEL 2
REMARK VINA RESULT:      -8.1      2.306      5.507
REMARK  Name = 
REMARK  7 active torsions:
REMARK  status: ('A' for Active; 'I' for Inactive)
REMARK    1  A    between atoms: C_1  and  C_2
REMARK    2  A    between atoms: C_5  and  C_6
REMARK    3  A    between atoms: C_6  and  C_7
REMARK    4  A    between atoms: N_11  and  C_12
REMARK    5  A    between atoms: C_12  and  C_13
REMARK    6  A    between atoms: N_15  and  C_16
REMARK    7  A    between atoms: C_16  and  C_17
REMARK                            x       y       z     vdW  Elec       q    Type
REMARK                         _______ _______ _______ _____ _____    ______ ____
ROOT
ATOM      1  C   UNL     1       5.424   6.532  17.762  0.00  0.00    +0.000 C 
ATOM      2  C   UNL     1       6.568   7.482  17.419  0.00  0.00    +0.000 C 
ATOM      3  C   UNL     1       7.819   6.683  17.664  0.00  0.00    +0.000 C 
ATOM      4  C   UNL     1       7.414   5.237  17.441  0.00  0.00    +0.000 C 
ATOM      5  N   UNL     1       5.945   5.152  17.566  0.00  0.00    +0.000 NA
ENDROOT
BRANCH   1   6
ATOM      6  C   UNL     1       4.033   7.007  17.228  0.00  0.00    +0.000 C 
BRANCH   6  11
ATOM      7  C   UNL     1       0.407   8.703  21.453  0.00  0.00    +0.000 C 
ATOM      8  C   UNL     1       1.229   8.208  20.304  0.00  0.00    +0.000 A 
ATOM      9  C   UNL     1       1.401   8.987  19.159  0.00  0.00    +0.000 A 
ATOM     10  C   UNL     1       2.235   8.557  18.128  0.00  0.00    +0.000 A 
ATOM     11  C   UNL     1       2.966   7.367  18.243  0.00  0.00    +0.000 A 
ATOM     12  C   UNL     1       2.699   6.535  19.340  0.00  0.00    +0.000 A 
ATOM     13  C   UNL     1       1.841   6.952  20.361  0.00  0.00    +0.000 A 
ENDBRANCH   6  11
ENDBRANCH   1   6
BRANCH   5  14
ATOM     14  C   UNL     1       5.364   4.391  16.451  0.00  0.00    +0.000 C 
BRANCH  14  15
ATOM     15  C   UNL     1       4.157   3.539  16.877  0.00  0.00    +0.000 C 
ATOM     16  O   UNL     1       3.005   3.832  16.563  0.00  0.00    +0.000 OA
ATOM     17  N   UNL     1       4.465   2.487  17.714  0.00  0.00    +0.000 N 
ATOM     18  H   UNL     1       5.403   2.113  17.643  0.00  0.00    +0.000 HD
BRANCH  17  19
ATOM     19  C   UNL     1       3.426   1.608  18.210  0.00  0.00    +0.000 C 
BRANCH  19  20
ATOM     20  C   UNL     1       2.656   2.204  19.368  0.00  0.00    +0.000 A 
ATOM     21  C   UNL     1       1.316   2.561  19.214  0.00  0.00    +0.000 A 
ATOM     22  C   UNL     1       0.618   3.077  20.305  0.00  0.00    +0.000 A 
ATOM     23  C   UNL     1       1.280   3.223  21.522  0.00  0.00    +0.000 A 
ATOM     24  C   UNL     1       2.613   2.864  21.586  0.00  0.00    +0.000 A 
ATOM     25  N   UNL     1       3.315   2.370  20.545  0.00  0.00    +0.000 NA
ENDBRANCH  19  20
ENDBRANCH  17  19
ENDBRANCH  14  15
ENDBRANCH   5  14
TORSDOF 6
ENDMDL
MODEL 3
REMARK VINA RESULT:      -7.9      0.758      1.206
REMARK  Name = 
REMARK  7 active torsions:
REMARK  status: ('A' for Active; 'I' for Inactive)
REMARK    1  A    between atoms: C_1  and  C_2
REMARK    2  A    between atoms: C_5  and  C_6
REMARK    3  A    between atoms: C_6  and  C_7
REMARK    4  A    between atoms: N_11  and  C_12
REMARK    5  A    between atoms: C_12  and  C_13
REMARK    6  A    between atoms: N_15  and  C_16
REMARK    7  A    between atoms: C_16  and  C_17
REMARK                            x       y       z     vdW  Elec       q    Type
REMARK                         _______ _______ _______ _____ _____    ______ ____
ROOT
ATOM      1  C   UNL     1       2.886   4.977  17.816  0.00  0.00    +0.000 C 
ATOM      2  C   UNL     1       1.492   4.814  18.416  0.00  0.00    +0.000 C 
ATOM      3  C   UNL     1       1.224   3.334  18.366  0.00  0.00    +0.000 C 
ATOM      4  C   UNL     1       2.593   2.681  18.435  0.00  0.00    +0.000 C 
ATOM      5  N   UNL     1       3.596   3.688  18.035  0.00  0.00    +0.000 NA
ENDROOT
BRANCH   1   6
ATOM      6  C   UNL     1       3.532   6.372  18.106  0.00  0.00    +0.000 C 
BRANCH   6  11
ATOM      7  C   UNL     1      -0.418  10.222  19.964  0.00  0.00    +0.000 C 
ATOM      8  C   UNL     1       0.697   9.324  19.523  0.00  0.00    +0.000 A 
ATOM      9  C   UNL     1       1.279   8.418  20.411  0.00  0.00    +0.000 A 
ATOM     10  C   UNL     1       2.258   7.527  19.973  0.00  0.00    +0.000 A 
ATOM     11  C   UNL     1       2.635   7.478  18.624  0.00  0.00    +0.000 A 
ATOM     12  C   UNL     1       2.133   8.467  17.766  0.00  0.00    +0.000 A 
ATOM     13  C   UNL     1       1.173   9.379  18.210  0.00  0.00    +0.000 A 
ENDBRANCH   6  11
ENDBRANCH   1   6
BRANCH   5  14
ATOM     14  C   UNL     1       4.720   3.718  18.980  0.00  0.00    +0.000 C 
BRANCH  14  15
ATOM     15  C   UNL     1       5.981   4.369  18.388  0.00  0.00    +0.000 C 
ATOM     16  O   UNL     1       6.799   4.967  19.084  0.00  0.00    +0.000 OA
ATOM     17  N   UNL     1       6.062   4.311  17.013  0.00  0.00    +0.000 N 
ATOM     18  H   UNL     1       5.577   3.545  16.563  0.00  0.00    +0.000 HD
BRANCH  17  19
ATOM     19  C   UNL     1       7.187   4.899  16.313  0.00  0.00    +0.000 C 
BRANCH  19  20
ATOM     20  C   UNL     1       7.124   4.685  14.817  0.00  0.00    +0.000 A 
ATOM     21  C   UNL     1       6.220   3.773  14.272  0.00  0.00    +0.000 A 
ATOM     22  C   UNL     1       6.158   3.618  12.889  0.00  0.00    +0.000 A 
ATOM     23  C   UNL     1       7.003   4.378  12.085  0.00  0.00    +0.000 A 
ATOM     24  C   UNL     1       7.884   5.245  12.704  0.00  0.00    +0.000 A 
ATOM     25  N   UNL     1       7.972   5.410  14.040  0.00  0.00    +0.000 NA
ENDBRANCH  19  20
ENDBRANCH  17  19
ENDBRANCH  14  15
ENDBRANCH   5  14
TORSDOF 6
ENDMDL
MODEL 4
REMARK VINA RESULT:      -7.9      2.308      3.070
REMARK  Name = 
REMARK  7 active torsions:
REMARK  status: ('A' for Active; 'I' for Inactive)
REMARK    1  A    between atoms: C_1  and  C_2
REMARK    2  A    between atoms: C_5  and  C_6
REMARK    3  A    between atoms: C_6  and  C_7
REMARK    4  A    between atoms: N_11  and  C_12
REMARK    5  A    between atoms: C_12  and  C_13
REMARK    6  A    between atoms: N_15  and  C_16
REMARK    7  A    between atoms: C_16  and  C_17
REMARK                            x       y       z     vdW  Elec       q    Type
REMARK                         _______ _______ _______ _____ _____    ______ ____
ROOT
ATOM      1  C   UNL     1       1.911   4.906  20.105  0.00  0.00    +0.000 C 
ATOM      2  C   UNL     1       2.591   3.914  21.045  0.00  0.00    +0.000 C 
ATOM      3  C   UNL     1       1.724   2.685  21.001  0.00  0.00    +0.000 C 
ATOM      4  C   UNL     1       1.068   2.714  19.632  0.00  0.00    +0.000 C 
ATOM      5  N   UNL     1       1.138   4.098  19.123  0.00  0.00    +0.000 NA
ENDROOT
BRANCH   1   6
ATOM      6  C   UNL     1       2.823   6.109  19.697  0.00  0.00    +0.000 C 
BRANCH   6  11
ATOM      7  C   UNL     1       0.830  11.495  18.753  0.00  0.00    +0.000 C 
ATOM      8  C   UNL     1       1.219  10.063  18.949  0.00  0.00    +0.000 A 
ATOM      9  C   UNL     1       1.831   9.341  17.923  0.00  0.00    +0.000 A 
ATOM     10  C   UNL     1       2.266   8.034  18.139  0.00  0.00    +0.000 A 
ATOM     11  C   UNL     1       2.158   7.439  19.403  0.00  0.00    +0.000 A 
ATOM     12  C   UNL     1       1.439   8.124  20.392  0.00  0.00    +0.000 A 
ATOM     13  C   UNL     1       0.976   9.423  20.168  0.00  0.00    +0.000 A 
ENDBRANCH   6  11
ENDBRANCH   1   6
BRANCH   5  14
ATOM     14  C   UNL     1       1.620   4.127  17.736  0.00  0.00    +0.000 C 
BRANCH  14  15
ATOM     15  C   UNL     1       3.040   3.557  17.586  0.00  0.00    +0.000 C 
ATOM     16  O   UNL     1       3.332   2.420  17.953  0.00  0.00    +0.000 OA
ATOM     17  N   UNL     1       3.969   4.453  17.102  0.00  0.00    +0.000 N 
ATOM     18  H   UNL     1       3.614   5.203  16.521  0.00  0.00    +0.000 HD
BRANCH  17  19
ATOM     19  C   UNL     1       5.352   4.062  16.925  0.00  0.00    +0.000 C 
BRANCH  19  20
ATOM     20  C   UNL     1       6.325   5.066  17.502  0.00  0.00    +0.000 A 
ATOM     21  C   UNL     1       6.571   6.270  16.841  0.00  0.00    +0.000 A 
ATOM     22  C   UNL     1       7.446   7.193  17.410  0.00  0.00    +0.000 A 
ATOM     23  C   UNL     1       8.055   6.888  18.624  0.00  0.00    +0.000 A 
ATOM     24  C   UNL     1       7.773   5.665  19.205  0.00  0.00    +0.000 A 
ATOM     25  N   UNL     1       6.938   4.749  18.673  0.00  0.00    +0.000 NA
ENDBRANCH  19  20
ENDBRANCH  17  19
ENDBRANCH  14  15
ENDBRANCH   5  14
TORSDOF 6
ENDMDL
MODEL 5
REMARK VINA RESULT:      -7.9      0.742      1.461
REMARK  Name = 
REMARK  7 active torsions:
REMARK  status: ('A' for Active; 'I' for Inactive)
REMARK    1  A    between atoms: C_1  and  C_2
REMARK    2  A    between atoms: C_5  and  C_6
REMARK    3  A    between atoms: C_6  and  C_7
REMARK    4  A    between atoms: N_11  and  C_12
REMARK    5  A    between atoms: C_12  and  C_13
REMARK    6  A    between atoms: N_15  and  C_16
REMARK    7  A    between atoms: C_16  and  C_17
REMARK                            x       y       z     vdW  Elec       q    Type
REMARK                         _______ _______ _______ _____ _____    ______ ____
ROOT
ATOM      1  C   UNL     1       2.384   4.659  18.889  0.00  0.00    +0.000 C 
ATOM      2  C   UNL     1       1.242   3.775  19.386  0.00  0.00    +0.000 C 
ATOM      3  C   UNL     1       1.289   2.556  18.504  0.00  0.00    +0.000 C 
ATOM      4  C   UNL     1       2.740   2.433  18.076  0.00  0.00    +0.000 C 
ATOM      5  N   UNL     1       3.381   3.751  18.261  0.00  0.00    +0.000 NA
ENDROOT
BRANCH   1   6
ATOM      6  C   UNL     1       2.771   5.800  19.886  0.00  0.00    +0.000 C 
BRANCH   6  11
ATOM      7  C   UNL     1       0.202  10.876  18.661  0.00  0.00    +0.000 C 
ATOM      8  C   UNL     1       0.977   9.644  19.010  0.00  0.00    +0.000 A 
ATOM      9  C   UNL     1       0.966   9.137  20.311  0.00  0.00    +0.000 A 
ATOM     10  C   UNL     1       1.621   7.944  20.611  0.00  0.00    +0.000 A 
ATOM     11  C   UNL     1       2.250   7.196  19.607  0.00  0.00    +0.000 A 
ATOM     12  C   UNL     1       2.358   7.768  18.331  0.00  0.00    +0.000 A 
ATOM     13  C   UNL     1       1.726   8.979  18.036  0.00  0.00    +0.000 A 
ENDBRANCH   6  11
ENDBRANCH   1   6
BRANCH   5  14
ATOM     14  C   UNL     1       4.668   3.618  18.958  0.00  0.00    +0.000 C 
BRANCH  14  15
ATOM     15  C   UNL     1       5.808   4.371  18.253  0.00  0.00    +0.000 C 
ATOM     16  O   UNL     1       6.787   4.798  18.863  0.00  0.00    +0.000 OA
ATOM     17  N   UNL     1       5.593   4.611  16.912  0.00  0.00    +0.000 N 
ATOM     18  H   UNL     1       4.982   3.963  16.430  0.00  0.00    +0.000 HD
BRANCH  17  19
ATOM     19  C   UNL     1       6.574   5.326  16.122  0.00  0.00    +0.000 C 
BRANCH  19  20
ATOM     20  C   UNL     1       6.633   4.849  14.688  0.00  0.00    +0.000 A 
ATOM     21  C   UNL     1       7.612   5.337  13.822  0.00  0.00    +0.000 A 
ATOM     22  C   UNL     1       7.667   4.857  12.515  0.00  0.00    +0.000 A 
ATOM     23  C   UNL     1       6.740   3.903  12.106  0.00  0.00    +0.000 A 
ATOM     24  C   UNL     1       5.789   3.486  13.019  0.00  0.00    +0.000 A 
ATOM     25  N   UNL     1       5.707   3.938  14.287  0.00  0.00    +0.000 NA
ENDBRANCH  19  20
ENDBRANCH  17  19
ENDBRANCH  14  15
ENDBRANCH   5  14
TORSDOF 6
ENDMDL
MODEL 6
REMARK VINA RESULT:      -7.8      0.628      1.238
REMARK  Name = 
REMARK  7 active torsions:
REMARK  status: ('A' for Active; 'I' for Inactive)
REMARK    1  A    between atoms: C_1  and  C_2
REMARK    2  A    between atoms: C_5  and  C_6
REMARK    3  A    between atoms: C_6  and  C_7
REMARK    4  A    between atoms: N_11  and  C_12
REMARK    5  A    between atoms: C_12  and  C_13
REMARK    6  A    between atoms: N_15  and  C_16
REMARK    7  A    between atoms: C_16  and  C_17
REMARK                            x       y       z     vdW  Elec       q    Type
REMARK                         _______ _______ _______ _____ _____    ______ ____
ROOT
ATOM      1  C   UNL     1       2.246   4.190  18.822  0.00  0.00    +0.000 C 
ATOM      2  C   UNL     1       1.527   2.849  18.952  0.00  0.00    +0.000 C 
ATOM      3  C   UNL     1       2.209   1.949  17.958  0.00  0.00    +0.000 C 
ATOM      4  C   UNL     1       3.620   2.494  17.834  0.00  0.00    +0.000 C 
ATOM      5  N   UNL     1       3.612   3.891  18.313  0.00  0.00    +0.000 NA
ENDROOT
BRANCH   1   6
ATOM      6  C   UNL     1       1.969   5.167  20.012  0.00  0.00    +0.000 C 
BRANCH   6  11
ATOM      7  C   UNL     1       1.199  10.785  18.702  0.00  0.00    +0.000 C 
ATOM      8  C   UNL     1       1.527   9.374  19.078  0.00  0.00    +0.000 A 
ATOM      9  C   UNL     1       1.302   8.909  20.375  0.00  0.00    +0.000 A 
ATOM     10  C   UNL     1       1.531   7.572  20.697  0.00  0.00    +0.000 A 
ATOM     11  C   UNL     1       1.930   6.653  19.717  0.00  0.00    +0.000 A 
ATOM     12  C   UNL     1       2.266   7.150  18.449  0.00  0.00    +0.000 A 
ATOM     13  C   UNL     1       2.064   8.496  18.133  0.00  0.00    +0.000 A 
ENDBRANCH   6  11
ENDBRANCH   1   6
BRANCH   5  14
ATOM     14  C   UNL     1       4.720   4.136  19.245  0.00  0.00    +0.000 C 
BRANCH  14  15
ATOM     15  C   UNL     1       5.928   4.809  18.571  0.00  0.00    +0.000 C 
ATOM     16  O   UNL     1       6.560   5.714  19.111  0.00  0.00    +0.000 OA
ATOM     17  N   UNL     1       6.175   4.383  17.283  0.00  0.00    +0.000 N 
ATOM     18  H   UNL     1       5.866   3.448  17.049  0.00  0.00    +0.000 HD
BRANCH  17  19
ATOM     19  C   UNL     1       7.270   4.941  16.517  0.00  0.00    +0.000 C 
BRANCH  19  20
ATOM     20  C   UNL     1       7.123   4.712  15.029  0.00  0.00    +0.000 A 
ATOM     21  C   UNL     1       6.236   3.748  14.548  0.00  0.00    +0.000 A 
ATOM     22  C   UNL     1       6.094   3.578  13.172  0.00  0.00    +0.000 A 
ATOM     23  C   UNL     1       6.843   4.375  12.312  0.00  0.00    +0.000 A 
ATOM     24  C   UNL     1       7.714   5.294  12.868  0.00  0.00    +0.000 A 
ATOM     25  N   UNL     1       7.879   5.474  14.195  0.00  0.00    +0.000 NA
ENDBRANCH  19  20
ENDBRANCH  17  19
ENDBRANCH  14  15
ENDBRANCH   5  14
TORSDOF 6
ENDMDL
MODEL 7
REMARK VINA RESULT:      -7.6      2.286      5.490
REMARK  Name = 
REMARK  7 active torsions:
REMARK  status: ('A' for Active; 'I' for Inactive)
REMARK    1  A    between atoms: C_1  and  C_2
REMARK    2  A    between atoms: C_5  and  C_6
REMARK    3  A    between atoms: C_6  and  C_7
REMARK    4  A    between atoms: N_11  and  C_12
REMARK    5  A    between atoms: C_12  and  C_13
REMARK    6  A    between atoms: N_15  and  C_16
REMARK    7  A    between atoms: C_16  and  C_17
REMARK                            x       y       z     vdW  Elec       q    Type
REMARK                         _______ _______ _______ _____ _____    ______ ____
ROOT
ATOM      1  C   UNL     1       5.162   6.436  17.681  0.00  0.00    +0.000 C 
ATOM      2  C   UNL     1       6.156   7.522  17.277  0.00  0.00    +0.000 C 
ATOM      3  C   UNL     1       7.507   6.869  17.394  0.00  0.00    +0.000 C 
ATOM      4  C   UNL     1       7.254   5.391  17.158  0.00  0.00    +0.000 C 
ATOM      5  N   UNL     1       5.820   5.131  17.398  0.00  0.00    +0.000 NA
ENDROOT
BRANCH   1   6
ATOM      6  C   UNL     1       3.686   6.757  17.277  0.00  0.00    +0.000 C 
BRANCH   6  11
ATOM      7  C   UNL     1      -0.022   9.660  20.697  0.00  0.00    +0.000 C 
ATOM      8  C   UNL     1       1.035   8.987  19.878  0.00  0.00    +0.000 A 
ATOM      9  C   UNL     1       1.657   7.822  20.331  0.00  0.00    +0.000 A 
ATOM     10  C   UNL     1       2.579   7.154  19.527  0.00  0.00    +0.000 A 
ATOM     11  C   UNL     1       2.856   7.597  18.227  0.00  0.00    +0.000 A 
ATOM     12  C   UNL     1       2.318   8.828  17.825  0.00  0.00    +0.000 A 
ATOM     13  C   UNL     1       1.415   9.515  18.641  0.00  0.00    +0.000 A 
ENDBRANCH   6  11
ENDBRANCH   1   6
BRANCH   5  14
ATOM     14  C   UNL     1       5.239   4.333  16.310  0.00  0.00    +0.000 C 
BRANCH  14  15
ATOM     15  C   UNL     1       4.096   3.421  16.785  0.00  0.00    +0.000 C 
ATOM     16  O   UNL     1       2.934   3.579  16.414  0.00  0.00    +0.000 OA
ATOM     17  N   UNL     1       4.464   2.486  17.729  0.00  0.00    +0.000 N 
ATOM     18  H   UNL     1       5.433   2.192  17.720  0.00  0.00    +0.000 HD
BRANCH  17  19
ATOM     19  C   UNL     1       3.488   1.569  18.282  0.00  0.00    +0.000 C 
BRANCH  19  20
ATOM     20  C   UNL     1       2.690   2.174  19.416  0.00  0.00    +0.000 A 
ATOM     21  C   UNL     1       1.356   2.535  19.226  0.00  0.00    +0.000 A 
ATOM     22  C   UNL     1       0.632   3.059  20.295  0.00  0.00    +0.000 A 
ATOM     23  C   UNL     1       1.262   3.210  21.528  0.00  0.00    +0.000 A 
ATOM     24  C   UNL     1       2.592   2.846  21.628  0.00  0.00    +0.000 A 
ATOM     25  N   UNL     1       3.320   2.344  20.609  0.00  0.00    +0.000 NA
ENDBRANCH  19  20
ENDBRANCH  17  19
ENDBRANCH  14  15
ENDBRANCH   5  14
TORSDOF 6
ENDMDL
MODEL 8
REMARK VINA RESULT:      -7.6      1.036      1.090
REMARK  Name = 
REMARK  7 active torsions:
REMARK  status: ('A' for Active; 'I' for Inactive)
REMARK    1  A    between atoms: C_1  and  C_2
REMARK    2  A    between atoms: C_5  and  C_6
REMARK    3  A    between atoms: C_6  and  C_7
REMARK    4  A    between atoms: N_11  and  C_12
REMARK    5  A    between atoms: C_12  and  C_13
REMARK    6  A    between atoms: N_15  and  C_16
REMARK    7  A    between atoms: C_16  and  C_17
REMARK                            x       y       z     vdW  Elec       q    Type
REMARK                         _______ _______ _______ _____ _____    ______ ____
ROOT
ATOM      1  C   UNL     1       1.871   4.758  19.685  0.00  0.00    +0.000 C 
ATOM      2  C   UNL     1       1.036   3.610  20.247  0.00  0.00    +0.000 C 
ATOM      3  C   UNL     1       1.424   2.413  19.421  0.00  0.00    +0.000 C 
ATOM      4  C   UNL     1       2.846   2.691  18.966  0.00  0.00    +0.000 C 
ATOM      5  N   UNL     1       3.082   4.144  19.078  0.00  0.00    +0.000 NA
ENDROOT
BRANCH   1   6
ATOM      6  C   UNL     1       1.921   6.011  20.621  0.00  0.00    +0.000 C 
BRANCH   6  11
ATOM      7  C   UNL     1       1.508  11.418  18.509  0.00  0.00    +0.000 C 
ATOM      8  C   UNL     1       1.494  10.000  18.987  0.00  0.00    +0.000 A 
ATOM      9  C   UNL     1       2.089   8.986  18.234  0.00  0.00    +0.000 A 
ATOM     10  C   UNL     1       2.146   7.681  18.723  0.00  0.00    +0.000 A 
ATOM     11  C   UNL     1       1.666   7.371  20.002  0.00  0.00    +0.000 A 
ATOM     12  C   UNL     1       0.966   8.365  20.701  0.00  0.00    +0.000 A 
ATOM     13  C   UNL     1       0.883   9.666  20.199  0.00  0.00    +0.000 A 
ENDBRANCH   6  11
ENDBRANCH   1   6
BRANCH   5  14
ATOM     14  C   UNL     1       4.358   4.421  19.751  0.00  0.00    +0.000 C 
BRANCH  14  15
ATOM     15  C   UNL     1       5.472   4.829  18.774  0.00  0.00    +0.000 C 
ATOM     16  O   UNL     1       6.571   4.277  18.763  0.00  0.00    +0.000 OA
ATOM     17  N   UNL     1       5.172   5.922  17.988  0.00  0.00    +0.000 N 
ATOM     18  H   UNL     1       4.190   6.089  17.803  0.00  0.00    +0.000 HD
BRANCH  17  19
ATOM     19  C   UNL     1       6.133   6.432  17.031  0.00  0.00    +0.000 C 
BRANCH  19  20
ATOM     20  C   UNL     1       6.236   5.575  15.789  0.00  0.00    +0.000 A 
ATOM     21  C   UNL     1       5.156   4.792  15.380  0.00  0.00    +0.000 A 
ATOM     22  C   UNL     1       5.264   4.037  14.214  0.00  0.00    +0.000 A 
ATOM     23  C   UNL     1       6.450   4.083  13.486  0.00  0.00    +0.000 A 
ATOM     24  C   UNL     1       7.480   4.869  13.969  0.00  0.00    +0.000 A 
ATOM     25  N   UNL     1       7.407   5.603  15.098  0.00  0.00    +0.000 NA
ENDBRANCH  19  20
ENDBRANCH  17  19
ENDBRANCH  14  15
ENDBRANCH   5  14
TORSDOF 6
ENDMDL
MODEL 9
REMARK VINA RESULT:      -7.5      0.918      1.378
REMARK  Name = 
REMARK  7 active torsions:
REMARK  status: ('A' for Active; 'I' for Inactive)
REMARK    1  A    between atoms: C_1  and  C_2
REMARK    2  A    between atoms: C_5  and  C_6
REMARK    3  A    between atoms: C_6  and  C_7
REMARK    4  A    between atoms: N_11  and  C_12
REMARK    5  A    between atoms: C_12  and  C_13
REMARK    6  A    between atoms: N_15  and  C_16
REMARK    7  A    between atoms: C_16  and  C_17
REMARK                            x       y       z     vdW  Elec       q    Type
REMARK                         _______ _______ _______ _____ _____    ______ ____
ROOT
ATOM      1  C   UNL     1       2.518   5.814  18.712  0.00  0.00    +0.000 C 
ATOM      2  C   UNL     1       1.376   4.820  18.905  0.00  0.00    +0.000 C 
ATOM      3  C   UNL     1       1.712   3.668  17.996  0.00  0.00    +0.000 C 
ATOM      4  C   UNL     1       3.226   3.679  17.887  0.00  0.00    +0.000 C 
ATOM      5  N   UNL     1       3.700   5.024  18.271  0.00  0.00    +0.000 NA
ENDROOT
BRANCH   1   6
ATOM      6  C   UNL     1       2.587   6.913  19.824  0.00  0.00    +0.000 C 
BRANCH   6  11
ATOM      7  C   UNL     1      -1.085  11.340  18.934  0.00  0.00    +0.000 C 
ATOM      8  C   UNL     1      -0.045  10.296  19.201  0.00  0.00    +0.000 A 
ATOM      9  C   UNL     1       0.085   9.724  20.467  0.00  0.00    +0.000 A 
ATOM     10  C   UNL     1       0.998   8.694  20.688  0.00  0.00    +0.000 A 
ATOM     11  C   UNL     1       1.759   8.168  19.635  0.00  0.00    +0.000 A 
ATOM     12  C   UNL     1       1.709   8.825  18.397  0.00  0.00    +0.000 A 
ATOM     13  C   UNL     1       0.815   9.876  18.182  0.00  0.00    +0.000 A 
ENDBRANCH   6  11
ENDBRANCH   1   6
BRANCH   5  14
ATOM     14  C   UNL     1       4.815   4.939  19.223  0.00  0.00    +0.000 C 
BRANCH  14  15
ATOM     15  C   UNL     1       6.188   4.908  18.531  0.00  0.00    +0.000 C 
ATOM     16  O   UNL     1       7.239   4.819  19.163  0.00  0.00    +0.000 OA
ATOM     17  N   UNL     1       6.144   5.087  17.165  0.00  0.00    +0.000 N 
ATOM     18  H   UNL     1       5.289   4.809  16.699  0.00  0.00    +0.000 HD
BRANCH  17  19
ATOM     19  C   UNL     1       7.363   5.098  16.380  0.00  0.00    +0.000 C 
BRANCH  19  20
ATOM     20  C   UNL     1       7.125   4.776  14.921  0.00  0.00    +0.000 A 
ATOM     21  C   UNL     1       6.127   3.875  14.551  0.00  0.00    +0.000 A 
ATOM     22  C   UNL     1       5.904   3.621  13.199  0.00  0.00    +0.000 A 
ATOM     23  C   UNL     1       6.687   4.274  12.252  0.00  0.00    +0.000 A 
ATOM     24  C   UNL     1       7.669   5.138  12.701  0.00  0.00    +0.000 A 
ATOM     25  N   UNL     1       7.912   5.397  14.003  0.00  0.00    +0.000 NA
ENDBRANCH  19  20
ENDBRANCH  17  19
ENDBRANCH  14  15
ENDBRANCH   5  14
TORSDOF 6
ENDMDL
