MODEL 1
REMARK VINA RESULT:      -8.3      0.000      0.000
REMARK  Name = 
REMARK  4 active torsions:
REMARK  status: ('A' for Active; 'I' for Inactive)
REMARK    1  A    between atoms: C_10  and  C_11
REMARK    2  A    between atoms: N_17  and  N_18
REMARK    3  A    between atoms: N_18  and  S_19
REMARK    4  A    between atoms: S_19  and  C_22
REMARK                            x       y       z     vdW  Elec       q    Type
REMARK                         _______ _______ _______ _____ _____    ______ ____
ROOT
ATOM      1  O   UNL     1       3.973   2.267  16.729  0.00  0.00    +0.000 OA
ATOM      2  C   UNL     1       4.022   3.250  17.468  0.00  0.00    +0.000 C 
ATOM      3  C   UNL     1       2.995   3.490  18.507  0.00  0.00    +0.000 A 
ATOM      4  C   UNL     1       1.831   2.712  18.552  0.00  0.00    +0.000 A 
ATOM      5  C   UNL     1       0.821   3.035  19.460  0.00  0.00    +0.000 A 
ATOM      6  C   UNL     1       0.980   4.123  20.315  0.00  0.00    +0.000 A 
ATOM      7  C   UNL     1       2.151   4.881  20.277  0.00  0.00    +0.000 A 
ATOM      8  C   UNL     1       3.184   4.558  19.391  0.00  0.00    +0.000 A 
ATOM      9  N   UNL     1       4.286   5.405  19.295  0.00  0.00    +0.000 N 
ATOM     10  C   UNL     1       5.456   4.908  18.561  0.00  0.00    +0.000 C 
ATOM     11  N   UNL     1       4.991   4.246  17.339  0.00  0.00    +0.000 N 
ATOM     12  H   UNL     1       4.542   5.852  20.171  0.00  0.00    +0.000 HD
ENDROOT
BRANCH  10  13
ATOM     13  C   UNL     1       6.429   6.066  18.341  0.00  0.00    +0.000 A 
ATOM     14  C   UNL     1       7.683   6.056  18.963  0.00  0.00    +0.000 A 
ATOM     15  C   UNL     1       8.529   7.143  18.803  0.00  0.00    +0.000 A 
ATOM     16  C   UNL     1       8.101   8.225  18.048  0.00  0.00    +0.000 A 
ATOM     17  C   UNL     1       6.851   8.162  17.455  0.00  0.00    +0.000 A 
ATOM     18  N   UNL     1       6.020   7.101  17.554  0.00  0.00    +0.000 NA
ENDBRANCH  10  13
BRANCH  11  19
ATOM     19  N   UNL     1       6.060   3.935  16.331  0.00  0.00    +0.000 NA
ATOM     20  H   UNL     1       5.894   3.027  15.871  0.00  0.00    +0.000 HD
BRANCH  19  21
ATOM     21  S   UNL     1       6.250   5.070  15.047  0.00  0.00    +0.000 S 
ATOM     22  O   UNL     1       5.188   6.045  15.077  0.00  0.00    +0.000 OA
ATOM     23  O   UNL     1       7.640   5.479  15.063  0.00  0.00    +0.000 OA
BRANCH  21  24
ATOM     24  C   UNL     1       6.026   4.076  13.589  0.00  0.00    +0.000 A 
ATOM     25  C   UNL     1       4.743   3.721  13.159  0.00  0.00    +0.000 A 
ATOM     26  C   UNL     1       4.598   2.987  11.979  0.00  0.00    +0.000 A 
ATOM     27  C   UNL     1       5.726   2.611  11.246  0.00  0.00    +0.000 A 
ATOM     28  C   UNL     1       7.002   2.966  11.684  0.00  0.00    +0.000 A 
ATOM     29  C   UNL     1       7.155   3.707  12.854  0.00  0.00    +0.000 A 
ENDBRANCH  21  24
ENDBRANCH  19  21
ENDBRANCH  11  19
TORSDOF 4
ENDMDL
MODEL 2
REMARK VINA RESULT:      -7.9      4.030      6.130
REMARK  Name = 
REMARK  4 active torsions:
REMARK  status: ('A' for Active; 'I' for Inactive)
REMARK    1  A    between atoms: C_10  and  C_11
REMARK    2  A    between atoms: N_17  and  N_18
REMARK    3  A    between atoms: N_18  and  S_19
REMARK    4  A    between atoms: S_19  and  C_22
REMARK                            x       y       z     vdW  Elec       q    Type
REMARK                         _______ _______ _______ _____ _____    ______ ____
ROOT
ATOM      1  O   UNL     1       1.044   7.314  21.783  0.00  0.00    +0.000 OA
ATOM      2  C   UNL     1       1.492   7.520  20.656  0.00  0.00    +0.000 C 
ATOM      3  C   UNL     1       1.064   8.689  19.853  0.00  0.00    +0.000 A 
ATOM      4  C   UNL     1      -0.008   9.487  20.271  0.00  0.00    +0.000 A 
ATOM      5  C   UNL     1      -0.473  10.507  19.440  0.00  0.00    +0.000 A 
ATOM      6  C   UNL     1       0.133  10.726  18.205  0.00  0.00    +0.000 A 
ATOM      7  C   UNL     1       1.213   9.937  17.804  0.00  0.00    +0.000 A 
ATOM      8  C   UNL     1       1.709   8.927  18.634  0.00  0.00    +0.000 A 
ATOM      9  N   UNL     1       2.707   8.083  18.154  0.00  0.00    +0.000 N 
ATOM     10  C   UNL     1       3.381   7.214  19.126  0.00  0.00    +0.000 C 
ATOM     11  N   UNL     1       2.368   6.641  20.017  0.00  0.00    +0.000 N 
ATOM     12  H   UNL     1       3.363   8.535  17.522  0.00  0.00    +0.000 HD
ENDROOT
BRANCH  10  13
ATOM     13  C   UNL     1       4.231   6.194  18.371  0.00  0.00    +0.000 A 
ATOM     14  C   UNL     1       4.001   5.961  17.009  0.00  0.00    +0.000 A 
ATOM     15  C   UNL     1       4.739   4.987  16.353  0.00  0.00    +0.000 A 
ATOM     16  C   UNL     1       5.672   4.251  17.070  0.00  0.00    +0.000 A 
ATOM     17  C   UNL     1       5.852   4.542  18.412  0.00  0.00    +0.000 A 
ATOM     18  N   UNL     1       5.182   5.512  19.071  0.00  0.00    +0.000 NA
ENDBRANCH  10  13
BRANCH  11  19
ATOM     19  N   UNL     1       2.842   5.510  20.884  0.00  0.00    +0.000 NA
ATOM     20  H   UNL     1       2.927   5.799  21.871  0.00  0.00    +0.000 HD
BRANCH  19  21
ATOM     21  S   UNL     1       1.851   4.099  20.907  0.00  0.00    +0.000 S 
ATOM     22  O   UNL     1       1.986   3.411  22.167  0.00  0.00    +0.000 OA
ATOM     23  O   UNL     1       0.550   4.503  20.413  0.00  0.00    +0.000 OA
BRANCH  21  24
ATOM     24  C   UNL     1       2.579   3.071  19.652  0.00  0.00    +0.000 A 
ATOM     25  C   UNL     1       3.637   2.210  19.960  0.00  0.00    +0.000 A 
ATOM     26  C   UNL     1       4.149   1.375  18.965  0.00  0.00    +0.000 A 
ATOM     27  C   UNL     1       3.609   1.408  17.677  0.00  0.00    +0.000 A 
ATOM     28  C   UNL     1       2.556   2.272  17.377  0.00  0.00    +0.000 A 
ATOM     29  C   UNL     1       2.032   3.100  18.366  0.00  0.00    +0.000 A 
ENDBRANCH  21  24
ENDBRANCH  19  21
ENDBRANCH  11  19
TORSDOF 4
ENDMDL
MODEL 3
REMARK VINA RESULT:      -7.6      2.833      4.591
REMARK  Name = 
REMARK  4 active torsions:
REMARK  status: ('A' for Active; 'I' for Inactive)
REMARK    1  A    between atoms: C_10  and  C_11
REMARK    2  A    between atoms: N_17  and  N_18
REMARK    3  A    between atoms: N_18  and  S_19
REMARK    4  A    between atoms: S_19  and  C_22
REMARK                            x       y       z     vdW  Elec       q    Type
REMARK                         _______ _______ _______ _____ _____    ______ ____
ROOT
ATOM      1  O   UNL     1       2.833   8.581  17.297  0.00  0.00    +0.000 OA
ATOM      2  C   UNL     1       2.571   7.833  18.237  0.00  0.00    +0.000 C 
ATOM      3  C   UNL     1       1.800   8.303  19.411  0.00  0.00    +0.000 A 
ATOM      4  C   UNL     1       1.513   9.664  19.576  0.00  0.00    +0.000 A 
ATOM      5  C   UNL     1       0.895  10.101  20.749  0.00  0.00    +0.000 A 
ATOM      6  C   UNL     1       0.564   9.181  21.742  0.00  0.00    +0.000 A 
ATOM      7  C   UNL     1       0.836   7.824  21.560  0.00  0.00    +0.000 A 
ATOM      8  C   UNL     1       1.432   7.365  20.382  0.00  0.00    +0.000 A 
ATOM      9  N   UNL     1       1.798   6.025  20.284  0.00  0.00    +0.000 N 
ATOM     10  C   UNL     1       2.176   5.524  18.957  0.00  0.00    +0.000 C 
ATOM     11  N   UNL     1       3.038   6.520  18.313  0.00  0.00    +0.000 N 
ATOM     12  H   UNL     1       1.174   5.388  20.772  0.00  0.00    +0.000 HD
ENDROOT
BRANCH  10  13
ATOM     13  C   UNL     1       2.793   4.134  19.110  0.00  0.00    +0.000 A 
ATOM     14  C   UNL     1       3.286   3.720  20.354  0.00  0.00    +0.000 A 
ATOM     15  C   UNL     1       3.900   2.481  20.461  0.00  0.00    +0.000 A 
ATOM     16  C   UNL     1       4.031   1.692  19.328  0.00  0.00    +0.000 A 
ATOM     17  C   UNL     1       3.512   2.163  18.133  0.00  0.00    +0.000 A 
ATOM     18  N   UNL     1       2.870   3.345  18.001  0.00  0.00    +0.000 NA
ENDBRANCH  10  13
BRANCH  11  19
ATOM     19  N   UNL     1       3.748   6.049  17.076  0.00  0.00    +0.000 NA
ATOM     20  H   UNL     1       3.535   6.650  16.265  0.00  0.00    +0.000 HD
BRANCH  19  21
ATOM     21  S   UNL     1       5.470   5.990  17.161  0.00  0.00    +0.000 S 
ATOM     22  O   UNL     1       6.020   7.324  17.141  0.00  0.00    +0.000 OA
ATOM     23  O   UNL     1       5.797   5.065  18.226  0.00  0.00    +0.000 OA
BRANCH  21  24
ATOM     24  C   UNL     1       5.925   5.198  15.635  0.00  0.00    +0.000 A 
ATOM     25  C   UNL     1       5.045   4.318  14.998  0.00  0.00    +0.000 A 
ATOM     26  C   UNL     1       5.410   3.755  13.773  0.00  0.00    +0.000 A 
ATOM     27  C   UNL     1       6.645   4.069  13.200  0.00  0.00    +0.000 A 
ATOM     28  C   UNL     1       7.518   4.945  13.843  0.00  0.00    +0.000 A 
ATOM     29  C   UNL     1       7.157   5.519  15.060  0.00  0.00    +0.000 A 
ENDBRANCH  21  24
ENDBRANCH  19  21
ENDBRANCH  11  19
TORSDOF 4
ENDMDL
MODEL 4
REMARK VINA RESULT:      -7.6      7.069      9.970
REMARK  Name = 
REMARK  4 active torsions:
REMARK  status: ('A' for Active; 'I' for Inactive)
REMARK    1  A    between atoms: C_10  and  C_11
REMARK    2  A    between atoms: N_17  and  N_18
REMARK    3  A    between atoms: N_18  and  S_19
REMARK    4  A    between atoms: S_19  and  C_22
REMARK                            x       y       z     vdW  Elec       q    Type
REMARK                         _______ _______ _______ _____ _____    ______ ____
ROOT
ATOM      1  O   UNL     1       1.120   6.927  21.273  0.00  0.00    +0.000 OA
ATOM      2  C   UNL     1       1.461   7.593  20.297  0.00  0.00    +0.000 C 
ATOM      3  C   UNL     1       2.452   7.086  19.320  0.00  0.00    +0.000 A 
ATOM      4  C   UNL     1       3.177   5.917  19.582  0.00  0.00    +0.000 A 
ATOM      5  C   UNL     1       4.192   5.525  18.708  0.00  0.00    +0.000 A 
ATOM      6  C   UNL     1       4.473   6.295  17.582  0.00  0.00    +0.000 A 
ATOM      7  C   UNL     1       3.733   7.449  17.319  0.00  0.00    +0.000 A 
ATOM      8  C   UNL     1       2.696   7.844  18.169  0.00  0.00    +0.000 A 
ATOM      9  N   UNL     1       2.059   9.061  17.943  0.00  0.00    +0.000 N 
ATOM     10  C   UNL     1       0.818   9.321  18.683  0.00  0.00    +0.000 C 
ATOM     11  N   UNL     1       1.009   8.894  20.073  0.00  0.00    +0.000 N 
ATOM     12  H   UNL     1       1.981   9.312  16.961  0.00  0.00    +0.000 HD
ENDROOT
BRANCH  10  13
ATOM     13  C   UNL     1       0.434  10.790  18.504  0.00  0.00    +0.000 A 
ATOM     14  C   UNL     1       1.419  11.783  18.559  0.00  0.00    +0.000 A 
ATOM     15  C   UNL     1       1.045  13.115  18.457  0.00  0.00    +0.000 A 
ATOM     16  C   UNL     1      -0.300  13.430  18.325  0.00  0.00    +0.000 A 
ATOM     17  C   UNL     1      -1.217  12.395  18.270  0.00  0.00    +0.000 A 
ATOM     18  N   UNL     1      -0.884  11.086  18.323  0.00  0.00    +0.000 NA
ENDBRANCH  10  13
BRANCH  11  19
ATOM     19  N   UNL     1      -0.052   9.349  21.035  0.00  0.00    +0.000 NA
ATOM     20  H   UNL     1      -0.518   8.550  21.489  0.00  0.00    +0.000 HD
BRANCH  19  21
ATOM     21  S   UNL     1       0.475  10.364  22.325  0.00  0.00    +0.000 S 
ATOM     22  O   UNL     1       0.515   9.624  23.563  0.00  0.00    +0.000 OA
ATOM     23  O   UNL     1       1.643  11.071  21.841  0.00  0.00    +0.000 OA
BRANCH  21  24
ATOM     24  C   UNL     1      -0.831  11.564  22.458  0.00  0.00    +0.000 A 
ATOM     25  C   UNL     1      -1.987  11.281  23.194  0.00  0.00    +0.000 A 
ATOM     26  C   UNL     1      -2.969  12.265  23.326  0.00  0.00    +0.000 A 
ATOM     27  C   UNL     1      -2.795  13.513  22.723  0.00  0.00    +0.000 A 
ATOM     28  C   UNL     1      -1.641  13.786  21.988  0.00  0.00    +0.000 A 
ATOM     29  C   UNL     1      -0.652  12.814  21.861  0.00  0.00    +0.000 A 
ENDBRANCH  21  24
ENDBRANCH  19  21
ENDBRANCH  11  19
TORSDOF 4
ENDMDL
MODEL 5
REMARK VINA RESULT:      -7.6      3.969      6.360
REMARK  Name = 
REMARK  4 active torsions:
REMARK  status: ('A' for Active; 'I' for Inactive)
REMARK    1  A    between atoms: C_10  and  C_11
REMARK    2  A    between atoms: N_17  and  N_18
REMARK    3  A    between atoms: N_18  and  S_19
REMARK    4  A    between atoms: S_19  and  C_22
REMARK                            x       y       z     vdW  Elec       q    Type
REMARK                         _______ _______ _______ _____ _____    ______ ____
ROOT
ATOM      1  O   UNL     1       2.230   8.883  17.391  0.00  0.00    +0.000 OA
ATOM      2  C   UNL     1       1.909   8.508  18.517  0.00  0.00    +0.000 C 
ATOM      3  C   UNL     1       1.377   9.451  19.527  0.00  0.00    +0.000 A 
ATOM      4  C   UNL     1       1.407  10.833  19.297  0.00  0.00    +0.000 A 
ATOM      5  C   UNL     1       1.016  11.708  20.311  0.00  0.00    +0.000 A 
ATOM      6  C   UNL     1       0.595  11.204  21.540  0.00  0.00    +0.000 A 
ATOM      7  C   UNL     1       0.551   9.825  21.753  0.00  0.00    +0.000 A 
ATOM      8  C   UNL     1       0.915   8.931  20.742  0.00  0.00    +0.000 A 
ATOM      9  N   UNL     1       0.974   7.570  21.027  0.00  0.00    +0.000 N 
ATOM     10  C   UNL     1       1.102   6.647  19.892  0.00  0.00    +0.000 C 
ATOM     11  N   UNL     1       2.089   7.196  18.958  0.00  0.00    +0.000 N 
ATOM     12  H   UNL     1       0.280   7.258  21.701  0.00  0.00    +0.000 HD
ENDROOT
BRANCH  10  13
ATOM     13  C   UNL     1       1.420   5.250  20.425  0.00  0.00    +0.000 A 
ATOM     14  C   UNL     1       0.684   4.146  19.976  0.00  0.00    +0.000 A 
ATOM     15  C   UNL     1       0.943   2.895  20.516  0.00  0.00    +0.000 A 
ATOM     16  C   UNL     1       1.910   2.773  21.503  0.00  0.00    +0.000 A 
ATOM     17  C   UNL     1       2.603   3.907  21.891  0.00  0.00    +0.000 A 
ATOM     18  N   UNL     1       2.407   5.132  21.357  0.00  0.00    +0.000 NA
ENDBRANCH  10  13
BRANCH  11  19
ATOM     19  N   UNL     1       2.556   6.249  17.889  0.00  0.00    +0.000 NA
ATOM     20  H   UNL     1       2.468   6.665  16.950  0.00  0.00    +0.000 HD
BRANCH  19  21
ATOM     21  S   UNL     1       4.193   5.719  18.002  0.00  0.00    +0.000 S 
ATOM     22  O   UNL     1       4.881   5.944  16.755  0.00  0.00    +0.000 OA
ATOM     23  O   UNL     1       4.711   6.249  19.247  0.00  0.00    +0.000 OA
BRANCH  21  24
ATOM     24  C   UNL     1       4.037   3.960  18.219  0.00  0.00    +0.000 A 
ATOM     25  C   UNL     1       4.767   3.297  19.211  0.00  0.00    +0.000 A 
ATOM     26  C   UNL     1       4.580   1.925  19.393  0.00  0.00    +0.000 A 
ATOM     27  C   UNL     1       3.676   1.229  18.586  0.00  0.00    +0.000 A 
ATOM     28  C   UNL     1       2.954   1.897  17.597  0.00  0.00    +0.000 A 
ATOM     29  C   UNL     1       3.127   3.268  17.417  0.00  0.00    +0.000 A 
ENDBRANCH  21  24
ENDBRANCH  19  21
ENDBRANCH  11  19
TORSDOF 4
ENDMDL
MODEL 6
REMARK VINA RESULT:      -7.5      3.327      5.652
REMARK  Name = 
REMARK  4 active torsions:
REMARK  status: ('A' for Active; 'I' for Inactive)
REMARK    1  A    between atoms: C_10  and  C_11
REMARK    2  A    between atoms: N_17  and  N_18
REMARK    3  A    between atoms: N_18  and  S_19
REMARK    4  A    between atoms: S_19  and  C_22
REMARK                            x       y       z     vdW  Elec       q    Type
REMARK                         _______ _______ _______ _____ _____    ______ ____
ROOT
ATOM      1  O   UNL     1       2.851   8.172  17.023  0.00  0.00    +0.000 OA
ATOM      2  C   UNL     1       2.389   7.903  18.130  0.00  0.00    +0.000 C 
ATOM      3  C   UNL     1       1.769   8.940  18.985  0.00  0.00    +0.000 A 
ATOM      4  C   UNL     1       1.864  10.296  18.645  0.00  0.00    +0.000 A 
ATOM      5  C   UNL     1       1.382  11.264  19.526  0.00  0.00    +0.000 A 
ATOM      6  C   UNL     1       0.806  10.876  20.734  0.00  0.00    +0.000 A 
ATOM      7  C   UNL     1       0.698   9.522  21.058  0.00  0.00    +0.000 A 
ATOM      8  C   UNL     1       1.153   8.537  20.176  0.00  0.00    +0.000 A 
ATOM      9  N   UNL     1       1.140   7.205  20.581  0.00  0.00    +0.000 N 
ATOM     10  C   UNL     1       1.374   6.185  19.552  0.00  0.00    +0.000 C 
ATOM     11  N   UNL     1       2.479   6.632  18.699  0.00  0.00    +0.000 N 
ATOM     12  H   UNL     1       0.362   6.966  21.191  0.00  0.00    +0.000 HD
ENDROOT
BRANCH  10  13
ATOM     13  C   UNL     1       1.587   4.834  20.235  0.00  0.00    +0.000 A 
ATOM     14  C   UNL     1       0.924   3.696  19.759  0.00  0.00    +0.000 A 
ATOM     15  C   UNL     1       1.080   2.492  20.429  0.00  0.00    +0.000 A 
ATOM     16  C   UNL     1       1.872   2.449  21.567  0.00  0.00    +0.000 A 
ATOM     17  C   UNL     1       2.503   3.612  21.974  0.00  0.00    +0.000 A 
ATOM     18  N   UNL     1       2.409   4.792  21.322  0.00  0.00    +0.000 NA
ENDBRANCH  10  13
BRANCH  11  19
ATOM     19  N   UNL     1       3.041   5.586  17.778  0.00  0.00    +0.000 NA
ATOM     20  H   UNL     1       3.217   5.967  16.836  0.00  0.00    +0.000 HD
BRANCH  19  21
ATOM     21  S   UNL     1       4.529   4.863  18.263  0.00  0.00    +0.000 S 
ATOM     22  O   UNL     1       5.226   5.721  19.189  0.00  0.00    +0.000 OA
ATOM     23  O   UNL     1       4.225   3.488  18.605  0.00  0.00    +0.000 OA
BRANCH  21  24
ATOM     24  C   UNL     1       5.472   4.820  16.756  0.00  0.00    +0.000 A 
ATOM     25  C   UNL     1       6.828   5.162  16.753  0.00  0.00    +0.000 A 
ATOM     26  C   UNL     1       7.553   5.065  15.564  0.00  0.00    +0.000 A 
ATOM     27  C   UNL     1       6.924   4.635  14.393  0.00  0.00    +0.000 A 
ATOM     28  C   UNL     1       5.570   4.299  14.404  0.00  0.00    +0.000 A 
ATOM     29  C   UNL     1       4.842   4.383  15.588  0.00  0.00    +0.000 A 
ENDBRANCH  21  24
ENDBRANCH  19  21
ENDBRANCH  11  19
TORSDOF 4
ENDMDL
MODEL 7
REMARK VINA RESULT:      -7.5      2.568      4.433
REMARK  Name = 
REMARK  4 active torsions:
REMARK  status: ('A' for Active; 'I' for Inactive)
REMARK    1  A    between atoms: C_10  and  C_11
REMARK    2  A    between atoms: N_17  and  N_18
REMARK    3  A    between atoms: N_18  and  S_19
REMARK    4  A    between atoms: S_19  and  C_22
REMARK                            x       y       z     vdW  Elec       q    Type
REMARK                         _______ _______ _______ _____ _____    ______ ____
ROOT
ATOM      1  O   UNL     1       3.163   8.087  16.668  0.00  0.00    +0.000 OA
ATOM      2  C   UNL     1       2.934   7.398  17.661  0.00  0.00    +0.000 C 
ATOM      3  C   UNL     1       2.188   7.936  18.822  0.00  0.00    +0.000 A 
ATOM      4  C   UNL     1       1.890   9.302  18.907  0.00  0.00    +0.000 A 
ATOM      5  C   UNL     1       1.297   9.808  20.065  0.00  0.00    +0.000 A 
ATOM      6  C   UNL     1       1.002   8.951  21.123  0.00  0.00    +0.000 A 
ATOM      7  C   UNL     1       1.285   7.588  21.023  0.00  0.00    +0.000 A 
ATOM      8  C   UNL     1       1.856   7.059  19.861  0.00  0.00    +0.000 A 
ATOM      9  N   UNL     1       2.235   5.720  19.840  0.00  0.00    +0.000 N 
ATOM     10  C   UNL     1       2.584   5.138  18.538  0.00  0.00    +0.000 C 
ATOM     11  N   UNL     1       3.418   6.098  17.809  0.00  0.00    +0.000 N 
ATOM     12  H   UNL     1       1.631   5.110  20.385  0.00  0.00    +0.000 HD
ENDROOT
BRANCH  10  13
ATOM     13  C   UNL     1       3.222   3.767  18.765  0.00  0.00    +0.000 A 
ATOM     14  C   UNL     1       2.967   2.720  17.870  0.00  0.00    +0.000 A 
ATOM     15  C   UNL     1       3.502   1.466  18.125  0.00  0.00    +0.000 A 
ATOM     16  C   UNL     1       4.259   1.275  19.272  0.00  0.00    +0.000 A 
ATOM     17  C   UNL     1       4.476   2.359  20.106  0.00  0.00    +0.000 A 
ATOM     18  N   UNL     1       4.006   3.603  19.867  0.00  0.00    +0.000 NA
ENDBRANCH  10  13
BRANCH  11  19
ATOM     19  N   UNL     1       4.102   5.555  16.587  0.00  0.00    +0.000 NA
ATOM     20  H   UNL     1       3.800   6.050  15.734  0.00  0.00    +0.000 HD
BRANCH  19  21
ATOM     21  S   UNL     1       5.824   5.638  16.577  0.00  0.00    +0.000 S 
ATOM     22  O   UNL     1       6.262   7.008  16.678  0.00  0.00    +0.000 OA
ATOM     23  O   UNL     1       6.289   4.635  17.514  0.00  0.00    +0.000 OA
BRANCH  21  24
ATOM     24  C   UNL     1       6.250   5.056  14.951  0.00  0.00    +0.000 A 
ATOM     25  C   UNL     1       7.425   5.485  14.325  0.00  0.00    +0.000 A 
ATOM     26  C   UNL     1       7.758   4.966  13.072  0.00  0.00    +0.000 A 
ATOM     27  C   UNL     1       6.921   4.033  12.455  0.00  0.00    +0.000 A 
ATOM     28  C   UNL     1       5.750   3.613  13.085  0.00  0.00    +0.000 A 
ATOM     29  C   UNL     1       5.415   4.118  14.339  0.00  0.00    +0.000 A 
ENDBRANCH  21  24
ENDBRANCH  19  21
ENDBRANCH  11  19
TORSDOF 4
ENDMDL
MODEL 8
REMARK VINA RESULT:      -7.5      9.787     12.484
REMARK  Name = 
REMARK  4 active torsions:
REMARK  status: ('A' for Active; 'I' for Inactive)
REMARK    1  A    between atoms: C_10  and  C_11
REMARK    2  A    between atoms: N_17  and  N_18
REMARK    3  A    between atoms: N_18  and  S_19
REMARK    4  A    between atoms: S_19  and  C_22
REMARK                            x       y       z     vdW  Elec       q    Type
REMARK                         _______ _______ _______ _____ _____    ______ ____
ROOT
ATOM      1  O   UNL     1      -0.647  10.603  18.077  0.00  0.00    +0.000 OA
ATOM      2  C   UNL     1      -1.011  10.855  19.225  0.00  0.00    +0.000 C 
ATOM      3  C   UNL     1      -0.298  10.309  20.402  0.00  0.00    +0.000 A 
ATOM      4  C   UNL     1       0.694   9.333  20.245  0.00  0.00    +0.000 A 
ATOM      5  C   UNL     1       1.266   8.743  21.373  0.00  0.00    +0.000 A 
ATOM      6  C   UNL     1       0.851   9.132  22.645  0.00  0.00    +0.000 A 
ATOM      7  C   UNL     1      -0.125  10.119  22.792  0.00  0.00    +0.000 A 
ATOM      8  C   UNL     1      -0.692  10.739  21.674  0.00  0.00    +0.000 A 
ATOM      9  N   UNL     1      -1.745  11.631  21.854  0.00  0.00    +0.000 N 
ATOM     10  C   UNL     1      -2.138  12.452  20.702  0.00  0.00    +0.000 C 
ATOM     11  N   UNL     1      -2.156  11.600  19.510  0.00  0.00    +0.000 N 
ATOM     12  H   UNL     1      -1.687  12.174  22.711  0.00  0.00    +0.000 HD
ENDROOT
BRANCH  10  13
ATOM     13  C   UNL     1      -3.460  13.150  21.020  0.00  0.00    +0.000 A 
ATOM     14  C   UNL     1      -4.292  12.649  22.029  0.00  0.00    +0.000 A 
ATOM     15  C   UNL     1      -5.516  13.257  22.263  0.00  0.00    +0.000 A 
ATOM     16  C   UNL     1      -5.897  14.333  21.475  0.00  0.00    +0.000 A 
ATOM     17  C   UNL     1      -5.019  14.780  20.501  0.00  0.00    +0.000 A 
ATOM     18  N   UNL     1      -3.801  14.239  20.275  0.00  0.00    +0.000 NA
ENDBRANCH  10  13
BRANCH  11  19
ATOM     19  N   UNL     1      -2.812  12.203  18.300  0.00  0.00    +0.000 NA
ATOM     20  H   UNL     1      -2.116  12.480  17.591  0.00  0.00    +0.000 HD
BRANCH  19  21
ATOM     21  S   UNL     1      -3.940  11.201  17.465  0.00  0.00    +0.000 S 
ATOM     22  O   UNL     1      -3.779  11.343  16.039  0.00  0.00    +0.000 OA
ATOM     23  O   UNL     1      -3.879   9.899  18.097  0.00  0.00    +0.000 OA
BRANCH  21  24
ATOM     24  C   UNL     1      -5.513  11.909  17.901  0.00  0.00    +0.000 A 
ATOM     25  C   UNL     1      -6.234  11.425  18.997  0.00  0.00    +0.000 A 
ATOM     26  C   UNL     1      -7.438  12.039  19.346  0.00  0.00    +0.000 A 
ATOM     27  C   UNL     1      -7.914  13.121  18.602  0.00  0.00    +0.000 A 
ATOM     28  C   UNL     1      -7.190  13.596  17.508  0.00  0.00    +0.000 A 
ATOM     29  C   UNL     1      -5.983  12.996  17.159  0.00  0.00    +0.000 A 
ENDBRANCH  21  24
ENDBRANCH  19  21
ENDBRANCH  11  19
TORSDOF 4
ENDMDL
MODEL 9
REMARK VINA RESULT:      -7.4     11.341     14.391
REMARK  Name = 
REMARK  4 active torsions:
REMARK  status: ('A' for Active; 'I' for Inactive)
REMARK    1  A    between atoms: C_10  and  C_11
REMARK    2  A    between atoms: N_17  and  N_18
REMARK    3  A    between atoms: N_18  and  S_19
REMARK    4  A    between atoms: S_19  and  C_22
REMARK                            x       y       z     vdW  Elec       q    Type
REMARK                         _______ _______ _______ _____ _____    ______ ____
ROOT
ATOM      1  O   UNL     1      -4.184  11.826  17.630  0.00  0.00    +0.000 OA
ATOM      2  C   UNL     1      -3.463  11.915  18.623  0.00  0.00    +0.000 C 
ATOM      3  C   UNL     1      -2.134  11.266  18.676  0.00  0.00    +0.000 A 
ATOM      4  C   UNL     1      -1.738  10.368  17.676  0.00  0.00    +0.000 A 
ATOM      5  C   UNL     1      -0.535   9.674  17.810  0.00  0.00    +0.000 A 
ATOM      6  C   UNL     1       0.265   9.881  18.932  0.00  0.00    +0.000 A 
ATOM      7  C   UNL     1      -0.128  10.792  19.915  0.00  0.00    +0.000 A 
ATOM      8  C   UNL     1      -1.318  11.515  19.786  0.00  0.00    +0.000 A 
ATOM      9  N   UNL     1      -1.739  12.323  20.839  0.00  0.00    +0.000 N 
ATOM     10  C   UNL     1      -2.838  13.259  20.574  0.00  0.00    +0.000 C 
ATOM     11  N   UNL     1      -3.864  12.560  19.793  0.00  0.00    +0.000 N 
ATOM     12  H   UNL     1      -0.979  12.758  21.356  0.00  0.00    +0.000 HD
ENDROOT
BRANCH  10  13
ATOM     13  C   UNL     1      -3.320  13.844  21.901  0.00  0.00    +0.000 A 
ATOM     14  C   UNL     1      -3.432  13.022  23.029  0.00  0.00    +0.000 A 
ATOM     15  C   UNL     1      -3.931  13.554  24.209  0.00  0.00    +0.000 A 
ATOM     16  C   UNL     1      -4.328  14.883  24.235  0.00  0.00    +0.000 A 
ATOM     17  C   UNL     1      -4.180  15.638  23.083  0.00  0.00    +0.000 A 
ATOM     18  N   UNL     1      -3.659  15.164  21.930  0.00  0.00    +0.000 NA
ENDBRANCH  10  13
BRANCH  11  19
ATOM     19  N   UNL     1      -5.181  13.273  19.681  0.00  0.00    +0.000 NA
ATOM     20  H   UNL     1      -5.360  13.586  18.715  0.00  0.00    +0.000 HD
BRANCH  19  21
ATOM     21  S   UNL     1      -6.578  12.370  20.135  0.00  0.00    +0.000 S 
ATOM     22  O   UNL     1      -7.611  12.508  19.138  0.00  0.00    +0.000 OA
ATOM     23  O   UNL     1      -6.107  11.063  20.545  0.00  0.00    +0.000 OA
BRANCH  21  24
ATOM     24  C   UNL     1      -7.137  13.199  21.606  0.00  0.00    +0.000 A 
ATOM     25  C   UNL     1      -7.243  12.507  22.817  0.00  0.00    +0.000 A 
ATOM     26  C   UNL     1      -7.631  13.200  23.966  0.00  0.00    +0.000 A 
ATOM     27  C   UNL     1      -7.914  14.566  23.898  0.00  0.00    +0.000 A 
ATOM     28  C   UNL     1      -7.809  15.248  22.686  0.00  0.00    +0.000 A 
ATOM     29  C   UNL     1      -7.413  14.567  21.537  0.00  0.00    +0.000 A 
ENDBRANCH  21  24
ENDBRANCH  19  21
ENDBRANCH  11  19
TORSDOF 4
ENDMDL
