MODEL 1
REMARK VINA RESULT:      -8.3      0.000      0.000
REMARK  Name = 
REMARK  2 active torsions:
REMARK  status: ('A' for Active; 'I' for Inactive)
REMARK    1  A    between atoms: C_4  and  C_5
REMARK    2  A    between atoms: C_8  and  C_9
REMARK                            x       y       z     vdW  Elec       q    Type
REMARK                         _______ _______ _______ _____ _____    ______ ____
ROOT
ATOM      1  C   UNL     1       2.509   7.394  18.846  0.00  0.00    +0.000 A 
ATOM      2  N   UNL     1       1.873   6.311  19.280  0.00  0.00    +0.000 NA
ATOM      3  C   UNL     1       2.579   5.191  19.233  0.00  0.00    +0.000 A 
ATOM      4  N   UNL     1       2.007   4.036  19.666  0.00  0.00    +0.000 N 
ATOM      5  C   UNL     1       0.653   3.907  20.196  0.00  0.00    +0.000 C 
ATOM      6  C   UNL     1       0.710   2.442  20.720  0.00  0.00    +0.000 C 
ATOM      7  C   UNL     1       1.674   1.770  19.749  0.00  0.00    +0.000 C 
ATOM      8  C   UNL     1       2.747   2.822  20.007  0.00  0.00    +0.000 C 
ATOM      9  C   UNL     1       2.840   2.715  21.544  0.00  0.00    +0.000 C 
ATOM     10  O   UNL     1       1.467   2.434  21.964  0.00  0.00    +0.000 OA
ATOM     11  N   UNL     1       3.817   5.117  18.750  0.00  0.00    +0.000 NA
ATOM     12  C   UNL     1       4.354   6.234  18.284  0.00  0.00    +0.000 A 
ATOM     13  N   UNL     1       5.596   6.205  17.752  0.00  0.00    +0.000 N 
ATOM     14  C   UNL     1       6.311   7.374  17.247  0.00  0.00    +0.000 C 
ATOM     15  C   UNL     1       7.670   6.723  16.876  0.00  0.00    +0.000 C 
ATOM     16  C   UNL     1       7.825   5.659  17.955  0.00  0.00    +0.000 C 
ATOM     17  C   UNL     1       6.469   5.042  17.617  0.00  0.00    +0.000 C 
ATOM     18  C   UNL     1       6.677   4.791  16.111  0.00  0.00    +0.000 C 
ATOM     19  O   UNL     1       7.490   5.926  15.671  0.00  0.00    +0.000 OA
ATOM     20  N   UNL     1       3.727   7.396  18.320  0.00  0.00    +0.000 NA
ENDROOT
BRANCH   1  25
ATOM     21  N   UNL     1      -0.034  12.429  18.893  0.00  0.00    +0.000 N 
ATOM     22  C   UNL     1       0.619  11.204  18.947  0.00  0.00    +0.000 A 
ATOM     23  C   UNL     1       0.448  10.367  20.036  0.00  0.00    +0.000 A 
ATOM     24  C   UNL     1       1.069   9.107  20.053  0.00  0.00    +0.000 A 
ATOM     25  C   UNL     1       1.830   8.696  18.938  0.00  0.00    +0.000 A 
ATOM     26  C   UNL     1       1.925   9.619  17.897  0.00  0.00    +0.000 A 
ATOM     27  N   UNL     1       1.350  10.852  17.882  0.00  0.00    +0.000 NA
ATOM     28  H   UNL     1       0.070  12.973  19.739  0.00  0.00    +0.000 HD
ATOM     29  H   UNL     1       0.290  12.920  18.065  0.00  0.00    +0.000 HD
BRANCH  24  30
ATOM     30  C   UNL     1       0.891   8.224  21.265  0.00  0.00    +0.000 C 
ATOM     31  F   UNL     1       1.486   8.722  22.389  0.00  0.00    +0.000 F 
ATOM     32  F   UNL     1      -0.416   8.045  21.602  0.00  0.00    +0.000 F 
ENDBRANCH  24  30
ENDBRANCH   1  25
TORSDOF 2
ENDMDL
MODEL 2
REMARK VINA RESULT:      -8.3      0.699      5.048
REMARK  Name = 
REMARK  2 active torsions:
REMARK  status: ('A' for Active; 'I' for Inactive)
REMARK    1  A    between atoms: C_4  and  C_5
REMARK    2  A    between atoms: C_8  and  C_9
REMARK                            x       y       z     vdW  Elec       q    Type
REMARK                         _______ _______ _______ _____ _____    ______ ____
ROOT
ATOM      1  C   UNL     1       2.736   7.275  18.709  0.00  0.00    +0.000 A 
ATOM      2  N   UNL     1       3.847   7.181  17.986  0.00  0.00    +0.000 NA
ATOM      3  C   UNL     1       4.350   5.958  17.890  0.00  0.00    +0.000 A 
ATOM      4  N   UNL     1       5.482   5.770  17.162  0.00  0.00    +0.000 N 
ATOM      5  C   UNL     1       6.217   6.813  16.452  0.00  0.00    +0.000 C 
ATOM      6  C   UNL     1       7.221   5.934  15.650  0.00  0.00    +0.000 C 
ATOM      7  C   UNL     1       7.445   4.743  16.575  0.00  0.00    +0.000 C 
ATOM      8  C   UNL     1       5.948   4.473  16.673  0.00  0.00    +0.000 C 
ATOM      9  C   UNL     1       5.613   4.361  15.172  0.00  0.00    +0.000 C 
ATOM     10  O   UNL     1       6.505   5.329  14.535  0.00  0.00    +0.000 OA
ATOM     11  N   UNL     1       3.830   4.895  18.498  0.00  0.00    +0.000 NA
ATOM     12  C   UNL     1       2.755   5.089  19.246  0.00  0.00    +0.000 A 
ATOM     13  N   UNL     1       2.208   4.048  19.911  0.00  0.00    +0.000 N 
ATOM     14  C   UNL     1       1.002   4.126  20.730  0.00  0.00    +0.000 C 
ATOM     15  C   UNL     1       0.844   2.633  21.126  0.00  0.00    +0.000 C 
ATOM     16  C   UNL     1       1.343   1.913  19.880  0.00  0.00    +0.000 C 
ATOM     17  C   UNL     1       2.673   2.663  19.912  0.00  0.00    +0.000 C 
ATOM     18  C   UNL     1       3.115   2.324  21.349  0.00  0.00    +0.000 C 
ATOM     19  O   UNL     1       1.865   2.303  22.110  0.00  0.00    +0.000 OA
ATOM     20  N   UNL     1       2.177   6.271  19.371  0.00  0.00    +0.000 NA
ENDROOT
BRANCH   1  25
ATOM     21  N   UNL     1       0.212  12.319  18.761  0.00  0.00    +0.000 N 
ATOM     22  C   UNL     1       0.861  11.092  18.813  0.00  0.00    +0.000 A 
ATOM     23  C   UNL     1       0.690  10.256  19.903  0.00  0.00    +0.000 A 
ATOM     24  C   UNL     1       1.306   8.993  19.919  0.00  0.00    +0.000 A 
ATOM     25  C   UNL     1       2.063   8.580  18.802  0.00  0.00    +0.000 A 
ATOM     26  C   UNL     1       2.158   9.501  17.760  0.00  0.00    +0.000 A 
ATOM     27  N   UNL     1       1.588  10.737  17.747  0.00  0.00    +0.000 NA
ATOM     28  H   UNL     1       0.321  12.863  19.607  0.00  0.00    +0.000 HD
ATOM     29  H   UNL     1       0.536  12.809  17.931  0.00  0.00    +0.000 HD
BRANCH  24  30
ATOM     30  C   UNL     1       1.127   8.112  21.131  0.00  0.00    +0.000 C 
ATOM     31  F   UNL     1       1.675   8.637  22.267  0.00  0.00    +0.000 F 
ATOM     32  F   UNL     1      -0.181   7.888  21.435  0.00  0.00    +0.000 F 
ENDBRANCH  24  30
ENDBRANCH   1  25
TORSDOF 2
ENDMDL
MODEL 3
REMARK VINA RESULT:      -8.0      8.444     10.787
REMARK  Name = 
REMARK  2 active torsions:
REMARK  status: ('A' for Active; 'I' for Inactive)
REMARK    1  A    between atoms: C_4  and  C_5
REMARK    2  A    between atoms: C_8  and  C_9
REMARK                            x       y       z     vdW  Elec       q    Type
REMARK                         _______ _______ _______ _____ _____    ______ ____
ROOT
ATOM      1  C   UNL     1       8.251  14.014  19.717  0.00  0.00    +0.000 A 
ATOM      2  N   UNL     1       8.454  13.633  20.973  0.00  0.00    +0.000 NA
ATOM      3  C   UNL     1       7.437  13.850  21.795  0.00  0.00    +0.000 A 
ATOM      4  N   UNL     1       7.557  13.482  23.098  0.00  0.00    +0.000 N 
ATOM      5  C   UNL     1       8.728  12.850  23.697  0.00  0.00    +0.000 C 
ATOM      6  C   UNL     1       8.147  12.477  25.093  0.00  0.00    +0.000 C 
ATOM      7  C   UNL     1       7.137  13.590  25.349  0.00  0.00    +0.000 C 
ATOM      8  C   UNL     1       6.434  13.327  24.022  0.00  0.00    +0.000 C 
ATOM      9  C   UNL     1       6.137  11.822  24.189  0.00  0.00    +0.000 C 
ATOM     10  O   UNL     1       7.289  11.312  24.930  0.00  0.00    +0.000 OA
ATOM     11  N   UNL     1       6.305  14.445  21.428  0.00  0.00    +0.000 NA
ATOM     12  C   UNL     1       6.210  14.846  20.170  0.00  0.00    +0.000 A 
ATOM     13  N   UNL     1       5.093  15.485  19.757  0.00  0.00    +0.000 N 
ATOM     14  C   UNL     1       4.852  15.936  18.389  0.00  0.00    +0.000 C 
ATOM     15  C   UNL     1       3.408  16.486  18.533  0.00  0.00    +0.000 C 
ATOM     16  C   UNL     1       2.799  15.533  19.554  0.00  0.00    +0.000 C 
ATOM     17  C   UNL     1       3.916  15.808  20.558  0.00  0.00    +0.000 C 
ATOM     18  C   UNL     1       3.813  17.345  20.632  0.00  0.00    +0.000 C 
ATOM     19  O   UNL     1       3.461  17.742  19.268  0.00  0.00    +0.000 OA
ATOM     20  N   UNL     1       7.167  14.642  19.282  0.00  0.00    +0.000 NA
ENDROOT
BRANCH   1  25
ATOM     21  N   UNL     1      12.332  13.255  15.897  0.00  0.00    +0.000 N 
ATOM     22  C   UNL     1      11.286  13.396  16.801  0.00  0.00    +0.000 A 
ATOM     23  C   UNL     1      10.706  12.280  17.378  0.00  0.00    +0.000 A 
ATOM     24  C   UNL     1       9.686  12.437  18.333  0.00  0.00    +0.000 A 
ATOM     25  C   UNL     1       9.295  13.737  18.718  0.00  0.00    +0.000 A 
ATOM     26  C   UNL     1       9.956  14.783  18.076  0.00  0.00    +0.000 A 
ATOM     27  N   UNL     1      10.924  14.642  17.131  0.00  0.00    +0.000 NA
ATOM     28  H   UNL     1      12.143  12.577  15.172  0.00  0.00    +0.000 HD
ATOM     29  H   UNL     1      12.554  14.176  15.529  0.00  0.00    +0.000 HD
BRANCH  24  30
ATOM     30  C   UNL     1       9.050  11.204  18.926  0.00  0.00    +0.000 C 
ATOM     31  F   UNL     1       8.702  10.271  17.991  0.00  0.00    +0.000 F 
ATOM     32  F   UNL     1       9.868  10.551  19.795  0.00  0.00    +0.000 F 
ENDBRANCH  24  30
ENDBRANCH   1  25
TORSDOF 2
ENDMDL
MODEL 4
REMARK VINA RESULT:      -7.7      3.061      6.160
REMARK  Name = 
REMARK  2 active torsions:
REMARK  status: ('A' for Active; 'I' for Inactive)
REMARK    1  A    between atoms: C_4  and  C_5
REMARK    2  A    between atoms: C_8  and  C_9
REMARK                            x       y       z     vdW  Elec       q    Type
REMARK                         _______ _______ _______ _____ _____    ______ ____
ROOT
ATOM      1  C   UNL     1       4.371   6.110  17.583  0.00  0.00    +0.000 A 
ATOM      2  N   UNL     1       4.127   5.090  18.399  0.00  0.00    +0.000 NA
ATOM      3  C   UNL     1       3.111   5.269  19.231  0.00  0.00    +0.000 A 
ATOM      4  N   UNL     1       2.787   4.272  20.095  0.00  0.00    +0.000 N 
ATOM      5  C   UNL     1       3.466   2.984  20.197  0.00  0.00    +0.000 C 
ATOM      6  C   UNL     1       2.489   2.242  21.156  0.00  0.00    +0.000 C 
ATOM      7  C   UNL     1       1.944   3.369  22.026  0.00  0.00    +0.000 C 
ATOM      8  C   UNL     1       1.512   4.171  20.804  0.00  0.00    +0.000 C 
ATOM      9  C   UNL     1       0.639   3.109  20.103  0.00  0.00    +0.000 C 
ATOM     10  O   UNL     1       1.315   1.846  20.392  0.00  0.00    +0.000 OA
ATOM     11  N   UNL     1       2.401   6.393  19.298  0.00  0.00    +0.000 NA
ATOM     12  C   UNL     1       2.749   7.380  18.489  0.00  0.00    +0.000 A 
ATOM     13  N   UNL     1       2.081   8.554  18.542  0.00  0.00    +0.000 N 
ATOM     14  C   UNL     1       2.341   9.699  17.675  0.00  0.00    +0.000 C 
ATOM     15  C   UNL     1       1.219  10.661  18.148  0.00  0.00    +0.000 C 
ATOM     16  C   UNL     1       0.083   9.699  18.472  0.00  0.00    +0.000 C 
ATOM     17  C   UNL     1       0.965   8.892  19.422  0.00  0.00    +0.000 C 
ATOM     18  C   UNL     1       1.436  10.027  20.352  0.00  0.00    +0.000 C 
ATOM     19  O   UNL     1       1.576  11.180  19.461  0.00  0.00    +0.000 OA
ATOM     20  N   UNL     1       3.731   7.272  17.612  0.00  0.00    +0.000 NA
ENDROOT
BRANCH   1  25
ATOM     21  N   UNL     1       8.201   5.537  13.481  0.00  0.00    +0.000 N 
ATOM     22  C   UNL     1       7.299   5.637  14.534  0.00  0.00    +0.000 A 
ATOM     23  C   UNL     1       7.726   6.059  15.782  0.00  0.00    +0.000 A 
ATOM     24  C   UNL     1       6.795   6.211  16.823  0.00  0.00    +0.000 A 
ATOM     25  C   UNL     1       5.428   5.966  16.570  0.00  0.00    +0.000 A 
ATOM     26  C   UNL     1       5.117   5.556  15.275  0.00  0.00    +0.000 A 
ATOM     27  N   UNL     1       6.014   5.379  14.267  0.00  0.00    +0.000 NA
ATOM     28  H   UNL     1       9.042   5.030  13.725  0.00  0.00    +0.000 HD
ATOM     29  H   UNL     1       7.711   5.132  12.688  0.00  0.00    +0.000 HD
BRANCH  24  30
ATOM     30  C   UNL     1       7.289   6.644  18.182  0.00  0.00    +0.000 C 
ATOM     31  F   UNL     1       7.940   5.654  18.862  0.00  0.00    +0.000 F 
ATOM     32  F   UNL     1       8.173   7.677  18.120  0.00  0.00    +0.000 F 
ENDBRANCH  24  30
ENDBRANCH   1  25
TORSDOF 2
ENDMDL
MODEL 5
REMARK VINA RESULT:      -7.4      8.601     11.060
REMARK  Name = 
REMARK  2 active torsions:
REMARK  status: ('A' for Active; 'I' for Inactive)
REMARK    1  A    between atoms: C_4  and  C_5
REMARK    2  A    between atoms: C_8  and  C_9
REMARK                            x       y       z     vdW  Elec       q    Type
REMARK                         _______ _______ _______ _____ _____    ______ ____
ROOT
ATOM      1  C   UNL     1       7.988  13.999  19.607  0.00  0.00    +0.000 A 
ATOM      2  N   UNL     1       6.845  14.438  19.094  0.00  0.00    +0.000 NA
ATOM      3  C   UNL     1       5.914  14.751  19.985  0.00  0.00    +0.000 A 
ATOM      4  N   UNL     1       4.716  15.217  19.546  0.00  0.00    +0.000 N 
ATOM      5  C   UNL     1       4.343  15.415  18.148  0.00  0.00    +0.000 C 
ATOM      6  C   UNL     1       2.996  16.173  18.336  0.00  0.00    +0.000 C 
ATOM      7  C   UNL     1       2.456  15.591  19.637  0.00  0.00    +0.000 C 
ATOM      8  C   UNL     1       3.745  15.924  20.380  0.00  0.00    +0.000 C 
ATOM      9  C   UNL     1       3.832  17.433  20.068  0.00  0.00    +0.000 C 
ATOM     10  O   UNL     1       3.296  17.547  18.712  0.00  0.00    +0.000 OA
ATOM     11  N   UNL     1       6.070  14.602  21.298  0.00  0.00    +0.000 NA
ATOM     12  C   UNL     1       7.221  14.103  21.721  0.00  0.00    +0.000 A 
ATOM     13  N   UNL     1       7.415  13.902  23.043  0.00  0.00    +0.000 N 
ATOM     14  C   UNL     1       8.652  13.399  23.634  0.00  0.00    +0.000 C 
ATOM     15  C   UNL     1       8.288  13.484  25.140  0.00  0.00    +0.000 C 
ATOM     16  C   UNL     1       7.412  14.729  25.193  0.00  0.00    +0.000 C 
ATOM     17  C   UNL     1       6.472  14.178  24.123  0.00  0.00    +0.000 C 
ATOM     18  C   UNL     1       6.110  12.830  24.778  0.00  0.00    +0.000 C 
ATOM     19  O   UNL     1       7.343  12.420  25.450  0.00  0.00    +0.000 OA
ATOM     20  N   UNL     1       8.208  13.793  20.900  0.00  0.00    +0.000 NA
ENDROOT
BRANCH   1  25
ATOM     21  N   UNL     1      12.333  13.184  16.104  0.00  0.00    +0.000 N 
ATOM     22  C   UNL     1      11.227  13.333  16.931  0.00  0.00    +0.000 A 
ATOM     23  C   UNL     1      10.676  12.234  17.567  0.00  0.00    +0.000 A 
ATOM     24  C   UNL     1       9.593  12.406  18.446  0.00  0.00    +0.000 A 
ATOM     25  C   UNL     1       9.106  13.706  18.696  0.00  0.00    +0.000 A 
ATOM     26  C   UNL     1       9.744  14.735  18.006  0.00  0.00    +0.000 A 
ATOM     27  N   UNL     1      10.775  14.577  17.132  0.00  0.00    +0.000 NA
ATOM     28  H   UNL     1      12.227  12.438  15.429  0.00  0.00    +0.000 HD
ATOM     29  H   UNL     1      12.524  14.083  15.671  0.00  0.00    +0.000 HD
BRANCH  24  30
ATOM     30  C   UNL     1       8.992  11.188  19.106  0.00  0.00    +0.000 C 
ATOM     31  F   UNL     1       8.811  10.142  18.247  0.00  0.00    +0.000 F 
ATOM     32  F   UNL     1       9.764  10.695  20.113  0.00  0.00    +0.000 F 
ENDBRANCH  24  30
ENDBRANCH   1  25
TORSDOF 2
ENDMDL
MODEL 6
REMARK VINA RESULT:      -7.4      5.280     10.069
REMARK  Name = 
REMARK  2 active torsions:
REMARK  status: ('A' for Active; 'I' for Inactive)
REMARK    1  A    between atoms: C_4  and  C_5
REMARK    2  A    between atoms: C_8  and  C_9
REMARK                            x       y       z     vdW  Elec       q    Type
REMARK                         _______ _______ _______ _____ _____    ______ ____
ROOT
ATOM      1  C   UNL     1      -0.927  11.358  19.740  0.00  0.00    +0.000 A 
ATOM      2  N   UNL     1      -0.577  12.349  20.552  0.00  0.00    +0.000 NA
ATOM      3  C   UNL     1      -1.570  13.146  20.923  0.00  0.00    +0.000 A 
ATOM      4  N   UNL     1      -1.302  14.182  21.760  0.00  0.00    +0.000 N 
ATOM      5  C   UNL     1       0.009  14.510  22.311  0.00  0.00    +0.000 C 
ATOM      6  C   UNL     1      -0.400  15.600  23.345  0.00  0.00    +0.000 C 
ATOM      7  C   UNL     1      -1.610  16.255  22.688  0.00  0.00    +0.000 C 
ATOM      8  C   UNL     1      -2.312  14.912  22.526  0.00  0.00    +0.000 C 
ATOM      9  C   UNL     1      -2.270  14.427  23.990  0.00  0.00    +0.000 C 
ATOM     10  O   UNL     1      -0.995  14.934  24.495  0.00  0.00    +0.000 OA
ATOM     11  N   UNL     1      -2.823  13.015  20.492  0.00  0.00    +0.000 NA
ATOM     12  C   UNL     1      -3.071  12.034  19.639  0.00  0.00    +0.000 A 
ATOM     13  N   UNL     1      -4.320  11.879  19.146  0.00  0.00    +0.000 N 
ATOM     14  C   UNL     1      -4.728  10.814  18.235  0.00  0.00    +0.000 C 
ATOM     15  C   UNL     1      -6.247  11.116  18.124  0.00  0.00    +0.000 C 
ATOM     16  C   UNL     1      -6.579  11.623  19.521  0.00  0.00    +0.000 C 
ATOM     17  C   UNL     1      -5.494  12.695  19.449  0.00  0.00    +0.000 C 
ATOM     18  C   UNL     1      -5.920  13.396  18.144  0.00  0.00    +0.000 C 
ATOM     19  O   UNL     1      -6.424  12.308  17.306  0.00  0.00    +0.000 OA
ATOM     20  N   UNL     1      -2.144  11.180  19.242  0.00  0.00    +0.000 NA
ENDROOT
BRANCH   1  25
ATOM     21  N   UNL     1       3.052   7.773  17.969  0.00  0.00    +0.000 N 
ATOM     22  C   UNL     1       2.032   8.599  18.426  0.00  0.00    +0.000 A 
ATOM     23  C   UNL     1       1.542   8.459  19.713  0.00  0.00    +0.000 A 
ATOM     24  C   UNL     1       0.551   9.337  20.182  0.00  0.00    +0.000 A 
ATOM     25  C   UNL     1       0.095  10.376  19.344  0.00  0.00    +0.000 A 
ATOM     26  C   UNL     1       0.667  10.424  18.073  0.00  0.00    +0.000 A 
ATOM     27  N   UNL     1       1.607   9.562  17.600  0.00  0.00    +0.000 NA
ATOM     28  H   UNL     1       2.877   6.792  18.145  0.00  0.00    +0.000 HD
ATOM     29  H   UNL     1       3.203   7.977  16.985  0.00  0.00    +0.000 HD
BRANCH  24  30
ATOM     30  C   UNL     1       0.012   9.146  21.579  0.00  0.00    +0.000 C 
ATOM     31  F   UNL     1      -0.822   8.070  21.695  0.00  0.00    +0.000 F 
ATOM     32  F   UNL     1       0.992   8.939  22.501  0.00  0.00    +0.000 F 
ENDBRANCH  24  30
ENDBRANCH   1  25
TORSDOF 2
ENDMDL
MODEL 7
REMARK VINA RESULT:      -7.3      8.968     11.226
REMARK  Name = 
REMARK  2 active torsions:
REMARK  status: ('A' for Active; 'I' for Inactive)
REMARK    1  A    between atoms: C_4  and  C_5
REMARK    2  A    between atoms: C_8  and  C_9
REMARK                            x       y       z     vdW  Elec       q    Type
REMARK                         _______ _______ _______ _____ _____    ______ ____
ROOT
ATOM      1  C   UNL     1       8.206  14.252  19.667  0.00  0.00    +0.000 A 
ATOM      2  N   UNL     1       8.398  13.851  20.919  0.00  0.00    +0.000 NA
ATOM      3  C   UNL     1       7.350  13.991  21.718  0.00  0.00    +0.000 A 
ATOM      4  N   UNL     1       7.458  13.598  23.015  0.00  0.00    +0.000 N 
ATOM      5  C   UNL     1       8.647  13.016  23.629  0.00  0.00    +0.000 C 
ATOM      6  C   UNL     1       8.052  12.577  25.000  0.00  0.00    +0.000 C 
ATOM      7  C   UNL     1       6.976  13.625  25.255  0.00  0.00    +0.000 C 
ATOM      8  C   UNL     1       6.322  13.358  23.905  0.00  0.00    +0.000 C 
ATOM      9  C   UNL     1       6.105  11.835  24.028  0.00  0.00    +0.000 C 
ATOM     10  O   UNL     1       7.265  11.371  24.787  0.00  0.00    +0.000 OA
ATOM     11  N   UNL     1       6.196  14.533  21.336  0.00  0.00    +0.000 NA
ATOM     12  C   UNL     1       6.111  14.959  20.086  0.00  0.00    +0.000 A 
ATOM     13  N   UNL     1       4.972  15.547  19.658  0.00  0.00    +0.000 N 
ATOM     14  C   UNL     1       4.740  16.018  18.296  0.00  0.00    +0.000 C 
ATOM     15  C   UNL     1       3.265  16.484  18.415  0.00  0.00    +0.000 C 
ATOM     16  C   UNL     1       2.684  15.474  19.397  0.00  0.00    +0.000 C 
ATOM     17  C   UNL     1       3.758  15.785  20.436  0.00  0.00    +0.000 C 
ATOM     18  C   UNL     1       3.569  17.311  20.543  0.00  0.00    +0.000 C 
ATOM     19  O   UNL     1       3.230  17.723  19.181  0.00  0.00    +0.000 OA
ATOM     20  N   UNL     1       7.100  14.831  19.219  0.00  0.00    +0.000 NA
ENDROOT
BRANCH   1  25
ATOM     21  N   UNL     1      12.247  13.216  15.869  0.00  0.00    +0.000 N 
ATOM     22  C   UNL     1      11.300  13.508  16.844  0.00  0.00    +0.000 A 
ATOM     23  C   UNL     1      11.098  14.814  17.253  0.00  0.00    +0.000 A 
ATOM     24  C   UNL     1      10.098  15.104  18.198  0.00  0.00    +0.000 A 
ATOM     25  C   UNL     1       9.288  14.058  18.689  0.00  0.00    +0.000 A 
ATOM     26  C   UNL     1       9.579  12.786  18.198  0.00  0.00    +0.000 A 
ATOM     27  N   UNL     1      10.561  12.491  17.305  0.00  0.00    +0.000 NA
ATOM     28  H   UNL     1      13.146  13.643  16.048  0.00  0.00    +0.000 HD
ATOM     29  H   UNL     1      12.300  12.206  15.778  0.00  0.00    +0.000 HD
BRANCH  24  30
ATOM     30  C   UNL     1       9.916  16.532  18.649  0.00  0.00    +0.000 C 
ATOM     31  F   UNL     1      10.454  16.783  19.879  0.00  0.00    +0.000 F 
ATOM     32  F   UNL     1      10.501  17.432  17.812  0.00  0.00    +0.000 F 
ENDBRANCH  24  30
ENDBRANCH   1  25
TORSDOF 2
ENDMDL
MODEL 8
REMARK VINA RESULT:      -7.2      8.617     10.559
REMARK  Name = 
REMARK  2 active torsions:
REMARK  status: ('A' for Active; 'I' for Inactive)
REMARK    1  A    between atoms: C_4  and  C_5
REMARK    2  A    between atoms: C_8  and  C_9
REMARK                            x       y       z     vdW  Elec       q    Type
REMARK                         _______ _______ _______ _____ _____    ______ ____
ROOT
ATOM      1  C   UNL     1       8.244  14.198  22.410  0.00  0.00    +0.000 A 
ATOM      2  N   UNL     1       7.207  14.896  21.960  0.00  0.00    +0.000 NA
ATOM      3  C   UNL     1       7.056  14.889  20.643  0.00  0.00    +0.000 A 
ATOM      4  N   UNL     1       6.015  15.572  20.099  0.00  0.00    +0.000 N 
ATOM      5  C   UNL     1       5.016  16.331  20.845  0.00  0.00    +0.000 C 
ATOM      6  C   UNL     1       4.006  16.642  19.700  0.00  0.00    +0.000 C 
ATOM      7  C   UNL     1       4.905  16.747  18.474  0.00  0.00    +0.000 C 
ATOM      8  C   UNL     1       5.514  15.375  18.739  0.00  0.00    +0.000 C 
ATOM      9  C   UNL     1       4.222  14.535  18.806  0.00  0.00    +0.000 C 
ATOM     10  O   UNL     1       3.246  15.431  19.425  0.00  0.00    +0.000 OA
ATOM     11  N   UNL     1       7.891  14.277  19.807  0.00  0.00    +0.000 NA
ATOM     12  C   UNL     1       8.931  13.653  20.337  0.00  0.00    +0.000 A 
ATOM     13  N   UNL     1       9.826  13.045  19.528  0.00  0.00    +0.000 N 
ATOM     14  C   UNL     1      10.987  12.290  19.992  0.00  0.00    +0.000 C 
ATOM     15  C   UNL     1      11.540  11.778  18.635  0.00  0.00    +0.000 C 
ATOM     16  C   UNL     1      10.266  11.549  17.832  0.00  0.00    +0.000 C 
ATOM     17  C   UNL     1       9.794  12.982  18.069  0.00  0.00    +0.000 C 
ATOM     18  C   UNL     1      11.029  13.742  17.545  0.00  0.00    +0.000 C 
ATOM     19  O   UNL     1      12.158  12.895  17.934  0.00  0.00    +0.000 OA
ATOM     20  N   UNL     1       9.138  13.590  21.640  0.00  0.00    +0.000 NA
ENDROOT
BRANCH   1  25
ATOM     21  N   UNL     1       9.080  14.057  27.986  0.00  0.00    +0.000 N 
ATOM     22  C   UNL     1       8.903  14.025  26.608  0.00  0.00    +0.000 A 
ATOM     23  C   UNL     1       8.247  12.962  26.012  0.00  0.00    +0.000 A 
ATOM     24  C   UNL     1       8.024  12.969  24.624  0.00  0.00    +0.000 A 
ATOM     25  C   UNL     1       8.441  14.082  23.863  0.00  0.00    +0.000 A 
ATOM     26  C   UNL     1       9.082  15.095  24.574  0.00  0.00    +0.000 A 
ATOM     27  N   UNL     1       9.327  15.086  25.912  0.00  0.00    +0.000 NA
ATOM     28  H   UNL     1       9.454  13.194  28.359  0.00  0.00    +0.000 HD
ATOM     29  H   UNL     1       9.653  14.866  28.210  0.00  0.00    +0.000 HD
BRANCH  24  30
ATOM     30  C   UNL     1       7.332  11.786  23.993  0.00  0.00    +0.000 C 
ATOM     31  F   UNL     1       8.181  10.969  23.301  0.00  0.00    +0.000 F 
ATOM     32  F   UNL     1       6.724  10.979  24.906  0.00  0.00    +0.000 F 
ENDBRANCH  24  30
ENDBRANCH   1  25
TORSDOF 2
ENDMDL
MODEL 9
REMARK VINA RESULT:      -7.2      8.204     10.445
REMARK  Name = 
REMARK  2 active torsions:
REMARK  status: ('A' for Active; 'I' for Inactive)
REMARK    1  A    between atoms: C_4  and  C_5
REMARK    2  A    between atoms: C_8  and  C_9
REMARK                            x       y       z     vdW  Elec       q    Type
REMARK                         _______ _______ _______ _____ _____    ______ ____
ROOT
ATOM      1  C   UNL     1      -0.474  13.987  19.574  0.00  0.00    +0.000 A 
ATOM      2  N   UNL     1      -0.849  13.039  18.722  0.00  0.00    +0.000 NA
ATOM      3  C   UNL     1      -2.000  12.449  19.013  0.00  0.00    +0.000 A 
ATOM      4  N   UNL     1      -2.462  11.473  18.189  0.00  0.00    +0.000 N 
ATOM      5  C   UNL     1      -1.799  10.999  16.978  0.00  0.00    +0.000 C 
ATOM      6  C   UNL     1      -2.923  10.095  16.392  0.00  0.00    +0.000 C 
ATOM      7  C   UNL     1      -3.627   9.576  17.641  0.00  0.00    +0.000 C 
ATOM      8  C   UNL     1      -3.843  10.990  18.169  0.00  0.00    +0.000 C 
ATOM      9  C   UNL     1      -4.564  11.606  16.952  0.00  0.00    +0.000 C 
ATOM     10  O   UNL     1      -3.937  10.957  15.801  0.00  0.00    +0.000 OA
ATOM     11  N   UNL     1      -2.722  12.731  20.094  0.00  0.00    +0.000 NA
ATOM     12  C   UNL     1      -2.245  13.649  20.920  0.00  0.00    +0.000 A 
ATOM     13  N   UNL     1      -2.925  13.947  22.049  0.00  0.00    +0.000 N 
ATOM     14  C   UNL     1      -2.525  14.967  23.015  0.00  0.00    +0.000 C 
ATOM     15  C   UNL     1      -3.724  14.897  23.998  0.00  0.00    +0.000 C 
ATOM     16  C   UNL     1      -4.890  14.590  23.066  0.00  0.00    +0.000 C 
ATOM     17  C   UNL     1      -4.184  13.360  22.500  0.00  0.00    +0.000 C 
ATOM     18  C   UNL     1      -3.899  12.608  23.816  0.00  0.00    +0.000 C 
ATOM     19  O   UNL     1      -3.614  13.673  24.778  0.00  0.00    +0.000 OA
ATOM     20  N   UNL     1      -1.120  14.302  20.688  0.00  0.00    +0.000 NA
ENDROOT
BRANCH   1  25
ATOM     21  N   UNL     1       4.382  16.661  18.530  0.00  0.00    +0.000 N 
ATOM     22  C   UNL     1       3.162  16.063  18.818  0.00  0.00    +0.000 A 
ATOM     23  C   UNL     1       1.978  16.671  18.438  0.00  0.00    +0.000 A 
ATOM     24  C   UNL     1       0.752  16.029  18.685  0.00  0.00    +0.000 A 
ATOM     25  C   UNL     1       0.750  14.752  19.285  0.00  0.00    +0.000 A 
ATOM     26  C   UNL     1       2.002  14.236  19.616  0.00  0.00    +0.000 A 
ATOM     27  N   UNL     1       3.192  14.861  19.406  0.00  0.00    +0.000 NA
ATOM     28  H   UNL     1       4.419  17.637  18.795  0.00  0.00    +0.000 HD
ATOM     29  H   UNL     1       5.114  16.105  18.965  0.00  0.00    +0.000 HD
BRANCH  24  30
ATOM     30  C   UNL     1      -0.526  16.726  18.287  0.00  0.00    +0.000 C 
ATOM     31  F   UNL     1      -1.090  17.443  19.303  0.00  0.00    +0.000 F 
ATOM     32  F   UNL     1      -0.350  17.618  17.274  0.00  0.00    +0.000 F 
ENDBRANCH  24  30
ENDBRANCH   1  25
TORSDOF 2
ENDMDL
