MODEL 1
REMARK VINA RESULT:      -7.0      0.000      0.000
REMARK  Name = 
REMARK  6 active torsions:
REMARK  status: ('A' for Active; 'I' for Inactive)
REMARK    1  A    between atoms: C_1  and  O_2
REMARK    2  A    between atoms: O_2  and  C_3
REMARK    3  A    between atoms: C_9  and  N_10
REMARK    4  A    between atoms: N_16  and  C_17
REMARK    5  A    between atoms: C_22  and  C_23
REMARK    6  A    between atoms: C_28  and  C_29
REMARK                            x       y       z     vdW  Elec       q    Type
REMARK                         _______ _______ _______ _____ _____    ______ ____
ROOT
ATOM      1  N   UNL     1       0.344  10.688  21.454  0.00  0.00    +0.000 N 
ATOM      2  C   UNL     1       0.284  10.362  20.112  0.00  0.00    +0.000 C 
ATOM      3  O   UNL     1      -0.393  10.972  19.287  0.00  0.00    +0.000 OA
ATOM      4  N   UNL     1       1.090   9.303  19.706  0.00  0.00    +0.000 N 
ATOM      5  C   UNL     1       1.064   9.004  18.259  0.00  0.00    +0.000 C 
ATOM      6  C   UNL     1       2.344   8.311  17.773  0.00  0.00    +0.000 C 
ATOM      7  N   UNL     1       2.533   7.081  18.574  0.00  0.00    +0.000 N 
ATOM      8  C   UNL     1       2.742   7.418  20.001  0.00  0.00    +0.000 C 
ATOM      9  C   UNL     1       1.487   8.162  20.572  0.00  0.00    +0.000 C 
ATOM     10  C   UNL     1       0.296   7.212  20.765  0.00  0.00    +0.000 C 
ATOM     11  H   UNL     1       1.177  10.427  21.960  0.00  0.00    +0.000 HD
ENDROOT
BRANCH   1  18
ATOM     12  C   UNL     1       0.031  13.066  21.936  0.00  0.00    +0.000 A 
ATOM     13  C   UNL     1      -0.760  14.110  22.463  0.00  0.00    +0.000 A 
ATOM     14  C   UNL     1      -1.953  13.833  23.135  0.00  0.00    +0.000 A 
ATOM     15  C   UNL     1      -2.351  12.515  23.306  0.00  0.00    +0.000 A 
ATOM     16 CL   UNL     1      -3.813  12.172  24.147  0.00  0.00    +0.000 Cl
ATOM     17  C   UNL     1      -1.586  11.476  22.790  0.00  0.00    +0.000 A 
ATOM     18  C   UNL     1      -0.414  11.733  22.070  0.00  0.00    +0.000 A 
BRANCH  12  20
ATOM     19  C   UNL     1       1.881  14.509  21.566  0.00  0.00    +0.000 C 
ATOM     20  O   UNL     1       1.218  13.277  21.279  0.00  0.00    +0.000 OA
ENDBRANCH  12  20
ENDBRANCH   1  18
BRANCH   7  21
ATOM     21  C   UNL     1       3.419   6.162  18.014  0.00  0.00    +0.000 A 
ATOM     22  N   UNL     1       4.655   6.600  17.659  0.00  0.00    +0.000 NA
ATOM     23  C   UNL     1       5.494   5.766  16.996  0.00  0.00    +0.000 A 
ATOM     24  C   UNL     1       5.170   4.471  16.656  0.00  0.00    +0.000 A 
ATOM     25  C   UNL     1       3.918   4.015  17.028  0.00  0.00    +0.000 A 
ATOM     26  C   UNL     1       3.020   4.858  17.707  0.00  0.00    +0.000 A 
BRANCH  26  27
ATOM     27  C   UNL     1       1.659   4.293  17.990  0.00  0.00    +0.000 C 
ATOM     28  F   UNL     1       1.157   4.457  19.235  0.00  0.00    +0.000 F 
ATOM     29  F   UNL     1       0.708   4.807  17.155  0.00  0.00    +0.000 F 
ATOM     30  F   UNL     1       1.627   2.942  17.772  0.00  0.00    +0.000 F 
ENDBRANCH  26  27
ENDBRANCH   7  21
TORSDOF 4
ENDMDL
MODEL 2
REMARK VINA RESULT:      -7.0      4.235      8.793
REMARK  Name = 
REMARK  6 active torsions:
REMARK  status: ('A' for Active; 'I' for Inactive)
REMARK    1  A    between atoms: C_1  and  O_2
REMARK    2  A    between atoms: O_2  and  C_3
REMARK    3  A    between atoms: C_9  and  N_10
REMARK    4  A    between atoms: N_16  and  C_17
REMARK    5  A    between atoms: C_22  and  C_23
REMARK    6  A    between atoms: C_28  and  C_29
REMARK                            x       y       z     vdW  Elec       q    Type
REMARK                         _______ _______ _______ _____ _____    ______ ____
ROOT
ATOM      1  N   UNL     1       2.938   7.245  18.170  0.00  0.00    +0.000 N 
ATOM      2  C   UNL     1       2.191   7.435  19.318  0.00  0.00    +0.000 C 
ATOM      3  O   UNL     1       1.966   6.553  20.144  0.00  0.00    +0.000 OA
ATOM      4  N   UNL     1       1.725   8.728  19.535  0.00  0.00    +0.000 N 
ATOM      5  C   UNL     1       0.982   8.932  20.795  0.00  0.00    +0.000 C 
ATOM      6  C   UNL     1       1.030  10.385  21.284  0.00  0.00    +0.000 C 
ATOM      7  N   UNL     1       0.509  11.252  20.205  0.00  0.00    +0.000 N 
ATOM      8  C   UNL     1       1.378  11.172  19.009  0.00  0.00    +0.000 C 
ATOM      9  C   UNL     1       1.411   9.705  18.459  0.00  0.00    +0.000 C 
ATOM     10  C   UNL     1       0.093   9.321  17.771  0.00  0.00    +0.000 C 
ATOM     11  H   UNL     1       3.399   8.051  17.775  0.00  0.00    +0.000 HD
ENDROOT
BRANCH   1  18
ATOM     12  C   UNL     1       4.832   5.955  17.311  0.00  0.00    +0.000 A 
ATOM     13  C   UNL     1       5.415   4.710  16.994  0.00  0.00    +0.000 A 
ATOM     14  C   UNL     1       4.677   3.528  17.093  0.00  0.00    +0.000 A 
ATOM     15  C   UNL     1       3.346   3.585  17.485  0.00  0.00    +0.000 A 
ATOM     16 CL   UNL     1       2.430   2.131  17.593  0.00  0.00    +0.000 Cl
ATOM     17  C   UNL     1       2.758   4.803  17.805  0.00  0.00    +0.000 A 
ATOM     18  C   UNL     1       3.494   5.993  17.762  0.00  0.00    +0.000 A 
BRANCH  12  20
ATOM     19  C   UNL     1       6.921   7.083  17.395  0.00  0.00    +0.000 C 
ATOM     20  O   UNL     1       5.504   7.149  17.221  0.00  0.00    +0.000 OA
ENDBRANCH  12  20
ENDBRANCH   1  18
BRANCH   7  21
ATOM     21  C   UNL     1       0.138  12.529  20.622  0.00  0.00    +0.000 A 
ATOM     22  N   UNL     1       0.973  13.194  21.462  0.00  0.00    +0.000 NA
ATOM     23  C   UNL     1       0.585  14.382  21.988  0.00  0.00    +0.000 A 
ATOM     24  C   UNL     1      -0.628  14.976  21.715  0.00  0.00    +0.000 A 
ATOM     25  C   UNL     1      -1.476  14.311  20.849  0.00  0.00    +0.000 A 
ATOM     26  C   UNL     1      -1.107  13.071  20.294  0.00  0.00    +0.000 A 
BRANCH  26  27
ATOM     27  C   UNL     1      -2.133  12.394  19.434  0.00  0.00    +0.000 C 
ATOM     28  F   UNL     1      -2.285  11.057  19.572  0.00  0.00    +0.000 F 
ATOM     29  F   UNL     1      -3.382  12.913  19.624  0.00  0.00    +0.000 F 
ATOM     30  F   UNL     1      -1.871  12.584  18.104  0.00  0.00    +0.000 F 
ENDBRANCH  26  27
ENDBRANCH   7  21
TORSDOF 4
ENDMDL
MODEL 3
REMARK VINA RESULT:      -6.8      4.295      8.958
REMARK  Name = 
REMARK  6 active torsions:
REMARK  status: ('A' for Active; 'I' for Inactive)
REMARK    1  A    between atoms: C_1  and  O_2
REMARK    2  A    between atoms: O_2  and  C_3
REMARK    3  A    between atoms: C_9  and  N_10
REMARK    4  A    between atoms: N_16  and  C_17
REMARK    5  A    between atoms: C_22  and  C_23
REMARK    6  A    between atoms: C_28  and  C_29
REMARK                            x       y       z     vdW  Elec       q    Type
REMARK                         _______ _______ _______ _____ _____    ______ ____
ROOT
ATOM      1  N   UNL     1       3.251   7.160  18.370  0.00  0.00    +0.000 N 
ATOM      2  C   UNL     1       2.403   7.274  19.457  0.00  0.00    +0.000 C 
ATOM      3  O   UNL     1       2.193   6.368  20.261  0.00  0.00    +0.000 OA
ATOM      4  N   UNL     1       1.811   8.519  19.640  0.00  0.00    +0.000 N 
ATOM      5  C   UNL     1       0.958   8.647  20.839  0.00  0.00    +0.000 C 
ATOM      6  C   UNL     1       0.842  10.094  21.334  0.00  0.00    +0.000 C 
ATOM      7  N   UNL     1       0.331  10.922  20.219  0.00  0.00    +0.000 N 
ATOM      8  C   UNL     1       1.294  10.929  19.094  0.00  0.00    +0.000 C 
ATOM      9  C   UNL     1       1.497   9.475  18.545  0.00  0.00    +0.000 C 
ATOM     10  C   UNL     1       0.274   8.984  17.756  0.00  0.00    +0.000 C 
ATOM     11  H   UNL     1       3.668   8.006  18.014  0.00  0.00    +0.000 HD
ENDROOT
BRANCH   1  18
ATOM     12  C   UNL     1       3.195   4.851  17.563  0.00  0.00    +0.000 A 
ATOM     13  C   UNL     1       3.876   3.699  17.113  0.00  0.00    +0.000 A 
ATOM     14  C   UNL     1       5.272   3.642  17.130  0.00  0.00    +0.000 A 
ATOM     15  C   UNL     1       5.994   4.722  17.617  0.00  0.00    +0.000 A 
ATOM     16 CL   UNL     1       7.713   4.647  17.652  0.00  0.00    +0.000 Cl
ATOM     17  C   UNL     1       5.338   5.865  18.059  0.00  0.00    +0.000 A 
ATOM     18  C   UNL     1       3.943   5.964  18.004  0.00  0.00    +0.000 A 
BRANCH  12  20
ATOM     19  C   UNL     1       1.119   3.843  18.125  0.00  0.00    +0.000 C 
ATOM     20  O   UNL     1       1.826   4.959  17.582  0.00  0.00    +0.000 OA
ENDBRANCH  12  20
ENDBRANCH   1  18
BRANCH   7  21
ATOM     21  C   UNL     1      -0.180  12.158  20.609  0.00  0.00    +0.000 A 
ATOM     22  N   UNL     1       0.446  12.820  21.617  0.00  0.00    +0.000 NA
ATOM     23  C   UNL     1      -0.098  13.961  22.106  0.00  0.00    +0.000 A 
ATOM     24  C   UNL     1      -1.270  14.511  21.634  0.00  0.00    +0.000 A 
ATOM     25  C   UNL     1      -1.904  13.850  20.598  0.00  0.00    +0.000 A 
ATOM     26  C   UNL     1      -1.371  12.657  20.074  0.00  0.00    +0.000 A 
BRANCH  26  27
ATOM     27  C   UNL     1      -2.180  11.976  19.011  0.00  0.00    +0.000 C 
ATOM     28  F   UNL     1      -2.211  10.623  19.014  0.00  0.00    +0.000 F 
ATOM     29  F   UNL     1      -3.491  12.359  19.041  0.00  0.00    +0.000 F 
ATOM     30  F   UNL     1      -1.743  12.314  17.759  0.00  0.00    +0.000 F 
ENDBRANCH  26  27
ENDBRANCH   7  21
TORSDOF 4
ENDMDL
MODEL 4
REMARK VINA RESULT:      -6.8      4.314      8.803
REMARK  Name = 
REMARK  6 active torsions:
REMARK  status: ('A' for Active; 'I' for Inactive)
REMARK    1  A    between atoms: C_1  and  O_2
REMARK    2  A    between atoms: O_2  and  C_3
REMARK    3  A    between atoms: C_9  and  N_10
REMARK    4  A    between atoms: N_16  and  C_17
REMARK    5  A    between atoms: C_22  and  C_23
REMARK    6  A    between atoms: C_28  and  C_29
REMARK                            x       y       z     vdW  Elec       q    Type
REMARK                         _______ _______ _______ _____ _____    ______ ____
ROOT
ATOM      1  N   UNL     1       2.420   7.522  18.345  0.00  0.00    +0.000 N 
ATOM      2  C   UNL     1       1.815   7.936  19.518  0.00  0.00    +0.000 C 
ATOM      3  O   UNL     1       1.638   7.208  20.492  0.00  0.00    +0.000 OA
ATOM      4  N   UNL     1       1.442   9.275  19.571  0.00  0.00    +0.000 N 
ATOM      5  C   UNL     1       0.854   9.720  20.851  0.00  0.00    +0.000 C 
ATOM      6  C   UNL     1       1.030  11.224  21.095  0.00  0.00    +0.000 C 
ATOM      7  N   UNL     1       0.438  11.948  19.949  0.00  0.00    +0.000 N 
ATOM      8  C   UNL     1       1.165  11.627  18.700  0.00  0.00    +0.000 C 
ATOM      9  C   UNL     1       1.062  10.094  18.391  0.00  0.00    +0.000 C 
ATOM     10  C   UNL     1      -0.342   9.699  17.909  0.00  0.00    +0.000 C 
ATOM     11  H   UNL     1       2.875   8.224  17.783  0.00  0.00    +0.000 HD
ENDROOT
BRANCH   1  18
ATOM     12  C   UNL     1       4.195   5.980  17.669  0.00  0.00    +0.000 A 
ATOM     13  C   UNL     1       4.665   4.659  17.502  0.00  0.00    +0.000 A 
ATOM     14  C   UNL     1       3.821   3.567  17.718  0.00  0.00    +0.000 A 
ATOM     15  C   UNL     1       2.499   3.786  18.078  0.00  0.00    +0.000 A 
ATOM     16 CL   UNL     1       1.454   2.442  18.329  0.00  0.00    +0.000 Cl
ATOM     17  C   UNL     1       2.022   5.080  18.251  0.00  0.00    +0.000 A 
ATOM     18  C   UNL     1       2.863   6.187  18.089  0.00  0.00    +0.000 A 
BRANCH  12  20
ATOM     19  C   UNL     1       6.354   6.843  17.187  0.00  0.00    +0.000 C 
ATOM     20  O   UNL     1       4.974   7.090  17.458  0.00  0.00    +0.000 OA
ENDBRANCH  12  20
ENDBRANCH   1  18
BRANCH   7  21
ATOM     21  C   UNL     1       0.181  13.296  20.193  0.00  0.00    +0.000 A 
ATOM     22  N   UNL     1       1.242  14.133  20.337  0.00  0.00    +0.000 NA
ATOM     23  C   UNL     1       1.031  15.422  20.700  0.00  0.00    +0.000 A 
ATOM     24  C   UNL     1      -0.218  15.954  20.933  0.00  0.00    +0.000 A 
ATOM     25  C   UNL     1      -1.303  15.111  20.773  0.00  0.00    +0.000 A 
ATOM     26  C   UNL     1      -1.118  13.765  20.406  0.00  0.00    +0.000 A 
BRANCH  26  27
ATOM     27  C   UNL     1      -2.353  12.916  20.342  0.00  0.00    +0.000 C 
ATOM     28  F   UNL     1      -2.556  12.186  19.221  0.00  0.00    +0.000 F 
ATOM     29  F   UNL     1      -2.408  12.014  21.366  0.00  0.00    +0.000 F 
ATOM     30  F   UNL     1      -3.485  13.674  20.479  0.00  0.00    +0.000 F 
ENDBRANCH  26  27
ENDBRANCH   7  21
TORSDOF 4
ENDMDL
MODEL 5
REMARK VINA RESULT:      -6.8      4.471      8.975
REMARK  Name = 
REMARK  6 active torsions:
REMARK  status: ('A' for Active; 'I' for Inactive)
REMARK    1  A    between atoms: C_1  and  O_2
REMARK    2  A    between atoms: O_2  and  C_3
REMARK    3  A    between atoms: C_9  and  N_10
REMARK    4  A    between atoms: N_16  and  C_17
REMARK    5  A    between atoms: C_22  and  C_23
REMARK    6  A    between atoms: C_28  and  C_29
REMARK                            x       y       z     vdW  Elec       q    Type
REMARK                         _______ _______ _______ _____ _____    ______ ____
ROOT
ATOM      1  N   UNL     1       4.347   6.828  17.727  0.00  0.00    +0.000 N 
ATOM      2  C   UNL     1       3.361   6.428  18.610  0.00  0.00    +0.000 C 
ATOM      3  O   UNL     1       3.185   5.263  18.960  0.00  0.00    +0.000 OA
ATOM      4  N   UNL     1       2.574   7.443  19.145  0.00  0.00    +0.000 N 
ATOM      5  C   UNL     1       1.566   7.010  20.134  0.00  0.00    +0.000 C 
ATOM      6  C   UNL     1       1.177   8.126  21.113  0.00  0.00    +0.000 C 
ATOM      7  N   UNL     1       0.696   9.282  20.324  0.00  0.00    +0.000 N 
ATOM      8  C   UNL     1       1.783   9.817  19.473  0.00  0.00    +0.000 C 
ATOM      9  C   UNL     1       2.266   8.725  18.458  0.00  0.00    +0.000 C 
ATOM     10  C   UNL     1       1.239   8.486  17.341  0.00  0.00    +0.000 C 
ATOM     11  H   UNL     1       4.678   7.778  17.798  0.00  0.00    +0.000 HD
ENDROOT
BRANCH   1  18
ATOM     12  C   UNL     1       6.368   5.450  17.769  0.00  0.00    +0.000 A 
ATOM     13  C   UNL     1       7.211   4.503  17.149  0.00  0.00    +0.000 A 
ATOM     14  C   UNL     1       6.965   4.073  15.843  0.00  0.00    +0.000 A 
ATOM     15  C   UNL     1       5.893   4.603  15.140  0.00  0.00    +0.000 A 
ATOM     16 CL   UNL     1       5.598   4.087  13.525  0.00  0.00    +0.000 Cl
ATOM     17  C   UNL     1       5.051   5.534  15.737  0.00  0.00    +0.000 A 
ATOM     18  C   UNL     1       5.249   5.940  17.062  0.00  0.00    +0.000 A 
BRANCH  12  20
ATOM     19  C   UNL     1       7.925   5.958  19.490  0.00  0.00    +0.000 C 
ATOM     20  O   UNL     1       6.568   5.918  19.044  0.00  0.00    +0.000 OA
ENDBRANCH  12  20
ENDBRANCH   1  18
BRANCH   7  21
ATOM     21  C   UNL     1      -0.036  10.213  21.058  0.00  0.00    +0.000 A 
ATOM     22  N   UNL     1       0.111  10.222  22.409  0.00  0.00    +0.000 NA
ATOM     23  C   UNL     1      -0.680  11.025  23.162  0.00  0.00    +0.000 A 
ATOM     24  C   UNL     1      -1.642  11.859  22.635  0.00  0.00    +0.000 A 
ATOM     25  C   UNL     1      -1.786  11.866  21.260  0.00  0.00    +0.000 A 
ATOM     26  C   UNL     1      -0.988  11.036  20.450  0.00  0.00    +0.000 A 
BRANCH  26  27
ATOM     27  C   UNL     1      -1.282  11.059  18.979  0.00  0.00    +0.000 C 
ATOM     28  F   UNL     1      -1.498   9.873  18.364  0.00  0.00    +0.000 F 
ATOM     29  F   UNL     1      -2.382  11.813  18.689  0.00  0.00    +0.000 F 
ATOM     30  F   UNL     1      -0.261  11.639  18.277  0.00  0.00    +0.000 F 
ENDBRANCH  26  27
ENDBRANCH   7  21
TORSDOF 4
ENDMDL
MODEL 6
REMARK VINA RESULT:      -6.6      1.300      1.587
REMARK  Name = 
REMARK  6 active torsions:
REMARK  status: ('A' for Active; 'I' for Inactive)
REMARK    1  A    between atoms: C_1  and  O_2
REMARK    2  A    between atoms: O_2  and  C_3
REMARK    3  A    between atoms: C_9  and  N_10
REMARK    4  A    between atoms: N_16  and  C_17
REMARK    5  A    between atoms: C_22  and  C_23
REMARK    6  A    between atoms: C_28  and  C_29
REMARK                            x       y       z     vdW  Elec       q    Type
REMARK                         _______ _______ _______ _____ _____    ______ ____
ROOT
ATOM      1  N   UNL     1      -0.402  11.310  22.148  0.00  0.00    +0.000 N 
ATOM      2  C   UNL     1      -0.472  10.977  20.808  0.00  0.00    +0.000 C 
ATOM      3  O   UNL     1      -1.195  11.550  19.996  0.00  0.00    +0.000 OA
ATOM      4  N   UNL     1       0.378   9.960  20.388  0.00  0.00    +0.000 N 
ATOM      5  C   UNL     1       0.340   9.656  18.943  0.00  0.00    +0.000 C 
ATOM      6  C   UNL     1       1.643   9.027  18.433  0.00  0.00    +0.000 C 
ATOM      7  N   UNL     1       1.910   7.811  19.232  0.00  0.00    +0.000 N 
ATOM      8  C   UNL     1       2.130   8.162  20.654  0.00  0.00    +0.000 C 
ATOM      9  C   UNL     1       0.850   8.843  21.248  0.00  0.00    +0.000 C 
ATOM     10  C   UNL     1      -0.287   7.834  21.467  0.00  0.00    +0.000 C 
ATOM     11  H   UNL     1       0.452  11.093  22.639  0.00  0.00    +0.000 HD
ENDROOT
BRANCH   1  18
ATOM     12  C   UNL     1      -0.707  13.639  22.835  0.00  0.00    +0.000 A 
ATOM     13  C   UNL     1      -1.528  14.654  23.372  0.00  0.00    +0.000 A 
ATOM     14  C   UNL     1      -2.800  14.359  23.868  0.00  0.00    +0.000 A 
ATOM     15  C   UNL     1      -3.250  13.046  23.854  0.00  0.00    +0.000 A 
ATOM     16 CL   UNL     1      -4.811  12.678  24.479  0.00  0.00    +0.000 Cl
ATOM     17  C   UNL     1      -2.456  12.035  23.325  0.00  0.00    +0.000 A 
ATOM     18  C   UNL     1      -1.200  12.317  22.777  0.00  0.00    +0.000 A 
BRANCH  12  20
ATOM     19  C   UNL     1       0.758  15.129  21.707  0.00  0.00    +0.000 C 
ATOM     20  O   UNL     1       0.555  13.868  22.346  0.00  0.00    +0.000 OA
ENDBRANCH  12  20
ENDBRANCH   1  18
BRANCH   7  21
ATOM     21  C   UNL     1       2.830   6.937  18.656  0.00  0.00    +0.000 A 
ATOM     22  N   UNL     1       3.646   7.417  17.682  0.00  0.00    +0.000 NA
ATOM     23  C   UNL     1       4.462   6.565  17.014  0.00  0.00    +0.000 A 
ATOM     24  C   UNL     1       4.524   5.213  17.268  0.00  0.00    +0.000 A 
ATOM     25  C   UNL     1       3.707   4.720  18.269  0.00  0.00    +0.000 A 
ATOM     26  C   UNL     1       2.841   5.576  18.974  0.00  0.00    +0.000 A 
BRANCH  26  27
ATOM     27  C   UNL     1       1.937   4.927  19.981  0.00  0.00    +0.000 C 
ATOM     28  F   UNL     1       0.614   5.200  19.905  0.00  0.00    +0.000 F 
ATOM     29  F   UNL     1       2.020   3.565  19.940  0.00  0.00    +0.000 F 
ATOM     30  F   UNL     1       2.293   5.264  21.259  0.00  0.00    +0.000 F 
ENDBRANCH  26  27
ENDBRANCH   7  21
TORSDOF 4
ENDMDL
MODEL 7
REMARK VINA RESULT:      -6.6      4.193      8.781
REMARK  Name = 
REMARK  6 active torsions:
REMARK  status: ('A' for Active; 'I' for Inactive)
REMARK    1  A    between atoms: C_1  and  O_2
REMARK    2  A    between atoms: O_2  and  C_3
REMARK    3  A    between atoms: C_9  and  N_10
REMARK    4  A    between atoms: N_16  and  C_17
REMARK    5  A    between atoms: C_22  and  C_23
REMARK    6  A    between atoms: C_28  and  C_29
REMARK                            x       y       z     vdW  Elec       q    Type
REMARK                         _______ _______ _______ _____ _____    ______ ____
ROOT
ATOM      1  N   UNL     1       2.483   7.419  18.562  0.00  0.00    +0.000 N 
ATOM      2  C   UNL     1       1.826   7.658  19.755  0.00  0.00    +0.000 C 
ATOM      3  O   UNL     1       1.574   6.788  20.585  0.00  0.00    +0.000 OA
ATOM      4  N   UNL     1       1.490   8.984  20.011  0.00  0.00    +0.000 N 
ATOM      5  C   UNL     1       0.844   9.234  21.316  0.00  0.00    +0.000 C 
ATOM      6  C   UNL     1       1.050  10.671  21.814  0.00  0.00    +0.000 C 
ATOM      7  N   UNL     1       0.543  11.595  20.775  0.00  0.00    +0.000 N 
ATOM      8  C   UNL     1       1.328  11.456  19.528  0.00  0.00    +0.000 C 
ATOM      9  C   UNL     1       1.199   9.999  18.965  0.00  0.00    +0.000 C 
ATOM     10  C   UNL     1      -0.187   9.741  18.355  0.00  0.00    +0.000 C 
ATOM     11  H   UNL     1       2.988   8.187  18.147  0.00  0.00    +0.000 HD
ENDROOT
BRANCH   1  18
ATOM     12  C   UNL     1       4.165   5.999  17.494  0.00  0.00    +0.000 A 
ATOM     13  C   UNL     1       4.621   4.714  17.129  0.00  0.00    +0.000 A 
ATOM     14  C   UNL     1       3.828   3.585  17.343  0.00  0.00    +0.000 A 
ATOM     15  C   UNL     1       2.565   3.733  17.899  0.00  0.00    +0.000 A 
ATOM     16 CL   UNL     1       1.579   2.345  18.149  0.00  0.00    +0.000 Cl
ATOM     17  C   UNL     1       2.102   4.991  18.268  0.00  0.00    +0.000 A 
ATOM     18  C   UNL     1       2.901   6.129  18.110  0.00  0.00    +0.000 A 
BRANCH  12  20
ATOM     19  C   UNL     1       6.306   6.969  17.158  0.00  0.00    +0.000 C 
ATOM     20  O   UNL     1       4.895   7.144  17.297  0.00  0.00    +0.000 OA
ENDBRANCH  12  20
ENDBRANCH   1  18
BRANCH   7  21
ATOM     21  C   UNL     1       0.312  12.893  21.225  0.00  0.00    +0.000 A 
ATOM     22  N   UNL     1       1.382  13.715  21.384  0.00  0.00    +0.000 NA
ATOM     23  C   UNL     1       1.209  14.939  21.940  0.00  0.00    +0.000 A 
ATOM     24  C   UNL     1      -0.013  15.419  22.360  0.00  0.00    +0.000 A 
ATOM     25  C   UNL     1      -1.109  14.594  22.187  0.00  0.00    +0.000 A 
ATOM     26  C   UNL     1      -0.961  13.313  21.622  0.00  0.00    +0.000 A 
BRANCH  26  27
ATOM     27  C   UNL     1      -2.197  12.467  21.557  0.00  0.00    +0.000 C 
ATOM     28  F   UNL     1      -3.386  13.073  21.783  0.00  0.00    +0.000 F 
ATOM     29  F   UNL     1      -2.337  11.857  20.343  0.00  0.00    +0.000 F 
ATOM     30  F   UNL     1      -2.147  11.442  22.463  0.00  0.00    +0.000 F 
ENDBRANCH  26  27
ENDBRANCH   7  21
TORSDOF 4
ENDMDL
MODEL 8
REMARK VINA RESULT:      -6.5      1.494      2.007
REMARK  Name = 
REMARK  6 active torsions:
REMARK  status: ('A' for Active; 'I' for Inactive)
REMARK    1  A    between atoms: C_1  and  O_2
REMARK    2  A    between atoms: O_2  and  C_3
REMARK    3  A    between atoms: C_9  and  N_10
REMARK    4  A    between atoms: N_16  and  C_17
REMARK    5  A    between atoms: C_22  and  C_23
REMARK    6  A    between atoms: C_28  and  C_29
REMARK                            x       y       z     vdW  Elec       q    Type
REMARK                         _______ _______ _______ _____ _____    ______ ____
ROOT
ATOM      1  N   UNL     1       0.826  10.734  21.079  0.00  0.00    +0.000 N 
ATOM      2  C   UNL     1       0.712  10.334  19.761  0.00  0.00    +0.000 C 
ATOM      3  O   UNL     1       0.046  10.931  18.917  0.00  0.00    +0.000 OA
ATOM      4  N   UNL     1       1.447   9.210  19.399  0.00  0.00    +0.000 N 
ATOM      5  C   UNL     1       1.366   8.829  17.974  0.00  0.00    +0.000 C 
ATOM      6  C   UNL     1       2.593   8.039  17.500  0.00  0.00    +0.000 C 
ATOM      7  N   UNL     1       2.737   6.849  18.368  0.00  0.00    +0.000 N 
ATOM      8  C   UNL     1       3.003   7.256  19.767  0.00  0.00    +0.000 C 
ATOM      9  C   UNL     1       1.806   8.102  20.323  0.00  0.00    +0.000 C 
ATOM     10  C   UNL     1       0.571   7.232  20.601  0.00  0.00    +0.000 C 
ATOM     11  H   UNL     1       1.656  10.457  21.580  0.00  0.00    +0.000 HD
ENDROOT
BRANCH   1  18
ATOM     12  C   UNL     1      -0.854  11.620  22.622  0.00  0.00    +0.000 A 
ATOM     13  C   UNL     1      -1.468  12.723  23.254  0.00  0.00    +0.000 A 
ATOM     14  C   UNL     1      -1.121  14.031  22.906  0.00  0.00    +0.000 A 
ATOM     15  C   UNL     1      -0.180  14.246  21.910  0.00  0.00    +0.000 A 
ATOM     16 CL   UNL     1       0.236  15.857  21.468  0.00  0.00    +0.000 Cl
ATOM     17  C   UNL     1       0.437  13.171  21.280  0.00  0.00    +0.000 A 
ATOM     18  C   UNL     1       0.143  11.854  21.649  0.00  0.00    +0.000 A 
BRANCH  12  20
ATOM     19  C   UNL     1      -0.121   9.547  23.521  0.00  0.00    +0.000 C 
ATOM     20  O   UNL     1      -1.162  10.315  22.914  0.00  0.00    +0.000 OA
ENDBRANCH  12  20
ENDBRANCH   1  18
BRANCH   7  21
ATOM     21  C   UNL     1       3.556   5.851  17.843  0.00  0.00    +0.000 A 
ATOM     22  N   UNL     1       4.800   6.200  17.423  0.00  0.00    +0.000 NA
ATOM     23  C   UNL     1       5.573   5.283  16.792  0.00  0.00    +0.000 A 
ATOM     24  C   UNL     1       5.174   3.987  16.547  0.00  0.00    +0.000 A 
ATOM     25  C   UNL     1       3.914   3.622  16.986  0.00  0.00    +0.000 A 
ATOM     26  C   UNL     1       3.082   4.553  17.636  0.00  0.00    +0.000 A 
BRANCH  26  27
ATOM     27  C   UNL     1       1.705   4.079  17.995  0.00  0.00    +0.000 C 
ATOM     28  F   UNL     1       1.266   4.322  19.252  0.00  0.00    +0.000 F 
ATOM     29  F   UNL     1       0.750   4.611  17.177  0.00  0.00    +0.000 F 
ATOM     30  F   UNL     1       1.589   2.724  17.838  0.00  0.00    +0.000 F 
ENDBRANCH  26  27
ENDBRANCH   7  21
TORSDOF 4
ENDMDL
MODEL 9
REMARK VINA RESULT:      -6.5      4.457      8.626
REMARK  Name = 
REMARK  6 active torsions:
REMARK  status: ('A' for Active; 'I' for Inactive)
REMARK    1  A    between atoms: C_1  and  O_2
REMARK    2  A    between atoms: O_2  and  C_3
REMARK    3  A    between atoms: C_9  and  N_10
REMARK    4  A    between atoms: N_16  and  C_17
REMARK    5  A    between atoms: C_22  and  C_23
REMARK    6  A    between atoms: C_28  and  C_29
REMARK                            x       y       z     vdW  Elec       q    Type
REMARK                         _______ _______ _______ _____ _____    ______ ____
ROOT
ATOM      1  N   UNL     1       2.226   7.461  19.339  0.00  0.00    +0.000 N 
ATOM      2  C   UNL     1       1.528   8.181  20.290  0.00  0.00    +0.000 C 
ATOM      3  O   UNL     1       1.163   7.719  21.369  0.00  0.00    +0.000 OA
ATOM      4  N   UNL     1       1.289   9.518  19.988  0.00  0.00    +0.000 N 
ATOM      5  C   UNL     1       0.597  10.293  21.039  0.00  0.00    +0.000 C 
ATOM      6  C   UNL     1       0.893  11.796  20.960  0.00  0.00    +0.000 C 
ATOM      7  N   UNL     1       0.519  12.268  19.608  0.00  0.00    +0.000 N 
ATOM      8  C   UNL     1       1.356  11.610  18.578  0.00  0.00    +0.000 C 
ATOM      9  C   UNL     1       1.138  10.059  18.612  0.00  0.00    +0.000 C 
ATOM     10  C   UNL     1      -0.231   9.660  18.039  0.00  0.00    +0.000 C 
ATOM     11  H   UNL     1       2.814   7.977  18.702  0.00  0.00    +0.000 HD
ENDROOT
BRANCH   1  18
ATOM     12  C   UNL     1       3.610   5.559  18.663  0.00  0.00    +0.000 A 
ATOM     13  C   UNL     1       4.005   4.216  18.838  0.00  0.00    +0.000 A 
ATOM     14  C   UNL     1       3.353   3.392  19.759  0.00  0.00    +0.000 A 
ATOM     15  C   UNL     1       2.287   3.896  20.491  0.00  0.00    +0.000 A 
ATOM     16 CL   UNL     1       1.471   2.879  21.614  0.00  0.00    +0.000 Cl
ATOM     17  C   UNL     1       1.888   5.219  20.334  0.00  0.00    +0.000 A 
ATOM     18  C   UNL     1       2.561   6.075  19.455  0.00  0.00    +0.000 A 
BRANCH  12  20
ATOM     19  C   UNL     1       4.913   5.790  16.691  0.00  0.00    +0.000 C 
ATOM     20  O   UNL     1       4.206   6.411  17.766  0.00  0.00    +0.000 OA
ENDBRANCH  12  20
ENDBRANCH   1  18
BRANCH   7  21
ATOM     21  C   UNL     1       0.372  13.650  19.503  0.00  0.00    +0.000 A 
ATOM     22  N   UNL     1       1.450  14.380  19.117  0.00  0.00    +0.000 NA
ATOM     23  C   UNL     1       1.379  15.734  19.128  0.00  0.00    +0.000 A 
ATOM     24  C   UNL     1       0.255  16.435  19.508  0.00  0.00    +0.000 A 
ATOM     25  C   UNL     1      -0.851  15.697  19.887  0.00  0.00    +0.000 A 
ATOM     26  C   UNL     1      -0.806  14.290  19.897  0.00  0.00    +0.000 A 
BRANCH  26  27
ATOM     27  C   UNL     1      -2.031  13.588  20.405  0.00  0.00    +0.000 C 
ATOM     28  F   UNL     1      -1.954  12.988  21.616  0.00  0.00    +0.000 F 
ATOM     29  F   UNL     1      -3.103  14.429  20.495  0.00  0.00    +0.000 F 
ATOM     30  F   UNL     1      -2.429  12.599  19.547  0.00  0.00    +0.000 F 
ENDBRANCH  26  27
ENDBRANCH   7  21
TORSDOF 4
ENDMDL
