MODEL 1
REMARK VINA RESULT:      -7.5      0.000      0.000
REMARK  Name = 
REMARK  2 active torsions:
REMARK  status: ('A' for Active; 'I' for Inactive)
REMARK    1  A    between atoms: C_6  and  C_7
REMARK    2  A    between atoms: C_8  and  C_9
REMARK                            x       y       z     vdW  Elec       q    Type
REMARK                         _______ _______ _______ _____ _____    ______ ____
ROOT
ATOM      1  C   UNL     1       8.438   9.382  18.162  0.00  0.00    +0.000 C 
ATOM      2  C   UNL     1       8.436   8.106  18.581  0.00  0.00    +0.000 C 
ENDROOT
BRANCH   2   3
ATOM      3  C   UNL     1       7.547   7.059  18.048  0.00  0.00    +0.000 A 
ATOM      4  C   UNL     1       6.646   7.302  17.004  0.00  0.00    +0.000 A 
ATOM      5  C   UNL     1       5.852   6.269  16.510  0.00  0.00    +0.000 A 
ATOM      6  F   UNL     1       4.995   6.520  15.512  0.00  0.00    +0.000 F 
ATOM      7  C   UNL     1       5.939   4.981  17.027  0.00  0.00    +0.000 A 
ATOM      8  C   UNL     1       6.841   4.720  18.055  0.00  0.00    +0.000 A 
ATOM      9  C   UNL     1       7.638   5.752  18.552  0.00  0.00    +0.000 A 
ATOM     10  F   UNL     1       8.505   5.466  19.536  0.00  0.00    +0.000 F 
ENDBRANCH   2   3
BRANCH   1  16
ATOM     11  F   UNL     1      11.538  13.106  17.610  0.00  0.00    +0.000 F 
ATOM     12  C   UNL     1      10.840  12.294  18.416  0.00  0.00    +0.000 A 
ATOM     13  C   UNL     1      10.910  12.475  19.792  0.00  0.00    +0.000 A 
ATOM     14  C   UNL     1      10.177  11.639  20.629  0.00  0.00    +0.000 A 
ATOM     15  C   UNL     1       9.381  10.629  20.078  0.00  0.00    +0.000 A 
ATOM     16  C   UNL     1       9.321  10.434  18.690  0.00  0.00    +0.000 A 
ATOM     17  C   UNL     1      10.052  11.291  17.859  0.00  0.00    +0.000 A 
ENDBRANCH   1  16
TORSDOF 2
ENDMDL
MODEL 2
REMARK VINA RESULT:      -7.5      1.094      1.589
REMARK  Name = 
REMARK  2 active torsions:
REMARK  status: ('A' for Active; 'I' for Inactive)
REMARK    1  A    between atoms: C_6  and  C_7
REMARK    2  A    between atoms: C_8  and  C_9
REMARK                            x       y       z     vdW  Elec       q    Type
REMARK                         _______ _______ _______ _____ _____    ______ ____
ROOT
ATOM      1  C   UNL     1       8.381   9.404  18.231  0.00  0.00    +0.000 C 
ATOM      2  C   UNL     1       8.480   8.097  18.521  0.00  0.00    +0.000 C 
ENDROOT
BRANCH   2   3
ATOM      3  C   UNL     1       7.556   7.064  18.023  0.00  0.00    +0.000 A 
ATOM      4  C   UNL     1       6.648   7.309  16.985  0.00  0.00    +0.000 A 
ATOM      5  C   UNL     1       5.819   6.289  16.524  0.00  0.00    +0.000 A 
ATOM      6  F   UNL     1       4.956   6.542  15.532  0.00  0.00    +0.000 F 
ATOM      7  C   UNL     1       5.877   5.010  17.069  0.00  0.00    +0.000 A 
ATOM      8  C   UNL     1       6.784   4.747  18.091  0.00  0.00    +0.000 A 
ATOM      9  C   UNL     1       7.616   5.766  18.555  0.00  0.00    +0.000 A 
ATOM     10  F   UNL     1       8.488   5.477  19.533  0.00  0.00    +0.000 F 
ENDBRANCH   2   3
BRANCH   1  16
ATOM     11  F   UNL     1      10.278  12.173  21.770  0.00  0.00    +0.000 F 
ATOM     12  C   UNL     1      10.255  11.799  20.483  0.00  0.00    +0.000 A 
ATOM     13  C   UNL     1      11.154  12.370  19.591  0.00  0.00    +0.000 A 
ATOM     14  C   UNL     1      11.137  11.974  18.257  0.00  0.00    +0.000 A 
ATOM     15  C   UNL     1      10.219  11.010  17.830  0.00  0.00    +0.000 A 
ATOM     16  C   UNL     1       9.299  10.443  18.725  0.00  0.00    +0.000 A 
ATOM     17  C   UNL     1       9.336  10.839  20.067  0.00  0.00    +0.000 A 
ENDBRANCH   1  16
TORSDOF 2
ENDMDL
MODEL 3
REMARK VINA RESULT:      -7.4      1.380      6.860
REMARK  Name = 
REMARK  2 active torsions:
REMARK  status: ('A' for Active; 'I' for Inactive)
REMARK    1  A    between atoms: C_6  and  C_7
REMARK    2  A    between atoms: C_8  and  C_9
REMARK                            x       y       z     vdW  Elec       q    Type
REMARK                         _______ _______ _______ _____ _____    ______ ____
ROOT
ATOM      1  C   UNL     1       8.241   8.912  17.903  0.00  0.00    +0.000 C 
ATOM      2  C   UNL     1       8.913   9.393  18.962  0.00  0.00    +0.000 C 
ENDROOT
BRANCH   2   3
ATOM      3  C   UNL     1       9.569  10.711  18.998  0.00  0.00    +0.000 A 
ATOM      4  C   UNL     1      10.005  11.364  17.838  0.00  0.00    +0.000 A 
ATOM      5  C   UNL     1      10.588  12.626  17.922  0.00  0.00    +0.000 A 
ATOM      6  F   UNL     1      11.000  13.234  16.802  0.00  0.00    +0.000 F 
ATOM      7  C   UNL     1      10.741  13.271  19.144  0.00  0.00    +0.000 A 
ATOM      8  C   UNL     1      10.298  12.643  20.305  0.00  0.00    +0.000 A 
ATOM      9  C   UNL     1       9.714  11.379  20.226  0.00  0.00    +0.000 A 
ATOM     10  F   UNL     1       9.288  10.804  21.361  0.00  0.00    +0.000 F 
ENDBRANCH   2   3
BRANCH   1  16
ATOM     11  F   UNL     1       4.975   5.769  16.104  0.00  0.00    +0.000 F 
ATOM     12  C   UNL     1       5.980   6.032  16.950  0.00  0.00    +0.000 A 
ATOM     13  C   UNL     1       6.453   5.023  17.781  0.00  0.00    +0.000 A 
ATOM     14  C   UNL     1       7.504   5.293  18.652  0.00  0.00    +0.000 A 
ATOM     15  C   UNL     1       8.069   6.572  18.684  0.00  0.00    +0.000 A 
ATOM     16  C   UNL     1       7.583   7.597  17.858  0.00  0.00    +0.000 A 
ATOM     17  C   UNL     1       6.536   7.308  16.975  0.00  0.00    +0.000 A 
ENDBRANCH   1  16
TORSDOF 2
ENDMDL
MODEL 4
REMARK VINA RESULT:      -7.3      1.619      7.072
REMARK  Name = 
REMARK  2 active torsions:
REMARK  status: ('A' for Active; 'I' for Inactive)
REMARK    1  A    between atoms: C_6  and  C_7
REMARK    2  A    between atoms: C_8  and  C_9
REMARK                            x       y       z     vdW  Elec       q    Type
REMARK                         _______ _______ _______ _____ _____    ______ ____
ROOT
ATOM      1  C   UNL     1       8.411   8.437  18.420  0.00  0.00    +0.000 C 
ATOM      2  C   UNL     1       8.241   9.676  17.929  0.00  0.00    +0.000 C 
ENDROOT
BRANCH   2   3
ATOM      3  C   UNL     1       9.031  10.848  18.343  0.00  0.00    +0.000 A 
ATOM      4  C   UNL     1      10.117  10.747  19.222  0.00  0.00    +0.000 A 
ATOM      5  C   UNL     1      10.856  11.880  19.555  0.00  0.00    +0.000 A 
ATOM      6  F   UNL     1      11.890  11.765  20.398  0.00  0.00    +0.000 F 
ATOM      7  C   UNL     1      10.547  13.126  19.020  0.00  0.00    +0.000 A 
ATOM      8  C   UNL     1       9.481  13.241  18.133  0.00  0.00    +0.000 A 
ATOM      9  C   UNL     1       8.738  12.108  17.797  0.00  0.00    +0.000 A 
ATOM     10  F   UNL     1       7.723  12.249  16.930  0.00  0.00    +0.000 F 
ENDBRANCH   2   3
BRANCH   1  16
ATOM     11  F   UNL     1       5.121   6.197  15.603  0.00  0.00    +0.000 F 
ATOM     12  C   UNL     1       6.012   6.145  16.603  0.00  0.00    +0.000 A 
ATOM     13  C   UNL     1       6.240   4.937  17.250  0.00  0.00    +0.000 A 
ATOM     14  C   UNL     1       7.173   4.881  18.281  0.00  0.00    +0.000 A 
ATOM     15  C   UNL     1       7.866   6.036  18.655  0.00  0.00    +0.000 A 
ATOM     16  C   UNL     1       7.626   7.261  18.013  0.00  0.00    +0.000 A 
ATOM     17  C   UNL     1       6.696   7.301  16.968  0.00  0.00    +0.000 A 
ENDBRANCH   1  16
TORSDOF 2
ENDMDL
MODEL 5
REMARK VINA RESULT:      -7.2      6.223      7.529
REMARK  Name = 
REMARK  2 active torsions:
REMARK  status: ('A' for Active; 'I' for Inactive)
REMARK    1  A    between atoms: C_6  and  C_7
REMARK    2  A    between atoms: C_8  and  C_9
REMARK                            x       y       z     vdW  Elec       q    Type
REMARK                         _______ _______ _______ _____ _____    ______ ____
ROOT
ATOM      1  C   UNL     1       5.229   4.161  15.726  0.00  0.00    +0.000 C 
ATOM      2  C   UNL     1       4.849   5.207  16.477  0.00  0.00    +0.000 C 
ENDROOT
BRANCH   2   3
ATOM      3  C   UNL     1       4.116   5.092  17.749  0.00  0.00    +0.000 A 
ATOM      4  C   UNL     1       4.149   3.931  18.531  0.00  0.00    +0.000 A 
ATOM      5  C   UNL     1       3.468   3.884  19.746  0.00  0.00    +0.000 A 
ATOM      6  F   UNL     1       3.510   2.765  20.479  0.00  0.00    +0.000 F 
ATOM      7  C   UNL     1       2.753   4.981  20.215  0.00  0.00    +0.000 A 
ATOM      8  C   UNL     1       2.722   6.148  19.457  0.00  0.00    +0.000 A 
ATOM      9  C   UNL     1       3.403   6.199  18.240  0.00  0.00    +0.000 A 
ATOM     10  F   UNL     1       3.364   7.342  17.538  0.00  0.00    +0.000 F 
ENDBRANCH   2   3
BRANCH   1  16
ATOM     11  F   UNL     1       8.873   5.848  12.958  0.00  0.00    +0.000 F 
ATOM     12  C   UNL     1       7.779   5.084  13.088  0.00  0.00    +0.000 A 
ATOM     13  C   UNL     1       7.342   4.330  12.006  0.00  0.00    +0.000 A 
ATOM     14  C   UNL     1       6.213   3.529  12.144  0.00  0.00    +0.000 A 
ATOM     15  C   UNL     1       5.531   3.493  13.364  0.00  0.00    +0.000 A 
ATOM     16  C   UNL     1       5.961   4.266  14.454  0.00  0.00    +0.000 A 
ATOM     17  C   UNL     1       7.107   5.056  14.306  0.00  0.00    +0.000 A 
ENDBRANCH   1  16
TORSDOF 2
ENDMDL
MODEL 6
REMARK VINA RESULT:      -7.2      6.278      8.084
REMARK  Name = 
REMARK  2 active torsions:
REMARK  status: ('A' for Active; 'I' for Inactive)
REMARK    1  A    between atoms: C_6  and  C_7
REMARK    2  A    between atoms: C_8  and  C_9
REMARK                            x       y       z     vdW  Elec       q    Type
REMARK                         _______ _______ _______ _____ _____    ______ ____
ROOT
ATOM      1  C   UNL     1       4.654   4.342  17.182  0.00  0.00    +0.000 C 
ATOM      2  C   UNL     1       3.787   3.348  17.433  0.00  0.00    +0.000 C 
ENDROOT
BRANCH   2   3
ATOM      3  C   UNL     1       2.931   3.276  18.629  0.00  0.00    +0.000 A 
ATOM      4  C   UNL     1       3.377   2.731  19.840  0.00  0.00    +0.000 A 
ATOM      5  C   UNL     1       2.540   2.719  20.954  0.00  0.00    +0.000 A 
ATOM      6  F   UNL     1       2.984   2.192  22.102  0.00  0.00    +0.000 F 
ATOM      7  C   UNL     1       1.258   3.254  20.899  0.00  0.00    +0.000 A 
ATOM      8  C   UNL     1       0.804   3.814  19.707  0.00  0.00    +0.000 A 
ATOM      9  C   UNL     1       1.639   3.827  18.589  0.00  0.00    +0.000 A 
ATOM     10  F   UNL     1       1.177   4.384  17.459  0.00  0.00    +0.000 F 
ENDBRANCH   2   3
BRANCH   1  16
ATOM     11  F   UNL     1       5.684   3.359  12.518  0.00  0.00    +0.000 F 
ATOM     12  C   UNL     1       6.014   3.954  13.673  0.00  0.00    +0.000 A 
ATOM     13  C   UNL     1       7.179   4.707  13.743  0.00  0.00    +0.000 A 
ATOM     14  C   UNL     1       7.516   5.333  14.940  0.00  0.00    +0.000 A 
ATOM     15  C   UNL     1       6.683   5.195  16.055  0.00  0.00    +0.000 A 
ATOM     16  C   UNL     1       5.514   4.421  15.991  0.00  0.00    +0.000 A 
ATOM     17  C   UNL     1       5.179   3.810  14.777  0.00  0.00    +0.000 A 
ENDBRANCH   1  16
TORSDOF 2
ENDMDL
MODEL 7
REMARK VINA RESULT:      -7.2      6.068      7.739
REMARK  Name = 
REMARK  2 active torsions:
REMARK  status: ('A' for Active; 'I' for Inactive)
REMARK    1  A    between atoms: C_6  and  C_7
REMARK    2  A    between atoms: C_8  and  C_9
REMARK                            x       y       z     vdW  Elec       q    Type
REMARK                         _______ _______ _______ _____ _____    ______ ____
ROOT
ATOM      1  C   UNL     1       4.480   3.849  16.493  0.00  0.00    +0.000 C 
ATOM      2  C   UNL     1       3.932   4.744  17.331  0.00  0.00    +0.000 C 
ENDROOT
BRANCH   2   3
ATOM      3  C   UNL     1       2.902   4.420  18.332  0.00  0.00    +0.000 A 
ATOM      4  C   UNL     1       1.931   3.434  18.118  0.00  0.00    +0.000 A 
ATOM      5  C   UNL     1       1.000   3.139  19.111  0.00  0.00    +0.000 A 
ATOM      6  F   UNL     1       0.079   2.193  18.887  0.00  0.00    +0.000 F 
ATOM      7  C   UNL     1       1.016   3.800  20.335  0.00  0.00    +0.000 A 
ATOM      8  C   UNL     1       1.984   4.772  20.570  0.00  0.00    +0.000 A 
ATOM      9  C   UNL     1       2.918   5.070  19.577  0.00  0.00    +0.000 A 
ATOM     10  F   UNL     1       3.846   6.004  19.839  0.00  0.00    +0.000 F 
ENDBRANCH   2   3
BRANCH   1  16
ATOM     11  F   UNL     1       6.323   3.654  11.982  0.00  0.00    +0.000 F 
ATOM     12  C   UNL     1       6.410   4.087  13.247  0.00  0.00    +0.000 A 
ATOM     13  C   UNL     1       7.476   4.895  13.619  0.00  0.00    +0.000 A 
ATOM     14  C   UNL     1       7.561   5.353  14.930  0.00  0.00    +0.000 A 
ATOM     15  C   UNL     1       6.577   4.994  15.857  0.00  0.00    +0.000 A 
ATOM     16  C   UNL     1       5.508   4.164  15.488  0.00  0.00    +0.000 A 
ATOM     17  C   UNL     1       5.426   3.722  14.163  0.00  0.00    +0.000 A 
ENDBRANCH   1  16
TORSDOF 2
ENDMDL
MODEL 8
REMARK VINA RESULT:      -7.1      6.417      7.603
REMARK  Name = 
REMARK  2 active torsions:
REMARK  status: ('A' for Active; 'I' for Inactive)
REMARK    1  A    between atoms: C_6  and  C_7
REMARK    2  A    between atoms: C_8  and  C_9
REMARK                            x       y       z     vdW  Elec       q    Type
REMARK                         _______ _______ _______ _____ _____    ______ ____
ROOT
ATOM      1  C   UNL     1       5.258   4.570  16.032  0.00  0.00    +0.000 C 
ATOM      2  C   UNL     1       4.322   3.713  16.471  0.00  0.00    +0.000 C 
ENDROOT
BRANCH   2   3
ATOM      3  C   UNL     1       3.680   3.795  17.794  0.00  0.00    +0.000 A 
ATOM      4  C   UNL     1       3.323   5.015  18.381  0.00  0.00    +0.000 A 
ATOM      5  C   UNL     1       2.685   5.037  19.619  0.00  0.00    +0.000 A 
ATOM      6  F   UNL     1       2.352   6.214  20.165  0.00  0.00    +0.000 F 
ATOM      7  C   UNL     1       2.377   3.861  20.293  0.00  0.00    +0.000 A 
ATOM      8  C   UNL     1       2.711   2.638  19.717  0.00  0.00    +0.000 A 
ATOM      9  C   UNL     1       3.350   2.612  18.477  0.00  0.00    +0.000 A 
ATOM     10  F   UNL     1       3.649   1.418  17.943  0.00  0.00    +0.000 F 
ENDBRANCH   2   3
BRANCH   1  16
ATOM     11  F   UNL     1       8.789   5.734  12.875  0.00  0.00    +0.000 F 
ATOM     12  C   UNL     1       7.668   5.054  13.155  0.00  0.00    +0.000 A 
ATOM     13  C   UNL     1       7.120   4.217  12.192  0.00  0.00    +0.000 A 
ATOM     14  C   UNL     1       5.962   3.503  12.486  0.00  0.00    +0.000 A 
ATOM     15  C   UNL     1       5.364   3.638  13.743  0.00  0.00    +0.000 A 
ATOM     16  C   UNL     1       5.906   4.496  14.712  0.00  0.00    +0.000 A 
ATOM     17  C   UNL     1       7.079   5.196  14.408  0.00  0.00    +0.000 A 
ENDBRANCH   1  16
TORSDOF 2
ENDMDL
MODEL 9
REMARK VINA RESULT:      -7.1      5.810      8.307
REMARK  Name = 
REMARK  2 active torsions:
REMARK  status: ('A' for Active; 'I' for Inactive)
REMARK    1  A    between atoms: C_6  and  C_7
REMARK    2  A    between atoms: C_8  and  C_9
REMARK                            x       y       z     vdW  Elec       q    Type
REMARK                         _______ _______ _______ _____ _____    ______ ____
ROOT
ATOM      1  C   UNL     1       3.769   4.828  17.194  0.00  0.00    +0.000 C 
ATOM      2  C   UNL     1       4.625   3.917  16.703  0.00  0.00    +0.000 C 
ENDROOT
BRANCH   2   3
ATOM      3  C   UNL     1       5.569   4.175  15.602  0.00  0.00    +0.000 A 
ATOM      4  C   UNL     1       5.341   3.720  14.297  0.00  0.00    +0.000 A 
ATOM      5  C   UNL     1       6.246   4.021  13.282  0.00  0.00    +0.000 A 
ATOM      6  F   UNL     1       6.011   3.577  12.041  0.00  0.00    +0.000 F 
ATOM      7  C   UNL     1       7.382   4.783  13.531  0.00  0.00    +0.000 A 
ATOM      8  C   UNL     1       7.616   5.256  14.820  0.00  0.00    +0.000 A 
ATOM      9  C   UNL     1       6.712   4.956  15.839  0.00  0.00    +0.000 A 
ATOM     10  F   UNL     1       6.959   5.436  17.067  0.00  0.00    +0.000 F 
ENDBRANCH   2   3
BRANCH   1  16
ATOM     11  F   UNL     1       0.107   2.369  19.275  0.00  0.00    +0.000 F 
ATOM     12  C   UNL     1       1.023   3.346  19.334  0.00  0.00    +0.000 A 
ATOM     13  C   UNL     1       1.118   4.122  20.482  0.00  0.00    +0.000 A 
ATOM     14  C   UNL     1       2.076   5.130  20.547  0.00  0.00    +0.000 A 
ATOM     15  C   UNL     1       2.927   5.351  19.460  0.00  0.00    +0.000 A 
ATOM     16  C   UNL     1       2.822   4.579  18.292  0.00  0.00    +0.000 A 
ATOM     17  C   UNL     1       1.864   3.559  18.246  0.00  0.00    +0.000 A 
ENDBRANCH   1  16
TORSDOF 2
ENDMDL
