MODEL 1
REMARK VINA RESULT:      -6.5      0.000      0.000
REMARK  Name = 
REMARK  6 active torsions:
REMARK  status: ('A' for Active; 'I' for Inactive)
REMARK    1  A    between atoms: C_1  and  C_2
REMARK    2  A    between atoms: C_2  and  C_3
REMARK    3  A    between atoms: N_10  and  C_11
REMARK    4  A    between atoms: C_17  and  N_18
REMARK    5  A    between atoms: C_19  and  C_20
REMARK    6  A    between atoms: C_22  and  C_23
REMARK                            x       y       z     vdW  Elec       q    Type
REMARK                         _______ _______ _______ _____ _____    ______ ____
ROOT
ATOM      1  C   UNL     1       8.970  10.176  18.458  0.00  0.00    +0.000 C 
ATOM      2  C   UNL     1       9.375  11.640  18.722  0.00  0.00    +0.000 C 
ATOM      3  C   UNL     1       8.504  12.552  17.840  0.00  0.00    +0.000 C 
ATOM      4  C   UNL     1      10.863  11.816  18.423  0.00  0.00    +0.000 C 
ATOM      5  C   UNL     1      11.356  13.181  18.839  0.00  0.00    +0.000 C 
ATOM      6  O   UNL     1      12.331  13.679  18.276  0.00  0.00    +0.000 OA
ATOM      7  C   UNL     1      10.722  13.855  20.022  0.00  0.00    +0.000 C 
ATOM      8  C   UNL     1       9.754  13.250  20.741  0.00  0.00    +0.000 C 
ATOM      9  C   UNL     1       9.159  11.946  20.211  0.00  0.00    +0.000 C 
ATOM     10  N   UNL     1       9.254  13.832  21.962  0.00  0.00    +0.000 N 
ATOM     11  C   UNL     1       9.805  15.085  22.435  0.00  0.00    +0.000 C 
ATOM     12  C   UNL     1      10.764  15.729  21.713  0.00  0.00    +0.000 C 
ATOM     13  C   UNL     1      11.268  15.217  20.375  0.00  0.00    +0.000 C 
ENDROOT
BRANCH  10  14
ATOM     14  C   UNL     1       8.244  13.148  22.759  0.00  0.00    +0.000 A 
ATOM     15  C   UNL     1       8.581  12.208  23.753  0.00  0.00    +0.000 A 
ATOM     16  C   UNL     1       7.616  11.476  24.451  0.00  0.00    +0.000 A 
ATOM     17  C   UNL     1       6.271  11.768  24.277  0.00  0.00    +0.000 A 
ATOM     18  C   UNL     1       5.899  12.755  23.373  0.00  0.00    +0.000 A 
ATOM     19  C   UNL     1       6.868  13.396  22.589  0.00  0.00    +0.000 A 
ENDBRANCH  10  14
BRANCH  13  20
ATOM     20  C   UNL     1      10.981  16.241  19.269  0.00  0.00    +0.000 A 
ATOM     21  C   UNL     1       9.662  16.455  18.839  0.00  0.00    +0.000 A 
ATOM     22  C   UNL     1       9.384  17.379  17.832  0.00  0.00    +0.000 A 
ATOM     23  C   UNL     1      10.421  18.100  17.242  0.00  0.00    +0.000 A 
ATOM     24  C   UNL     1      11.735  17.900  17.661  0.00  0.00    +0.000 A 
ATOM     25  C   UNL     1      12.016  16.978  18.669  0.00  0.00    +0.000 A 
ENDBRANCH  13  20
BRANCH  11  26
ATOM     26  N   UNL     1       9.390  15.652  23.642  0.00  0.00    +0.000 N 
ATOM     27  H   UNL     1       9.382  14.985  24.409  0.00  0.00    +0.000 HD
ATOM     28  H   UNL     1       9.821  16.533  23.911  0.00  0.00    +0.000 HD
ENDBRANCH  11  26
BRANCH  12  29
ATOM     29  C   UNL     1      11.386  16.924  22.193  0.00  0.00    +0.000 C 
ATOM     30  N   UNL     1      11.933  17.893  22.543  0.00  0.00    +0.000 NA
ENDBRANCH  12  29
TORSDOF 4
ENDMDL
MODEL 2
REMARK VINA RESULT:      -6.5      0.089      1.288
REMARK  Name = 
REMARK  6 active torsions:
REMARK  status: ('A' for Active; 'I' for Inactive)
REMARK    1  A    between atoms: C_1  and  C_2
REMARK    2  A    between atoms: C_2  and  C_3
REMARK    3  A    between atoms: N_10  and  C_11
REMARK    4  A    between atoms: C_17  and  N_18
REMARK    5  A    between atoms: C_19  and  C_20
REMARK    6  A    between atoms: C_22  and  C_23
REMARK                            x       y       z     vdW  Elec       q    Type
REMARK                         _______ _______ _______ _____ _____    ______ ____
ROOT
ATOM      1  C   UNL     1       8.923  10.119  18.487  0.00  0.00    +0.000 C 
ATOM      2  C   UNL     1       9.347  11.581  18.737  0.00  0.00    +0.000 C 
ATOM      3  C   UNL     1       8.493  12.494  17.840  0.00  0.00    +0.000 C 
ATOM      4  C   UNL     1      10.839  11.733  18.445  0.00  0.00    +0.000 C 
ATOM      5  C   UNL     1      11.348  13.095  18.849  0.00  0.00    +0.000 C 
ATOM      6  O   UNL     1      12.333  13.573  18.286  0.00  0.00    +0.000 OA
ATOM      7  C   UNL     1      10.716  13.792  20.020  0.00  0.00    +0.000 C 
ATOM      8  C   UNL     1       9.737  13.208  20.740  0.00  0.00    +0.000 C 
ATOM      9  C   UNL     1       9.126  11.906  20.222  0.00  0.00    +0.000 C 
ATOM     10  N   UNL     1       9.237  13.810  21.952  0.00  0.00    +0.000 N 
ATOM     11  C   UNL     1       9.803  15.061  22.414  0.00  0.00    +0.000 C 
ATOM     12  C   UNL     1      10.774  15.683  21.691  0.00  0.00    +0.000 C 
ATOM     13  C   UNL     1      11.279  15.149  20.361  0.00  0.00    +0.000 C 
ENDROOT
BRANCH  10  14
ATOM     14  C   UNL     1       8.213  13.148  22.750  0.00  0.00    +0.000 A 
ATOM     15  C   UNL     1       6.840  13.407  22.575  0.00  0.00    +0.000 A 
ATOM     16  C   UNL     1       5.860  12.852  23.403  0.00  0.00    +0.000 A 
ATOM     17  C   UNL     1       6.215  11.900  24.347  0.00  0.00    +0.000 A 
ATOM     18  C   UNL     1       7.552  11.545  24.489  0.00  0.00    +0.000 A 
ATOM     19  C   UNL     1       8.539  12.200  23.739  0.00  0.00    +0.000 A 
ENDBRANCH  10  14
BRANCH  13  20
ATOM     20  C   UNL     1      11.012  16.164  19.243  0.00  0.00    +0.000 A 
ATOM     21  C   UNL     1      12.076  16.893  18.690  0.00  0.00    +0.000 A 
ATOM     22  C   UNL     1      11.850  17.824  17.675  0.00  0.00    +0.000 A 
ATOM     23  C   UNL     1      10.556  18.036  17.201  0.00  0.00    +0.000 A 
ATOM     24  C   UNL     1       9.490  17.317  17.738  0.00  0.00    +0.000 A 
ATOM     25  C   UNL     1       9.714  16.385  18.752  0.00  0.00    +0.000 A 
ENDBRANCH  13  20
BRANCH  11  26
ATOM     26  N   UNL     1       9.389  15.647  23.612  0.00  0.00    +0.000 N 
ATOM     27  H   UNL     1      10.165  15.885  24.223  0.00  0.00    +0.000 HD
ATOM     28  H   UNL     1       8.712  16.402  23.547  0.00  0.00    +0.000 HD
ENDBRANCH  11  26
BRANCH  12  29
ATOM     29  C   UNL     1      11.410  16.875  22.161  0.00  0.00    +0.000 C 
ATOM     30  N   UNL     1      11.885  17.877  22.523  0.00  0.00    +0.000 NA
ENDBRANCH  12  29
TORSDOF 4
ENDMDL
MODEL 3
REMARK VINA RESULT:      -6.3     10.710     13.555
REMARK  Name = 
REMARK  6 active torsions:
REMARK  status: ('A' for Active; 'I' for Inactive)
REMARK    1  A    between atoms: C_1  and  C_2
REMARK    2  A    between atoms: C_2  and  C_3
REMARK    3  A    between atoms: N_10  and  C_11
REMARK    4  A    between atoms: C_17  and  N_18
REMARK    5  A    between atoms: C_19  and  C_20
REMARK    6  A    between atoms: C_22  and  C_23
REMARK                            x       y       z     vdW  Elec       q    Type
REMARK                         _______ _______ _______ _____ _____    ______ ____
ROOT
ATOM      1  C   UNL     1      -1.863  15.673  23.142  0.00  0.00    +0.000 C 
ATOM      2  C   UNL     1      -1.617  14.463  22.219  0.00  0.00    +0.000 C 
ATOM      3  C   UNL     1      -1.267  13.247  23.095  0.00  0.00    +0.000 C 
ATOM      4  C   UNL     1      -0.496  14.795  21.236  0.00  0.00    +0.000 C 
ATOM      5  C   UNL     1      -0.336  13.719  20.190  0.00  0.00    +0.000 C 
ATOM      6  O   UNL     1       0.753  13.553  19.641  0.00  0.00    +0.000 OA
ATOM      7  C   UNL     1      -1.548  12.948  19.747  0.00  0.00    +0.000 C 
ATOM      8  C   UNL     1      -2.774  13.227  20.233  0.00  0.00    +0.000 C 
ATOM      9  C   UNL     1      -2.891  14.204  21.402  0.00  0.00    +0.000 C 
ATOM     10  N   UNL     1      -3.954  12.593  19.697  0.00  0.00    +0.000 N 
ATOM     11  C   UNL     1      -3.824  11.645  18.610  0.00  0.00    +0.000 C 
ATOM     12  C   UNL     1      -2.595  11.327  18.120  0.00  0.00    +0.000 C 
ATOM     13  C   UNL     1      -1.308  11.889  18.699  0.00  0.00    +0.000 C 
ENDROOT
BRANCH  10  14
ATOM     14  C   UNL     1      -5.280  12.937  20.194  0.00  0.00    +0.000 A 
ATOM     15  C   UNL     1      -5.880  12.254  21.269  0.00  0.00    +0.000 A 
ATOM     16  C   UNL     1      -7.189  12.512  21.685  0.00  0.00    +0.000 A 
ATOM     17  C   UNL     1      -7.893  13.570  21.128  0.00  0.00    +0.000 A 
ATOM     18  C   UNL     1      -7.301  14.330  20.126  0.00  0.00    +0.000 A 
ATOM     19  C   UNL     1      -6.036  13.984  19.632  0.00  0.00    +0.000 A 
ENDBRANCH  10  14
BRANCH  13  20
ATOM     20  C   UNL     1      -0.426  10.756  19.239  0.00  0.00    +0.000 A 
ATOM     21  C   UNL     1      -0.661  10.236  20.521  0.00  0.00    +0.000 A 
ATOM     22  C   UNL     1       0.134   9.208  21.028  0.00  0.00    +0.000 A 
ATOM     23  C   UNL     1       1.175   8.689  20.260  0.00  0.00    +0.000 A 
ATOM     24  C   UNL     1       1.419   9.194  18.985  0.00  0.00    +0.000 A 
ATOM     25  C   UNL     1       0.624  10.220  18.473  0.00  0.00    +0.000 A 
ENDBRANCH  13  20
BRANCH  11  26
ATOM     26  N   UNL     1      -4.946  11.054  18.024  0.00  0.00    +0.000 N 
ATOM     27  H   UNL     1      -4.708  10.275  17.415  0.00  0.00    +0.000 HD
ATOM     28  H   UNL     1      -5.724  10.831  18.637  0.00  0.00    +0.000 HD
ENDBRANCH  11  26
BRANCH  12  29
ATOM     29  C   UNL     1      -2.438  10.458  16.994  0.00  0.00    +0.000 C 
ATOM     30  N   UNL     1      -2.367   9.744  16.075  0.00  0.00    +0.000 NA
ENDBRANCH  12  29
TORSDOF 4
ENDMDL
MODEL 4
REMARK VINA RESULT:      -6.2     10.701     13.585
REMARK  Name = 
REMARK  6 active torsions:
REMARK  status: ('A' for Active; 'I' for Inactive)
REMARK    1  A    between atoms: C_1  and  C_2
REMARK    2  A    between atoms: C_2  and  C_3
REMARK    3  A    between atoms: N_10  and  C_11
REMARK    4  A    between atoms: C_17  and  N_18
REMARK    5  A    between atoms: C_19  and  C_20
REMARK    6  A    between atoms: C_22  and  C_23
REMARK                            x       y       z     vdW  Elec       q    Type
REMARK                         _______ _______ _______ _____ _____    ______ ____
ROOT
ATOM      1  C   UNL     1      -1.845  15.706  23.122  0.00  0.00    +0.000 C 
ATOM      2  C   UNL     1      -1.604  14.491  22.203  0.00  0.00    +0.000 C 
ATOM      3  C   UNL     1      -1.245  13.280  23.082  0.00  0.00    +0.000 C 
ATOM      4  C   UNL     1      -0.491  14.821  21.209  0.00  0.00    +0.000 C 
ATOM      5  C   UNL     1      -0.338  13.739  20.167  0.00  0.00    +0.000 C 
ATOM      6  O   UNL     1       0.747  13.573  19.610  0.00  0.00    +0.000 OA
ATOM      7  C   UNL     1      -1.552  12.965  19.737  0.00  0.00    +0.000 C 
ATOM      8  C   UNL     1      -2.775  13.245  20.231  0.00  0.00    +0.000 C 
ATOM      9  C   UNL     1      -2.885  14.226  21.397  0.00  0.00    +0.000 C 
ATOM     10  N   UNL     1      -3.958  12.606  19.708  0.00  0.00    +0.000 N 
ATOM     11  C   UNL     1      -3.835  11.653  18.624  0.00  0.00    +0.000 C 
ATOM     12  C   UNL     1      -2.609  11.335  18.126  0.00  0.00    +0.000 C 
ATOM     13  C   UNL     1      -1.318  11.901  18.693  0.00  0.00    +0.000 C 
ENDROOT
BRANCH  10  14
ATOM     14  C   UNL     1      -5.281  12.950  20.213  0.00  0.00    +0.000 A 
ATOM     15  C   UNL     1      -6.053  13.986  19.652  0.00  0.00    +0.000 A 
ATOM     16  C   UNL     1      -7.277  14.386  20.194  0.00  0.00    +0.000 A 
ATOM     17  C   UNL     1      -7.840  13.662  21.234  0.00  0.00    +0.000 A 
ATOM     18  C   UNL     1      -7.153  12.572  21.756  0.00  0.00    +0.000 A 
ATOM     19  C   UNL     1      -5.870  12.257  21.287  0.00  0.00    +0.000 A 
ENDBRANCH  10  14
BRANCH  13  20
ATOM     20  C   UNL     1      -0.430  10.772  19.231  0.00  0.00    +0.000 A 
ATOM     21  C   UNL     1       0.618  10.270  18.444  0.00  0.00    +0.000 A 
ATOM     22  C   UNL     1       1.432   9.241  18.918  0.00  0.00    +0.000 A 
ATOM     23  C   UNL     1       1.207   8.700  20.183  0.00  0.00    +0.000 A 
ATOM     24  C   UNL     1       0.172   9.190  20.976  0.00  0.00    +0.000 A 
ATOM     25  C   UNL     1      -0.643  10.221  20.507  0.00  0.00    +0.000 A 
ENDBRANCH  13  20
BRANCH  11  26
ATOM     26  N   UNL     1      -4.960  11.057  18.050  0.00  0.00    +0.000 N 
ATOM     27  H   UNL     1      -4.768  10.131  17.676  0.00  0.00    +0.000 HD
ATOM     28  H   UNL     1      -5.820  11.076  18.590  0.00  0.00    +0.000 HD
ENDBRANCH  11  26
BRANCH  12  29
ATOM     29  C   UNL     1      -2.460  10.461  17.004  0.00  0.00    +0.000 C 
ATOM     30  N   UNL     1      -2.385   9.721  16.104  0.00  0.00    +0.000 NA
ENDBRANCH  12  29
TORSDOF 4
ENDMDL
MODEL 5
REMARK VINA RESULT:      -5.9      8.153     11.305
REMARK  Name = 
REMARK  6 active torsions:
REMARK  status: ('A' for Active; 'I' for Inactive)
REMARK    1  A    between atoms: C_1  and  C_2
REMARK    2  A    between atoms: C_2  and  C_3
REMARK    3  A    between atoms: N_10  and  C_11
REMARK    4  A    between atoms: C_17  and  N_18
REMARK    5  A    between atoms: C_19  and  C_20
REMARK    6  A    between atoms: C_22  and  C_23
REMARK                            x       y       z     vdW  Elec       q    Type
REMARK                         _______ _______ _______ _____ _____    ______ ____
ROOT
ATOM      1  C   UNL     1       1.834   9.487  17.993  0.00  0.00    +0.000 C 
ATOM      2  C   UNL     1       0.926  10.445  18.790  0.00  0.00    +0.000 C 
ATOM      3  C   UNL     1       0.926  10.002  20.264  0.00  0.00    +0.000 C 
ATOM      4  C   UNL     1      -0.480  10.424  18.192  0.00  0.00    +0.000 C 
ATOM      5  C   UNL     1      -1.364  11.478  18.813  0.00  0.00    +0.000 C 
ATOM      6  O   UNL     1      -2.585  11.321  18.834  0.00  0.00    +0.000 OA
ATOM      7  C   UNL     1      -0.744  12.764  19.283  0.00  0.00    +0.000 C 
ATOM      8  C   UNL     1       0.572  13.009  19.124  0.00  0.00    +0.000 C 
ATOM      9  C   UNL     1       1.474  11.872  18.644  0.00  0.00    +0.000 C 
ATOM     10  N   UNL     1       1.137  14.299  19.437  0.00  0.00    +0.000 N 
ATOM     11  C   UNL     1       0.275  15.358  19.922  0.00  0.00    +0.000 C 
ATOM     12  C   UNL     1      -1.052  15.127  20.116  0.00  0.00    +0.000 C 
ATOM     13  C   UNL     1      -1.692  13.767  19.893  0.00  0.00    +0.000 C 
ENDROOT
BRANCH  10  14
ATOM     14  C   UNL     1       2.551  14.571  19.215  0.00  0.00    +0.000 A 
ATOM     15  C   UNL     1       3.510  14.445  20.239  0.00  0.00    +0.000 A 
ATOM     16  C   UNL     1       4.850  14.800  20.059  0.00  0.00    +0.000 A 
ATOM     17  C   UNL     1       5.305  15.158  18.798  0.00  0.00    +0.000 A 
ATOM     18  C   UNL     1       4.408  15.204  17.737  0.00  0.00    +0.000 A 
ATOM     19  C   UNL     1       3.044  14.966  17.956  0.00  0.00    +0.000 A 
ENDBRANCH  10  14
BRANCH  13  20
ATOM     20  C   UNL     1      -2.299  13.242  21.201  0.00  0.00    +0.000 A 
ATOM     21  C   UNL     1      -1.464  12.709  22.195  0.00  0.00    +0.000 A 
ATOM     22  C   UNL     1      -2.001  12.224  23.389  0.00  0.00    +0.000 A 
ATOM     23  C   UNL     1      -3.378  12.266  23.601  0.00  0.00    +0.000 A 
ATOM     24  C   UNL     1      -4.218  12.795  22.624  0.00  0.00    +0.000 A 
ATOM     25  C   UNL     1      -3.685  13.283  21.430  0.00  0.00    +0.000 A 
ENDBRANCH  13  20
BRANCH  11  26
ATOM     26  N   UNL     1       0.771  16.637  20.180  0.00  0.00    +0.000 N 
ATOM     27  H   UNL     1       0.643  17.275  19.398  0.00  0.00    +0.000 HD
ATOM     28  H   UNL     1       0.510  17.064  21.064  0.00  0.00    +0.000 HD
ENDBRANCH  11  26
BRANCH  12  29
ATOM     29  C   UNL     1      -1.944  16.172  20.515  0.00  0.00    +0.000 C 
ATOM     30  N   UNL     1      -2.626  17.055  20.854  0.00  0.00    +0.000 NA
ENDBRANCH  12  29
TORSDOF 4
ENDMDL
MODEL 6
REMARK VINA RESULT:      -5.9      8.162     11.311
REMARK  Name = 
REMARK  6 active torsions:
REMARK  status: ('A' for Active; 'I' for Inactive)
REMARK    1  A    between atoms: C_1  and  C_2
REMARK    2  A    between atoms: C_2  and  C_3
REMARK    3  A    between atoms: N_10  and  C_11
REMARK    4  A    between atoms: C_17  and  N_18
REMARK    5  A    between atoms: C_19  and  C_20
REMARK    6  A    between atoms: C_22  and  C_23
REMARK                            x       y       z     vdW  Elec       q    Type
REMARK                         _______ _______ _______ _____ _____    ______ ____
ROOT
ATOM      1  C   UNL     1       1.838   9.503  17.976  0.00  0.00    +0.000 C 
ATOM      2  C   UNL     1       0.929  10.454  18.780  0.00  0.00    +0.000 C 
ATOM      3  C   UNL     1       0.937  10.006  20.252  0.00  0.00    +0.000 C 
ATOM      4  C   UNL     1      -0.479  10.430  18.187  0.00  0.00    +0.000 C 
ATOM      5  C   UNL     1      -1.365  11.478  18.816  0.00  0.00    +0.000 C 
ATOM      6  O   UNL     1      -2.585  11.315  18.841  0.00  0.00    +0.000 OA
ATOM      7  C   UNL     1      -0.749  12.764  19.288  0.00  0.00    +0.000 C 
ATOM      8  C   UNL     1       0.565  13.016  19.125  0.00  0.00    +0.000 C 
ATOM      9  C   UNL     1       1.470  11.885  18.638  0.00  0.00    +0.000 C 
ATOM     10  N   UNL     1       1.126  14.307  19.440  0.00  0.00    +0.000 N 
ATOM     11  C   UNL     1       0.261  15.360  19.932  0.00  0.00    +0.000 C 
ATOM     12  C   UNL     1      -1.064  15.123  20.130  0.00  0.00    +0.000 C 
ATOM     13  C   UNL     1      -1.699  13.761  19.906  0.00  0.00    +0.000 C 
ENDROOT
BRANCH  10  14
ATOM     14  C   UNL     1       2.538  14.586  19.214  0.00  0.00    +0.000 A 
ATOM     15  C   UNL     1       3.029  15.007  17.963  0.00  0.00    +0.000 A 
ATOM     16  C   UNL     1       4.393  15.181  17.713  0.00  0.00    +0.000 A 
ATOM     17  C   UNL     1       5.304  15.078  18.754  0.00  0.00    +0.000 A 
ATOM     18  C   UNL     1       4.849  14.755  20.028  0.00  0.00    +0.000 A 
ATOM     19  C   UNL     1       3.494  14.462  20.240  0.00  0.00    +0.000 A 
ENDBRANCH  10  14
BRANCH  13  20
ATOM     20  C   UNL     1      -2.299  13.229  21.213  0.00  0.00    +0.000 A 
ATOM     21  C   UNL     1      -3.686  13.283  21.420  0.00  0.00    +0.000 A 
ATOM     22  C   UNL     1      -4.247  12.807  22.606  0.00  0.00    +0.000 A 
ATOM     23  C   UNL     1      -3.427  12.273  23.599  0.00  0.00    +0.000 A 
ATOM     24  C   UNL     1      -2.049  12.211  23.406  0.00  0.00    +0.000 A 
ATOM     25  C   UNL     1      -1.485  12.683  22.221  0.00  0.00    +0.000 A 
ENDBRANCH  13  20
BRANCH  11  26
ATOM     26  N   UNL     1       0.753  16.641  20.193  0.00  0.00    +0.000 N 
ATOM     27  H   UNL     1       1.717  16.762  19.893  0.00  0.00    +0.000 HD
ATOM     28  H   UNL     1       0.169  17.425  19.917  0.00  0.00    +0.000 HD
ENDBRANCH  11  26
BRANCH  12  29
ATOM     29  C   UNL     1      -1.959  16.163  20.537  0.00  0.00    +0.000 C 
ATOM     30  N   UNL     1      -2.651  17.048  20.850  0.00  0.00    +0.000 NA
ENDBRANCH  12  29
TORSDOF 4
ENDMDL
MODEL 7
REMARK VINA RESULT:      -5.8      2.449      4.033
REMARK  Name = 
REMARK  6 active torsions:
REMARK  status: ('A' for Active; 'I' for Inactive)
REMARK    1  A    between atoms: C_1  and  C_2
REMARK    2  A    between atoms: C_2  and  C_3
REMARK    3  A    between atoms: N_10  and  C_11
REMARK    4  A    between atoms: C_17  and  N_18
REMARK    5  A    between atoms: C_19  and  C_20
REMARK    6  A    between atoms: C_22  and  C_23
REMARK                            x       y       z     vdW  Elec       q    Type
REMARK                         _______ _______ _______ _____ _____    ______ ____
ROOT
ATOM      1  C   UNL     1       4.743  16.862  21.444  0.00  0.00    +0.000 C 
ATOM      2  C   UNL     1       6.085  16.417  20.828  0.00  0.00    +0.000 C 
ATOM      3  C   UNL     1       7.136  17.503  21.119  0.00  0.00    +0.000 C 
ATOM      4  C   UNL     1       5.904  16.190  19.328  0.00  0.00    +0.000 C 
ATOM      5  C   UNL     1       7.135  15.578  18.706  0.00  0.00    +0.000 C 
ATOM      6  O   UNL     1       7.374  15.760  17.512  0.00  0.00    +0.000 OA
ATOM      7  C   UNL     1       7.983  14.651  19.529  0.00  0.00    +0.000 C 
ATOM      8  C   UNL     1       7.645  14.325  20.793  0.00  0.00    +0.000 C 
ATOM      9  C   UNL     1       6.492  15.076  21.457  0.00  0.00    +0.000 C 
ATOM     10  N   UNL     1       8.374  13.321  21.529  0.00  0.00    +0.000 N 
ATOM     11  C   UNL     1       9.486  12.640  20.897  0.00  0.00    +0.000 C 
ATOM     12  C   UNL     1       9.863  12.970  19.632  0.00  0.00    +0.000 C 
ATOM     13  C   UNL     1       9.197  14.080  18.838  0.00  0.00    +0.000 C 
ENDROOT
BRANCH  10  14
ATOM     14  C   UNL     1       7.971  12.939  22.876  0.00  0.00    +0.000 A 
ATOM     15  C   UNL     1       8.488  13.572  24.023  0.00  0.00    +0.000 A 
ATOM     16  C   UNL     1       8.181  13.144  25.318  0.00  0.00    +0.000 A 
ATOM     17  C   UNL     1       7.228  12.155  25.509  0.00  0.00    +0.000 A 
ATOM     18  C   UNL     1       6.623  11.568  24.404  0.00  0.00    +0.000 A 
ATOM     19  C   UNL     1       7.029  11.918  23.109  0.00  0.00    +0.000 A 
ENDBRANCH  10  14
BRANCH  13  20
ATOM     20  C   UNL     1      10.214  15.176  18.494  0.00  0.00    +0.000 A 
ATOM     21  C   UNL     1      10.759  15.245  17.203  0.00  0.00    +0.000 A 
ATOM     22  C   UNL     1      11.689  16.232  16.876  0.00  0.00    +0.000 A 
ATOM     23  C   UNL     1      12.085  17.162  17.836  0.00  0.00    +0.000 A 
ATOM     24  C   UNL     1      11.550  17.107  19.121  0.00  0.00    +0.000 A 
ATOM     25  C   UNL     1      10.619  16.122  19.451  0.00  0.00    +0.000 A 
ENDBRANCH  13  20
BRANCH  11  26
ATOM     26  N   UNL     1      10.180  11.620  21.553  0.00  0.00    +0.000 N 
ATOM     27  H   UNL     1      11.094  11.440  21.145  0.00  0.00    +0.000 HD
ATOM     28  H   UNL     1      10.220  11.667  22.567  0.00  0.00    +0.000 HD
ENDBRANCH  11  26
BRANCH  12  29
ATOM     29  C   UNL     1      10.903  12.261  18.951  0.00  0.00    +0.000 C 
ATOM     30  N   UNL     1      11.784  11.691  18.441  0.00  0.00    +0.000 NA
ENDBRANCH  12  29
TORSDOF 4
ENDMDL
MODEL 8
REMARK VINA RESULT:      -5.7      2.455      4.303
REMARK  Name = 
REMARK  6 active torsions:
REMARK  status: ('A' for Active; 'I' for Inactive)
REMARK    1  A    between atoms: C_1  and  C_2
REMARK    2  A    between atoms: C_2  and  C_3
REMARK    3  A    between atoms: N_10  and  C_11
REMARK    4  A    between atoms: C_17  and  N_18
REMARK    5  A    between atoms: C_19  and  C_20
REMARK    6  A    between atoms: C_22  and  C_23
REMARK                            x       y       z     vdW  Elec       q    Type
REMARK                         _______ _______ _______ _____ _____    ______ ____
ROOT
ATOM      1  C   UNL     1       4.974  17.177  22.390  0.00  0.00    +0.000 C 
ATOM      2  C   UNL     1       6.194  16.643  21.613  0.00  0.00    +0.000 C 
ATOM      3  C   UNL     1       7.398  17.555  21.913  0.00  0.00    +0.000 C 
ATOM      4  C   UNL     1       5.868  16.608  20.120  0.00  0.00    +0.000 C 
ATOM      5  C   UNL     1       6.956  15.923  19.329  0.00  0.00    +0.000 C 
ATOM      6  O   UNL     1       7.123  16.205  18.143  0.00  0.00    +0.000 OA
ATOM      7  C   UNL     1       7.738  14.815  19.975  0.00  0.00    +0.000 C 
ATOM      8  C   UNL     1       7.460  14.394  21.226  0.00  0.00    +0.000 C 
ATOM      9  C   UNL     1       6.470  15.202  22.064  0.00  0.00    +0.000 C 
ATOM     10  N   UNL     1       8.107  13.233  21.787  0.00  0.00    +0.000 N 
ATOM     11  C   UNL     1       9.067  12.496  20.992  0.00  0.00    +0.000 C 
ATOM     12  C   UNL     1       9.385  12.916  19.737  0.00  0.00    +0.000 C 
ATOM     13  C   UNL     1       8.809  14.180  19.122  0.00  0.00    +0.000 C 
ENDROOT
BRANCH  10  14
ATOM     14  C   UNL     1       7.764  12.756  23.121  0.00  0.00    +0.000 A 
ATOM     15  C   UNL     1       6.706  11.853  23.346  0.00  0.00    +0.000 A 
ATOM     16  C   UNL     1       6.310  11.470  24.631  0.00  0.00    +0.000 A 
ATOM     17  C   UNL     1       7.056  11.867  25.730  0.00  0.00    +0.000 A 
ATOM     18  C   UNL     1       8.165  12.683  25.542  0.00  0.00    +0.000 A 
ATOM     19  C   UNL     1       8.480  13.162  24.263  0.00  0.00    +0.000 A 
ENDBRANCH  10  14
BRANCH  13  20
ATOM     20  C   UNL     1       9.931  15.175  18.798  0.00  0.00    +0.000 A 
ATOM     21  C   UNL     1      10.570  15.871  19.835  0.00  0.00    +0.000 A 
ATOM     22  C   UNL     1      11.589  16.783  19.557  0.00  0.00    +0.000 A 
ATOM     23  C   UNL     1      11.981  17.009  18.239  0.00  0.00    +0.000 A 
ATOM     24  C   UNL     1      11.357  16.323  17.199  0.00  0.00    +0.000 A 
ATOM     25  C   UNL     1      10.339  15.410  17.473  0.00  0.00    +0.000 A 
ENDBRANCH  13  20
BRANCH  11  26
ATOM     26  N   UNL     1       9.672  11.334  21.476  0.00  0.00    +0.000 N 
ATOM     27  H   UNL     1      10.590  11.169  21.071  0.00  0.00    +0.000 HD
ATOM     28  H   UNL     1       9.672  11.198  22.483  0.00  0.00    +0.000 HD
ENDBRANCH  11  26
BRANCH  12  29
ATOM     29  C   UNL     1      10.266  12.166  18.896  0.00  0.00    +0.000 C 
ATOM     30  N   UNL     1      11.007  11.530  18.257  0.00  0.00    +0.000 NA
ENDBRANCH  12  29
TORSDOF 4
ENDMDL
MODEL 9
REMARK VINA RESULT:      -5.6     10.202     13.808
REMARK  Name = 
REMARK  6 active torsions:
REMARK  status: ('A' for Active; 'I' for Inactive)
REMARK    1  A    between atoms: C_1  and  C_2
REMARK    2  A    between atoms: C_2  and  C_3
REMARK    3  A    between atoms: N_10  and  C_11
REMARK    4  A    between atoms: C_17  and  N_18
REMARK    5  A    between atoms: C_19  and  C_20
REMARK    6  A    between atoms: C_22  and  C_23
REMARK                            x       y       z     vdW  Elec       q    Type
REMARK                         _______ _______ _______ _____ _____    ______ ____
ROOT
ATOM      1  C   UNL     1      -0.891  15.624  24.463  0.00  0.00    +0.000 C 
ATOM      2  C   UNL     1      -1.807  14.994  23.395  0.00  0.00    +0.000 C 
ATOM      3  C   UNL     1      -2.855  16.040  22.974  0.00  0.00    +0.000 C 
ATOM      4  C   UNL     1      -2.459  13.736  23.966  0.00  0.00    +0.000 C 
ATOM      5  C   UNL     1      -3.222  12.975  22.908  0.00  0.00    +0.000 C 
ATOM      6  O   UNL     1      -4.167  12.256  23.230  0.00  0.00    +0.000 OA
ATOM      7  C   UNL     1      -2.732  13.014  21.488  0.00  0.00    +0.000 C 
ATOM      8  C   UNL     1      -1.607  13.677  21.150  0.00  0.00    +0.000 C 
ATOM      9  C   UNL     1      -0.943  14.569  22.198  0.00  0.00    +0.000 C 
ATOM     10  N   UNL     1      -1.056  13.589  19.820  0.00  0.00    +0.000 N 
ATOM     11  C   UNL     1      -1.715  12.764  18.827  0.00  0.00    +0.000 C 
ATOM     12  C   UNL     1      -2.866  12.107  19.136  0.00  0.00    +0.000 C 
ATOM     13  C   UNL     1      -3.547  12.231  20.489  0.00  0.00    +0.000 C 
ENDROOT
BRANCH  10  14
ATOM     14  C   UNL     1       0.186  14.267  19.477  0.00  0.00    +0.000 A 
ATOM     15  C   UNL     1       1.445  13.654  19.632  0.00  0.00    +0.000 A 
ATOM     16  C   UNL     1       2.644  14.334  19.399  0.00  0.00    +0.000 A 
ATOM     17  C   UNL     1       2.618  15.612  18.861  0.00  0.00    +0.000 A 
ATOM     18  C   UNL     1       1.395  16.219  18.605  0.00  0.00    +0.000 A 
ATOM     19  C   UNL     1       0.200  15.576  18.957  0.00  0.00    +0.000 A 
ENDBRANCH  10  14
BRANCH  13  20
ATOM     20  C   UNL     1      -4.954  12.821  20.326  0.00  0.00    +0.000 A 
ATOM     21  C   UNL     1      -6.076  11.980  20.380  0.00  0.00    +0.000 A 
ATOM     22  C   UNL     1      -7.362  12.501  20.230  0.00  0.00    +0.000 A 
ATOM     23  C   UNL     1      -7.540  13.868  20.023  0.00  0.00    +0.000 A 
ATOM     24  C   UNL     1      -6.436  14.714  19.970  0.00  0.00    +0.000 A 
ATOM     25  C   UNL     1      -5.148  14.198  20.122  0.00  0.00    +0.000 A 
ENDBRANCH  13  20
BRANCH  11  26
ATOM     26  N   UNL     1      -1.183  12.605  17.546  0.00  0.00    +0.000 N 
ATOM     27  H   UNL     1      -0.166  12.620  17.537  0.00  0.00    +0.000 HD
ATOM     28  H   UNL     1      -1.555  11.846  16.983  0.00  0.00    +0.000 HD
ENDBRANCH  11  26
BRANCH  12  29
ATOM     29  C   UNL     1      -3.496  11.221  18.206  0.00  0.00    +0.000 C 
ATOM     30  N   UNL     1      -3.977  10.458  17.466  0.00  0.00    +0.000 NA
ENDBRANCH  12  29
TORSDOF 4
ENDMDL
