MODEL 1
REMARK VINA RESULT:      -7.8      0.000      0.000
REMARK  Name = 
REMARK  3 active torsions:
REMARK  status: ('A' for Active; 'I' for Inactive)
REMARK    1  A    between atoms: C_4  and  C_5
REMARK    2  A    between atoms: C_5  and  C_6
REMARK    3  A    between atoms: N_12  and  C_13
REMARK                            x       y       z     vdW  Elec       q    Type
REMARK                         _______ _______ _______ _____ _____    ______ ____
ROOT
ATOM      1  N   UNL     1       3.706   0.674  18.362  0.00  0.00    +0.000 N 
ATOM      2  C   UNL     1       3.489   1.982  18.646  0.00  0.00    +0.000 C 
ATOM      3  N   UNL     1       4.282   2.856  18.150  0.00  0.00    +0.000 NA
ATOM      4  C   UNL     1       4.038   4.266  18.466  0.00  0.00    +0.000 C 
ATOM      5  N   UNL     1       2.753   4.576  19.133  0.00  0.00    +0.000 N 
ATOM      6  C   UNL     1       2.088   3.477  19.621  0.00  0.00    +0.000 C 
ATOM      7  N   UNL     1       0.922   3.637  20.304  0.00  0.00    +0.000 N 
ATOM      8  N   UNL     1       2.437   2.243  19.450  0.00  0.00    +0.000 NA
ATOM      9  H   UNL     1       4.660   0.489  18.084  0.00  0.00    +0.000 HD
ATOM     10  H   UNL     1       3.335   0.055  19.068  0.00  0.00    +0.000 HD
ATOM     11  H   UNL     1       0.274   4.249  19.823  0.00  0.00    +0.000 HD
ATOM     12  H   UNL     1       0.491   2.730  20.458  0.00  0.00    +0.000 HD
ENDROOT
BRANCH   5  13
ATOM     13  C   UNL     1       2.296   5.921  19.162  0.00  0.00    +0.000 A 
ATOM     14  C   UNL     1       1.956   6.569  20.364  0.00  0.00    +0.000 A 
ATOM     15  C   UNL     1       1.643   7.937  20.411  0.00  0.00    +0.000 A 
ATOM     16  C   UNL     1       1.666   8.698  19.251  0.00  0.00    +0.000 A 
ATOM     17 CL   UNL     1       1.363  10.388  19.319  0.00  0.00    +0.000 Cl
ATOM     18  C   UNL     1       1.940   8.088  18.036  0.00  0.00    +0.000 A 
ATOM     19  C   UNL     1       2.217   6.713  17.996  0.00  0.00    +0.000 A 
ENDBRANCH   5  13
BRANCH   4  20
ATOM     20  C   UNL     1       5.229   4.765  19.331  0.00  0.00    +0.000 C 
BRANCH  20  21
ATOM     21  C   UNL     1       6.168   5.769  18.680  0.00  0.00    +0.000 A 
ATOM     22  C   UNL     1       5.770   6.510  17.557  0.00  0.00    +0.000 A 
ATOM     23  C   UNL     1       6.602   7.505  17.029  0.00  0.00    +0.000 A 
ATOM     24  C   UNL     1       7.842   7.763  17.610  0.00  0.00    +0.000 A 
ATOM     25  C   UNL     1       8.265   7.009  18.701  0.00  0.00    +0.000 A 
ATOM     26  C   UNL     1       7.435   6.016  19.229  0.00  0.00    +0.000 A 
ENDBRANCH  20  21
ENDBRANCH   4  20
TORSDOF 3
ENDMDL
MODEL 2
REMARK VINA RESULT:      -7.8      2.649      5.180
REMARK  Name = 
REMARK  3 active torsions:
REMARK  status: ('A' for Active; 'I' for Inactive)
REMARK    1  A    between atoms: C_4  and  C_5
REMARK    2  A    between atoms: C_5  and  C_6
REMARK    3  A    between atoms: N_12  and  C_13
REMARK                            x       y       z     vdW  Elec       q    Type
REMARK                         _______ _______ _______ _____ _____    ______ ____
ROOT
ATOM      1  N   UNL     1       2.092   3.121  21.975  0.00  0.00    +0.000 N 
ATOM      2  C   UNL     1       2.678   3.414  20.789  0.00  0.00    +0.000 C 
ATOM      3  N   UNL     1       2.874   4.643  20.489  0.00  0.00    +0.000 NA
ATOM      4  C   UNL     1       3.507   4.947  19.202  0.00  0.00    +0.000 C 
ATOM      5  N   UNL     1       4.085   3.798  18.469  0.00  0.00    +0.000 N 
ATOM      6  C   UNL     1       3.705   2.568  18.950  0.00  0.00    +0.000 C 
ATOM      7  N   UNL     1       4.126   1.435  18.326  0.00  0.00    +0.000 N 
ATOM      8  N   UNL     1       3.000   2.356  20.015  0.00  0.00    +0.000 NA
ATOM      9  H   UNL     1       1.554   3.893  22.345  0.00  0.00    +0.000 HD
ATOM     10  H   UNL     1       1.618   2.230  21.967  0.00  0.00    +0.000 HD
ATOM     11  H   UNL     1       5.122   1.442  18.142  0.00  0.00    +0.000 HD
ATOM     12  H   UNL     1       3.886   0.626  18.892  0.00  0.00    +0.000 HD
ENDROOT
BRANCH   5  13
ATOM     13  C   UNL     1       4.997   4.045  17.407  0.00  0.00    +0.000 A 
ATOM     14  C   UNL     1       4.613   3.950  16.056  0.00  0.00    +0.000 A 
ATOM     15  C   UNL     1       5.469   4.331  15.010  0.00  0.00    +0.000 A 
ATOM     16  C   UNL     1       6.737   4.823  15.290  0.00  0.00    +0.000 A 
ATOM     17 CL   UNL     1       7.754   5.366  14.015  0.00  0.00    +0.000 Cl
ATOM     18  C   UNL     1       7.175   4.879  16.604  0.00  0.00    +0.000 A 
ATOM     19  C   UNL     1       6.324   4.463  17.639  0.00  0.00    +0.000 A 
ENDBRANCH   5  13
BRANCH   4  20
ATOM     20  C   UNL     1       2.452   5.674  18.322  0.00  0.00    +0.000 C 
BRANCH  20  21
ATOM     21  C   UNL     1       2.144   7.118  18.685  0.00  0.00    +0.000 A 
ATOM     22  C   UNL     1       2.142   8.126  17.708  0.00  0.00    +0.000 A 
ATOM     23  C   UNL     1       1.756   9.432  18.034  0.00  0.00    +0.000 A 
ATOM     24  C   UNL     1       1.378   9.747  19.338  0.00  0.00    +0.000 A 
ATOM     25  C   UNL     1       1.412   8.765  20.324  0.00  0.00    +0.000 A 
ATOM     26  C   UNL     1       1.796   7.461  20.000  0.00  0.00    +0.000 A 
ENDBRANCH  20  21
ENDBRANCH   4  20
TORSDOF 3
ENDMDL
MODEL 3
REMARK VINA RESULT:      -7.7      2.715      5.112
REMARK  Name = 
REMARK  3 active torsions:
REMARK  status: ('A' for Active; 'I' for Inactive)
REMARK    1  A    between atoms: C_4  and  C_5
REMARK    2  A    between atoms: C_5  and  C_6
REMARK    3  A    between atoms: N_12  and  C_13
REMARK                            x       y       z     vdW  Elec       q    Type
REMARK                         _______ _______ _______ _____ _____    ______ ____
ROOT
ATOM      1  N   UNL     1       2.146   2.883  22.043  0.00  0.00    +0.000 N 
ATOM      2  C   UNL     1       2.681   3.286  20.864  0.00  0.00    +0.000 C 
ATOM      3  N   UNL     1       2.784   4.541  20.637  0.00  0.00    +0.000 NA
ATOM      4  C   UNL     1       3.363   4.964  19.358  0.00  0.00    +0.000 C 
ATOM      5  N   UNL     1       4.001   3.905  18.544  0.00  0.00    +0.000 N 
ATOM      6  C   UNL     1       3.718   2.625  18.957  0.00  0.00    +0.000 C 
ATOM      7  N   UNL     1       4.200   1.563  18.257  0.00  0.00    +0.000 N 
ATOM      8  N   UNL     1       3.055   2.301  20.021  0.00  0.00    +0.000 NA
ATOM      9  H   UNL     1       1.565   3.591  22.469  0.00  0.00    +0.000 HD
ATOM     10  H   UNL     1       1.733   1.963  21.989  0.00  0.00    +0.000 HD
ATOM     11  H   UNL     1       5.189   1.651  18.053  0.00  0.00    +0.000 HD
ATOM     12  H   UNL     1       4.030   0.707  18.777  0.00  0.00    +0.000 HD
ENDROOT
BRANCH   5  13
ATOM     13  C   UNL     1       4.867   4.277  17.481  0.00  0.00    +0.000 A 
ATOM     14  C   UNL     1       6.235   4.538  17.689  0.00  0.00    +0.000 A 
ATOM     15  C   UNL     1       7.120   4.766  16.622  0.00  0.00    +0.000 A 
ATOM     16  C   UNL     1       6.658   4.736  15.314  0.00  0.00    +0.000 A 
ATOM     17 CL   UNL     1       7.755   4.933  14.006  0.00  0.00    +0.000 Cl
ATOM     18  C   UNL     1       5.308   4.540  15.068  0.00  0.00    +0.000 A 
ATOM     19  C   UNL     1       4.426   4.348  16.142  0.00  0.00    +0.000 A 
ENDBRANCH   5  13
BRANCH   4  20
ATOM     20  C   UNL     1       2.239   5.667  18.545  0.00  0.00    +0.000 C 
BRANCH  20  21
ATOM     21  C   UNL     1       2.040   7.152  18.806  0.00  0.00    +0.000 A 
ATOM     22  C   UNL     1       2.151   8.092  17.770  0.00  0.00    +0.000 A 
ATOM     23  C   UNL     1       1.863   9.442  18.000  0.00  0.00    +0.000 A 
ATOM     24  C   UNL     1       1.471   9.870  19.267  0.00  0.00    +0.000 A 
ATOM     25  C   UNL     1       1.393   8.954  20.312  0.00  0.00    +0.000 A 
ATOM     26  C   UNL     1       1.679   7.606  20.084  0.00  0.00    +0.000 A 
ENDBRANCH  20  21
ENDBRANCH   4  20
TORSDOF 3
ENDMDL
MODEL 4
REMARK VINA RESULT:      -7.6      2.046      4.846
REMARK  Name = 
REMARK  3 active torsions:
REMARK  status: ('A' for Active; 'I' for Inactive)
REMARK    1  A    between atoms: C_4  and  C_5
REMARK    2  A    between atoms: C_5  and  C_6
REMARK    3  A    between atoms: N_12  and  C_13
REMARK                            x       y       z     vdW  Elec       q    Type
REMARK                         _______ _______ _______ _____ _____    ______ ____
ROOT
ATOM      1  N   UNL     1       1.582   2.559  22.147  0.00  0.00    +0.000 N 
ATOM      2  C   UNL     1       2.332   3.263  21.264  0.00  0.00    +0.000 C 
ATOM      3  N   UNL     1       2.182   4.533  21.209  0.00  0.00    +0.000 NA
ATOM      4  C   UNL     1       2.998   5.282  20.249  0.00  0.00    +0.000 C 
ATOM      5  N   UNL     1       4.097   4.533  19.598  0.00  0.00    +0.000 N 
ATOM      6  C   UNL     1       4.032   3.171  19.764  0.00  0.00    +0.000 C 
ATOM      7  N   UNL     1       4.955   2.369  19.166  0.00  0.00    +0.000 N 
ATOM      8  N   UNL     1       3.180   2.538  20.504  0.00  0.00    +0.000 NA
ATOM      9  H   UNL     1       0.741   3.049  22.420  0.00  0.00    +0.000 HD
ATOM     10  H   UNL     1       1.449   1.598  21.868  0.00  0.00    +0.000 HD
ATOM     11  H   UNL     1       5.903   2.692  19.318  0.00  0.00    +0.000 HD
ATOM     12  H   UNL     1       4.854   1.419  19.512  0.00  0.00    +0.000 HD
ENDROOT
BRANCH   5  13
ATOM     13  C   UNL     1       5.124   5.255  18.931  0.00  0.00    +0.000 A 
ATOM     14  C   UNL     1       4.874   6.010  17.770  0.00  0.00    +0.000 A 
ATOM     15  C   UNL     1       5.852   6.836  17.193  0.00  0.00    +0.000 A 
ATOM     16  C   UNL     1       7.111   6.933  17.768  0.00  0.00    +0.000 A 
ATOM     17 CL   UNL     1       8.281   8.006  17.110  0.00  0.00    +0.000 Cl
ATOM     18  C   UNL     1       7.418   6.163  18.879  0.00  0.00    +0.000 A 
ATOM     19  C   UNL     1       6.444   5.314  19.427  0.00  0.00    +0.000 A 
ENDBRANCH   5  13
BRANCH   4  20
ATOM     20  C   UNL     1       2.037   5.871  19.177  0.00  0.00    +0.000 C 
BRANCH  20  21
ATOM     21  C   UNL     1       1.829   7.377  19.207  0.00  0.00    +0.000 A 
ATOM     22  C   UNL     1       2.034   8.160  18.061  0.00  0.00    +0.000 A 
ATOM     23  C   UNL     1       1.739   9.529  18.071  0.00  0.00    +0.000 A 
ATOM     24  C   UNL     1       1.247  10.131  19.228  0.00  0.00    +0.000 A 
ATOM     25  C   UNL     1       1.075   9.373  20.383  0.00  0.00    +0.000 A 
ATOM     26  C   UNL     1       1.368   8.007  20.373  0.00  0.00    +0.000 A 
ENDBRANCH  20  21
ENDBRANCH   4  20
TORSDOF 3
ENDMDL
MODEL 5
REMARK VINA RESULT:      -7.6      0.350      1.077
REMARK  Name = 
REMARK  3 active torsions:
REMARK  status: ('A' for Active; 'I' for Inactive)
REMARK    1  A    between atoms: C_4  and  C_5
REMARK    2  A    between atoms: C_5  and  C_6
REMARK    3  A    between atoms: N_12  and  C_13
REMARK                            x       y       z     vdW  Elec       q    Type
REMARK                         _______ _______ _______ _____ _____    ______ ____
ROOT
ATOM      1  N   UNL     1       3.193   0.939  18.223  0.00  0.00    +0.000 N 
ATOM      2  C   UNL     1       3.122   2.249  18.564  0.00  0.00    +0.000 C 
ATOM      3  N   UNL     1       3.985   3.057  18.073  0.00  0.00    +0.000 NA
ATOM      4  C   UNL     1       3.899   4.471  18.450  0.00  0.00    +0.000 C 
ATOM      5  N   UNL     1       2.675   4.883  19.173  0.00  0.00    +0.000 N 
ATOM      6  C   UNL     1       1.915   3.839  19.642  0.00  0.00    +0.000 C 
ATOM      7  N   UNL     1       0.793   4.090  20.371  0.00  0.00    +0.000 N 
ATOM      8  N   UNL     1       2.128   2.584  19.413  0.00  0.00    +0.000 NA
ATOM      9  H   UNL     1       4.113   0.669  17.905  0.00  0.00    +0.000 HD
ATOM     10  H   UNL     1       2.781   0.333  18.918  0.00  0.00    +0.000 HD
ATOM     11  H   UNL     1       0.197   4.784  19.937  0.00  0.00    +0.000 HD
ATOM     12  H   UNL     1       0.275   3.226  20.505  0.00  0.00    +0.000 HD
ENDROOT
BRANCH   5  13
ATOM     13  C   UNL     1       2.362   6.266  19.268  0.00  0.00    +0.000 A 
ATOM     14  C   UNL     1       2.379   7.115  18.145  0.00  0.00    +0.000 A 
ATOM     15  C   UNL     1       1.933   8.445  18.210  0.00  0.00    +0.000 A 
ATOM     16  C   UNL     1       1.453   8.963  19.405  0.00  0.00    +0.000 A 
ATOM     17 CL   UNL     1       0.832  10.564  19.465  0.00  0.00    +0.000 Cl
ATOM     18  C   UNL     1       1.472   8.179  20.548  0.00  0.00    +0.000 A 
ATOM     19  C   UNL     1       1.952   6.862  20.480  0.00  0.00    +0.000 A 
ENDBRANCH   5  13
BRANCH   4  20
ATOM     20  C   UNL     1       5.162   4.809  19.292  0.00  0.00    +0.000 C 
BRANCH  20  21
ATOM     21  C   UNL     1       6.147   5.789  18.673  0.00  0.00    +0.000 A 
ATOM     22  C   UNL     1       5.780   6.597  17.587  0.00  0.00    +0.000 A 
ATOM     23  C   UNL     1       6.659   7.569  17.093  0.00  0.00    +0.000 A 
ATOM     24  C   UNL     1       7.916   7.737  17.672  0.00  0.00    +0.000 A 
ATOM     25  C   UNL     1       8.307   6.916  18.726  0.00  0.00    +0.000 A 
ATOM     26  C   UNL     1       7.430   5.946  19.220  0.00  0.00    +0.000 A 
ENDBRANCH  20  21
ENDBRANCH   4  20
TORSDOF 3
ENDMDL
MODEL 6
REMARK VINA RESULT:      -7.5      0.243      1.467
REMARK  Name = 
REMARK  3 active torsions:
REMARK  status: ('A' for Active; 'I' for Inactive)
REMARK    1  A    between atoms: C_4  and  C_5
REMARK    2  A    between atoms: C_5  and  C_6
REMARK    3  A    between atoms: N_12  and  C_13
REMARK                            x       y       z     vdW  Elec       q    Type
REMARK                         _______ _______ _______ _____ _____    ______ ____
ROOT
ATOM      1  N   UNL     1       3.329   0.758  18.295  0.00  0.00    +0.000 N 
ATOM      2  C   UNL     1       3.239   2.069  18.628  0.00  0.00    +0.000 C 
ATOM      3  N   UNL     1       4.096   2.884  18.140  0.00  0.00    +0.000 NA
ATOM      4  C   UNL     1       3.990   4.299  18.508  0.00  0.00    +0.000 C 
ATOM      5  N   UNL     1       2.754   4.700  19.219  0.00  0.00    +0.000 N 
ATOM      6  C   UNL     1       2.004   3.649  19.688  0.00  0.00    +0.000 C 
ATOM      7  N   UNL     1       0.873   3.890  20.407  0.00  0.00    +0.000 N 
ATOM      8  N   UNL     1       2.234   2.395  19.468  0.00  0.00    +0.000 NA
ATOM      9  H   UNL     1       4.255   0.497  17.986  0.00  0.00    +0.000 HD
ATOM     10  H   UNL     1       2.920   0.150  18.991  0.00  0.00    +0.000 HD
ATOM     11  H   UNL     1       0.272   4.575  19.964  0.00  0.00    +0.000 HD
ATOM     12  H   UNL     1       0.365   3.021  20.542  0.00  0.00    +0.000 HD
ENDROOT
BRANCH   5  13
ATOM     13  C   UNL     1       2.424   6.080  19.304  0.00  0.00    +0.000 A 
ATOM     14  C   UNL     1       2.432   6.921  18.175  0.00  0.00    +0.000 A 
ATOM     15  C   UNL     1       1.969   8.246  18.230  0.00  0.00    +0.000 A 
ATOM     16  C   UNL     1       1.480   8.765  19.420  0.00  0.00    +0.000 A 
ATOM     17 CL   UNL     1       0.839  10.359  19.469  0.00  0.00    +0.000 Cl
ATOM     18  C   UNL     1       1.507   7.989  20.569  0.00  0.00    +0.000 A 
ATOM     19  C   UNL     1       2.004   6.679  20.511  0.00  0.00    +0.000 A 
ENDBRANCH   5  13
BRANCH   4  20
ATOM     20  C   UNL     1       5.242   4.657  19.358  0.00  0.00    +0.000 C 
BRANCH  20  21
ATOM     21  C   UNL     1       6.159   5.732  18.795  0.00  0.00    +0.000 A 
ATOM     22  C   UNL     1       7.428   5.964  19.347  0.00  0.00    +0.000 A 
ATOM     23  C   UNL     1       8.304   6.883  18.756  0.00  0.00    +0.000 A 
ATOM     24  C   UNL     1       7.919   7.586  17.616  0.00  0.00    +0.000 A 
ATOM     25  C   UNL     1       6.648   7.393  17.081  0.00  0.00    +0.000 A 
ATOM     26  C   UNL     1       5.774   6.475  17.670  0.00  0.00    +0.000 A 
ENDBRANCH  20  21
ENDBRANCH   4  20
TORSDOF 3
ENDMDL
MODEL 7
REMARK VINA RESULT:      -7.5      2.280      4.818
REMARK  Name = 
REMARK  3 active torsions:
REMARK  status: ('A' for Active; 'I' for Inactive)
REMARK    1  A    between atoms: C_4  and  C_5
REMARK    2  A    between atoms: C_5  and  C_6
REMARK    3  A    between atoms: N_12  and  C_13
REMARK                            x       y       z     vdW  Elec       q    Type
REMARK                         _______ _______ _______ _____ _____    ______ ____
ROOT
ATOM      1  N   UNL     1       8.329   4.128  17.482  0.00  0.00    +0.000 N 
ATOM      2  C   UNL     1       7.090   4.658  17.627  0.00  0.00    +0.000 C 
ATOM      3  N   UNL     1       6.330   4.195  18.547  0.00  0.00    +0.000 NA
ATOM      4  C   UNL     1       4.992   4.776  18.693  0.00  0.00    +0.000 C 
ATOM      5  N   UNL     1       4.726   6.011  17.922  0.00  0.00    +0.000 N 
ATOM      6  C   UNL     1       5.664   6.291  16.958  0.00  0.00    +0.000 C 
ATOM      7  N   UNL     1       5.501   7.371  16.145  0.00  0.00    +0.000 N 
ATOM      8  N   UNL     1       6.766   5.642  16.761  0.00  0.00    +0.000 NA
ATOM      9  H   UNL     1       8.403   3.198  17.871  0.00  0.00    +0.000 HD
ATOM     10  H   UNL     1       8.691   4.233  16.545  0.00  0.00    +0.000 HD
ATOM     11  H   UNL     1       5.272   8.212  16.661  0.00  0.00    +0.000 HD
ATOM     12  H   UNL     1       6.347   7.518  15.602  0.00  0.00    +0.000 HD
ENDROOT
BRANCH   5  13
ATOM     13  C   UNL     1       3.601   6.810  18.264  0.00  0.00    +0.000 A 
ATOM     14  C   UNL     1       2.981   6.726  19.525  0.00  0.00    +0.000 A 
ATOM     15  C   UNL     1       1.964   7.612  19.915  0.00  0.00    +0.000 A 
ATOM     16  C   UNL     1       1.539   8.611  19.051  0.00  0.00    +0.000 A 
ATOM     17 CL   UNL     1       0.352   9.746  19.558  0.00  0.00    +0.000 Cl
ATOM     18  C   UNL     1       2.083   8.693  17.778  0.00  0.00    +0.000 A 
ATOM     19  C   UNL     1       3.074   7.781  17.386  0.00  0.00    +0.000 A 
ENDBRANCH   5  13
BRANCH   4  20
ATOM     20  C   UNL     1       3.960   3.674  18.320  0.00  0.00    +0.000 C 
BRANCH  20  21
ATOM     21  C   UNL     1       2.962   3.286  19.400  0.00  0.00    +0.000 A 
ATOM     22  C   UNL     1       3.392   2.874  20.670  0.00  0.00    +0.000 A 
ATOM     23  C   UNL     1       2.465   2.620  21.688  0.00  0.00    +0.000 A 
ATOM     24  C   UNL     1       1.100   2.765  21.446  0.00  0.00    +0.000 A 
ATOM     25  C   UNL     1       0.659   3.136  20.179  0.00  0.00    +0.000 A 
ATOM     26  C   UNL     1       1.583   3.391  19.163  0.00  0.00    +0.000 A 
ENDBRANCH  20  21
ENDBRANCH   4  20
TORSDOF 3
ENDMDL
MODEL 8
REMARK VINA RESULT:      -7.5      2.668      5.295
REMARK  Name = 
REMARK  3 active torsions:
REMARK  status: ('A' for Active; 'I' for Inactive)
REMARK    1  A    between atoms: C_4  and  C_5
REMARK    2  A    between atoms: C_5  and  C_6
REMARK    3  A    between atoms: N_12  and  C_13
REMARK                            x       y       z     vdW  Elec       q    Type
REMARK                         _______ _______ _______ _____ _____    ______ ____
ROOT
ATOM      1  N   UNL     1       2.159   3.320  21.931  0.00  0.00    +0.000 N 
ATOM      2  C   UNL     1       2.738   3.577  20.733  0.00  0.00    +0.000 C 
ATOM      3  N   UNL     1       2.942   4.796  20.401  0.00  0.00    +0.000 NA
ATOM      4  C   UNL     1       3.568   5.062  19.102  0.00  0.00    +0.000 C 
ATOM      5  N   UNL     1       4.132   3.890  18.394  0.00  0.00    +0.000 N 
ATOM      6  C   UNL     1       3.745   2.676  18.910  0.00  0.00    +0.000 C 
ATOM      7  N   UNL     1       4.152   1.524  18.311  0.00  0.00    +0.000 N 
ATOM      8  N   UNL     1       3.046   2.497  19.984  0.00  0.00    +0.000 NA
ATOM      9  H   UNL     1       1.630   4.105  22.284  0.00  0.00    +0.000 HD
ATOM     10  H   UNL     1       1.677   2.433  21.948  0.00  0.00    +0.000 HD
ATOM     11  H   UNL     1       5.147   1.518  18.120  0.00  0.00    +0.000 HD
ATOM     12  H   UNL     1       3.909   0.732  18.899  0.00  0.00    +0.000 HD
ENDROOT
BRANCH   5  13
ATOM     13  C   UNL     1       5.038   4.102  17.320  0.00  0.00    +0.000 A 
ATOM     14  C   UNL     1       4.655   3.935  15.976  0.00  0.00    +0.000 A 
ATOM     15  C   UNL     1       5.503   4.281  14.911  0.00  0.00    +0.000 A 
ATOM     16  C   UNL     1       6.761   4.809  15.165  0.00  0.00    +0.000 A 
ATOM     17 CL   UNL     1       7.767   5.308  13.864  0.00  0.00    +0.000 Cl
ATOM     18  C   UNL     1       7.200   4.936  16.474  0.00  0.00    +0.000 A 
ATOM     19  C   UNL     1       6.358   4.555  17.529  0.00  0.00    +0.000 A 
ENDBRANCH   5  13
BRANCH   4  20
ATOM     20  C   UNL     1       2.513   5.775  18.211  0.00  0.00    +0.000 C 
BRANCH  20  21
ATOM     21  C   UNL     1       2.060   7.154  18.667  0.00  0.00    +0.000 A 
ATOM     22  C   UNL     1       1.734   7.402  20.009  0.00  0.00    +0.000 A 
ATOM     23  C   UNL     1       1.420   8.698  20.437  0.00  0.00    +0.000 A 
ATOM     24  C   UNL     1       1.418   9.756  19.529  0.00  0.00    +0.000 A 
ATOM     25  C   UNL     1       1.703   9.516  18.188  0.00  0.00    +0.000 A 
ATOM     26  C   UNL     1       2.018   8.223  17.760  0.00  0.00    +0.000 A 
ENDBRANCH  20  21
ENDBRANCH   4  20
TORSDOF 3
ENDMDL
MODEL 9
REMARK VINA RESULT:      -7.3      2.706      5.171
REMARK  Name = 
REMARK  3 active torsions:
REMARK  status: ('A' for Active; 'I' for Inactive)
REMARK    1  A    between atoms: C_4  and  C_5
REMARK    2  A    between atoms: C_5  and  C_6
REMARK    3  A    between atoms: N_12  and  C_13
REMARK                            x       y       z     vdW  Elec       q    Type
REMARK                         _______ _______ _______ _____ _____    ______ ____
ROOT
ATOM      1  N   UNL     1       2.119   3.074  22.133  0.00  0.00    +0.000 N 
ATOM      2  C   UNL     1       2.659   3.439  20.945  0.00  0.00    +0.000 C 
ATOM      3  N   UNL     1       2.733   4.686  20.664  0.00  0.00    +0.000 NA
ATOM      4  C   UNL     1       3.317   5.069  19.375  0.00  0.00    +0.000 C 
ATOM      5  N   UNL     1       3.992   3.991  18.615  0.00  0.00    +0.000 N 
ATOM      6  C   UNL     1       3.737   2.724  19.081  0.00  0.00    +0.000 C 
ATOM      7  N   UNL     1       4.255   1.645  18.432  0.00  0.00    +0.000 N 
ATOM      8  N   UNL     1       3.069   2.429  20.149  0.00  0.00    +0.000 NA
ATOM      9  H   UNL     1       1.515   3.785  22.521  0.00  0.00    +0.000 HD
ATOM     10  H   UNL     1       1.730   2.142  22.115  0.00  0.00    +0.000 HD
ATOM     11  H   UNL     1       5.243   1.750  18.237  0.00  0.00    +0.000 HD
ATOM     12  H   UNL     1       4.100   0.809  18.987  0.00  0.00    +0.000 HD
ENDROOT
BRANCH   5  13
ATOM     13  C   UNL     1       4.862   4.340  17.547  0.00  0.00    +0.000 A 
ATOM     14  C   UNL     1       6.232   4.595  17.753  0.00  0.00    +0.000 A 
ATOM     15  C   UNL     1       7.120   4.799  16.684  0.00  0.00    +0.000 A 
ATOM     16  C   UNL     1       6.659   4.750  15.375  0.00  0.00    +0.000 A 
ATOM     17 CL   UNL     1       7.759   4.918  14.065  0.00  0.00    +0.000 Cl
ATOM     18  C   UNL     1       5.308   4.559  15.131  0.00  0.00    +0.000 A 
ATOM     19  C   UNL     1       4.424   4.391  16.207  0.00  0.00    +0.000 A 
ENDBRANCH   5  13
BRANCH   4  20
ATOM     20  C   UNL     1       2.187   5.706  18.519  0.00  0.00    +0.000 C 
BRANCH  20  21
ATOM     21  C   UNL     1       1.910   7.183  18.752  0.00  0.00    +0.000 A 
ATOM     22  C   UNL     1       1.501   7.655  20.009  0.00  0.00    +0.000 A 
ATOM     23  C   UNL     1       1.352   9.027  20.239  0.00  0.00    +0.000 A 
ATOM     24  C   UNL     1       1.598   9.942  19.217  0.00  0.00    +0.000 A 
ATOM     25  C   UNL     1       1.967   9.485  17.955  0.00  0.00    +0.000 A 
ATOM     26  C   UNL     1       2.118   8.115  17.724  0.00  0.00    +0.000 A 
ENDBRANCH  20  21
ENDBRANCH   4  20
TORSDOF 3
ENDMDL
