MODEL 1
REMARK VINA RESULT:      -8.4      0.000      0.000
REMARK  Name = 
REMARK  5 active torsions:
REMARK  status: ('A' for Active; 'I' for Inactive)
REMARK    1  A    between atoms: N_2  and  C_4
REMARK    2  A    between atoms: C_8  and  O_9
REMARK    3  A    between atoms: C_10  and  O_11
REMARK    4  A    between atoms: C_15  and  C_16
REMARK    5  A    between atoms: C_16  and  N_17
REMARK                            x       y       z     vdW  Elec       q    Type
REMARK                         _______ _______ _______ _____ _____    ______ ____
ROOT
ATOM      1  C   UNL     1       6.960   5.435  17.792  0.00  0.00    +0.000 A 
ATOM      2  C   UNL     1       7.516   5.723  16.538  0.00  0.00    +0.000 A 
ATOM      3  C   UNL     1       6.985   5.147  15.391  0.00  0.00    +0.000 A 
ATOM      4  N   UNL     1       7.589   5.341  14.202  0.00  0.00    +0.000 NA
ATOM      5  C   UNL     1       7.036   4.672  13.175  0.00  0.00    +0.000 A 
ATOM      6  C   UNL     1       5.916   3.865  13.290  0.00  0.00    +0.000 A 
ATOM      7  N   UNL     1       5.281   3.696  14.459  0.00  0.00    +0.000 NA
ATOM      8  C   UNL     1       5.824   4.328  15.513  0.00  0.00    +0.000 A 
ATOM      9  C   UNL     1       5.263   4.113  16.759  0.00  0.00    +0.000 A 
ATOM     10  C   UNL     1       5.853   4.591  17.940  0.00  0.00    +0.000 A 
ENDROOT
BRANCH   1  12
ATOM     11  O   UNL     1       7.501   5.391  20.025  0.00  0.00    +0.000 OA
ATOM     12  N   UNL     1       7.611   6.012  18.959  0.00  0.00    +0.000 N 
ATOM     13  O   UNL     1       8.220   7.075  18.796  0.00  0.00    +0.000 OA
ENDBRANCH   1  12
BRANCH   5  14
ATOM     14  O   UNL     1       7.682   4.815  11.983  0.00  0.00    +0.000 OA
ATOM     15  H   UNL     1       8.031   5.718  12.077  0.00  0.00    +0.000 HD
ENDBRANCH   5  14
BRANCH   6  16
ATOM     16  O   UNL     1       5.426   3.160  12.228  0.00  0.00    +0.000 OA
ATOM     17  H   UNL     1       4.512   3.473  12.116  0.00  0.00    +0.000 HD
ENDBRANCH   6  16
BRANCH  10  18
ATOM     18  C   UNL     1       5.303   4.167  19.291  0.00  0.00    +0.000 C 
BRANCH  18  19
ATOM     19  N   UNL     1       3.841   3.914  19.296  0.00  0.00    +0.000 NA
ATOM     20  C   UNL     1       3.504   2.522  19.613  0.00  0.00    +0.000 C 
ATOM     21  C   UNL     1       2.141   2.099  19.051  0.00  0.00    +0.000 C 
ATOM     22  C   UNL     1       0.943   2.492  19.903  0.00  0.00    +0.000 C 
ATOM     23  C   UNL     1       0.787   3.991  20.106  0.00  0.00    +0.000 C 
ATOM     24  C   UNL     1       1.928   4.584  20.920  0.00  0.00    +0.000 C 
ATOM     25  C   UNL     1       3.162   4.949  20.091  0.00  0.00    +0.000 C 
ENDBRANCH  18  19
ENDBRANCH  10  18
TORSDOF 5
ENDMDL
MODEL 2
REMARK VINA RESULT:      -7.8      3.963      6.797
REMARK  Name = 
REMARK  5 active torsions:
REMARK  status: ('A' for Active; 'I' for Inactive)
REMARK    1  A    between atoms: N_2  and  C_4
REMARK    2  A    between atoms: C_8  and  O_9
REMARK    3  A    between atoms: C_10  and  O_11
REMARK    4  A    between atoms: C_15  and  C_16
REMARK    5  A    between atoms: C_16  and  N_17
REMARK                            x       y       z     vdW  Elec       q    Type
REMARK                         _______ _______ _______ _____ _____    ______ ____
ROOT
ATOM      1  C   UNL     1       1.963   4.878  20.248  0.00  0.00    +0.000 A 
ATOM      2  C   UNL     1       1.483   6.105  20.726  0.00  0.00    +0.000 A 
ATOM      3  C   UNL     1       1.565   7.242  19.932  0.00  0.00    +0.000 A 
ATOM      4  N   UNL     1       1.200   8.438  20.435  0.00  0.00    +0.000 NA
ATOM      5  C   UNL     1       1.396   9.479  19.606  0.00  0.00    +0.000 A 
ATOM      6  C   UNL     1       1.900   9.362  18.321  0.00  0.00    +0.000 A 
ATOM      7  N   UNL     1       2.227   8.172  17.794  0.00  0.00    +0.000 NA
ATOM      8  C   UNL     1       2.070   7.113  18.606  0.00  0.00    +0.000 A 
ATOM      9  C   UNL     1       2.480   5.876  18.143  0.00  0.00    +0.000 A 
ATOM     10  C   UNL     1       2.513   4.740  18.969  0.00  0.00    +0.000 A 
ENDROOT
BRANCH   1  12
ATOM     11  O   UNL     1       1.047   2.888  20.943  0.00  0.00    +0.000 OA
ATOM     12  N   UNL     1       1.916   3.743  21.159  0.00  0.00    +0.000 N 
ATOM     13  O   UNL     1       2.743   3.724  22.077  0.00  0.00    +0.000 OA
ENDBRANCH   1  12
BRANCH   5  14
ATOM     14  O   UNL     1       1.090  10.698  20.135  0.00  0.00    +0.000 OA
ATOM     15  H   UNL     1       0.545  10.430  20.895  0.00  0.00    +0.000 HD
ENDBRANCH   5  14
BRANCH   6  16
ATOM     16  O   UNL     1       2.135  10.456  17.539  0.00  0.00    +0.000 OA
ATOM     17  H   UNL     1       2.831  10.954  18.003  0.00  0.00    +0.000 HD
ENDBRANCH   6  16
BRANCH  10  18
ATOM     18  C   UNL     1       3.149   3.454  18.469  0.00  0.00    +0.000 C 
BRANCH  18  19
ATOM     19  N   UNL     1       4.540   3.618  17.979  0.00  0.00    +0.000 NA
ATOM     20  C   UNL     1       4.605   4.166  16.619  0.00  0.00    +0.000 C 
ATOM     21  C   UNL     1       5.900   3.789  15.889  0.00  0.00    +0.000 C 
ATOM     22  C   UNL     1       7.099   4.669  16.207  0.00  0.00    +0.000 C 
ATOM     23  C   UNL     1       7.509   4.659  17.672  0.00  0.00    +0.000 C 
ATOM     24  C   UNL     1       6.448   5.276  18.571  0.00  0.00    +0.000 C 
ATOM     25  C   UNL     1       5.348   4.303  19.000  0.00  0.00    +0.000 C 
ENDBRANCH  18  19
ENDBRANCH  10  18
TORSDOF 5
ENDMDL
MODEL 3
REMARK VINA RESULT:      -7.7      4.435      7.304
REMARK  Name = 
REMARK  5 active torsions:
REMARK  status: ('A' for Active; 'I' for Inactive)
REMARK    1  A    between atoms: N_2  and  C_4
REMARK    2  A    between atoms: C_8  and  O_9
REMARK    3  A    between atoms: C_10  and  O_11
REMARK    4  A    between atoms: C_15  and  C_16
REMARK    5  A    between atoms: C_16  and  N_17
REMARK                            x       y       z     vdW  Elec       q    Type
REMARK                         _______ _______ _______ _____ _____    ______ ____
ROOT
ATOM      1  C   UNL     1       1.803   6.136  19.900  0.00  0.00    +0.000 A 
ATOM      2  C   UNL     1       1.321   7.309  20.496  0.00  0.00    +0.000 A 
ATOM      3  C   UNL     1       1.416   8.521  19.824  0.00  0.00    +0.000 A 
ATOM      4  N   UNL     1       1.049   9.661  20.443  0.00  0.00    +0.000 NA
ATOM      5  C   UNL     1       1.259  10.780  19.728  0.00  0.00    +0.000 A 
ATOM      6  C   UNL     1       1.778  10.794  18.444  0.00  0.00    +0.000 A 
ATOM      7  N   UNL     1       2.108   9.664  17.801  0.00  0.00    +0.000 NA
ATOM      8  C   UNL     1       1.938   8.527  18.498  0.00  0.00    +0.000 A 
ATOM      9  C   UNL     1       2.349   7.342  17.915  0.00  0.00    +0.000 A 
ATOM     10  C   UNL     1       2.369   6.128  18.620  0.00  0.00    +0.000 A 
ENDROOT
BRANCH   1  12
ATOM     11  O   UNL     1       0.767   4.173  20.499  0.00  0.00    +0.000 OA
ATOM     12  N   UNL     1       1.741   4.913  20.689  0.00  0.00    +0.000 N 
ATOM     13  O   UNL     1       2.662   4.712  21.488  0.00  0.00    +0.000 OA
ENDBRANCH   1  12
BRANCH   5  14
ATOM     14  O   UNL     1       0.950  11.940  20.375  0.00  0.00    +0.000 OA
ATOM     15  H   UNL     1       1.531  12.565  19.907  0.00  0.00    +0.000 HD
ENDBRANCH   5  14
BRANCH   6  16
ATOM     16  O   UNL     1       2.027  11.961  17.781  0.00  0.00    +0.000 OA
ATOM     17  H   UNL     1       1.486  11.914  16.974  0.00  0.00    +0.000 HD
ENDBRANCH   6  16
BRANCH  10  18
ATOM     18  C   UNL     1       3.007   4.897  17.998  0.00  0.00    +0.000 C 
BRANCH  18  19
ATOM     19  N   UNL     1       4.443   5.062  17.668  0.00  0.00    +0.000 NA
ATOM     20  C   UNL     1       5.333   4.557  18.720  0.00  0.00    +0.000 C 
ATOM     21  C   UNL     1       6.711   5.230  18.705  0.00  0.00    +0.000 C 
ATOM     22  C   UNL     1       7.702   4.647  17.708  0.00  0.00    +0.000 C 
ATOM     23  C   UNL     1       7.253   4.737  16.257  0.00  0.00    +0.000 C 
ATOM     24  C   UNL     1       6.025   3.883  15.980  0.00  0.00    +0.000 C 
ATOM     25  C   UNL     1       4.698   4.572  16.305  0.00  0.00    +0.000 C 
ENDBRANCH  18  19
ENDBRANCH  10  18
TORSDOF 5
ENDMDL
MODEL 4
REMARK VINA RESULT:      -7.6      3.808      6.086
REMARK  Name = 
REMARK  5 active torsions:
REMARK  status: ('A' for Active; 'I' for Inactive)
REMARK    1  A    between atoms: N_2  and  C_4
REMARK    2  A    between atoms: C_8  and  O_9
REMARK    3  A    between atoms: C_10  and  O_11
REMARK    4  A    between atoms: C_15  and  C_16
REMARK    5  A    between atoms: C_16  and  N_17
REMARK                            x       y       z     vdW  Elec       q    Type
REMARK                         _______ _______ _______ _____ _____    ______ ____
ROOT
ATOM      1  C   UNL     1       4.641   6.119  17.630  0.00  0.00    +0.000 A 
ATOM      2  C   UNL     1       5.195   4.917  18.088  0.00  0.00    +0.000 A 
ATOM      3  C   UNL     1       4.538   4.172  19.059  0.00  0.00    +0.000 A 
ATOM      4  N   UNL     1       5.125   3.073  19.573  0.00  0.00    +0.000 NA
ATOM      5  C   UNL     1       4.435   2.477  20.561  0.00  0.00    +0.000 A 
ATOM      6  C   UNL     1       3.201   2.913  21.016  0.00  0.00    +0.000 A 
ATOM      7  N   UNL     1       2.586   3.980  20.485  0.00  0.00    +0.000 NA
ATOM      8  C   UNL     1       3.262   4.617  19.513  0.00  0.00    +0.000 A 
ATOM      9  C   UNL     1       2.715   5.777  18.997  0.00  0.00    +0.000 A 
ATOM     10  C   UNL     1       3.415   6.603  18.102  0.00  0.00    +0.000 A 
ENDROOT
BRANCH   1  12
ATOM     11  O   UNL     1       5.067   6.817  15.482  0.00  0.00    +0.000 OA
ATOM     12  N   UNL     1       5.418   6.888  16.667  0.00  0.00    +0.000 N 
ATOM     13  O   UNL     1       6.366   7.546  17.108  0.00  0.00    +0.000 OA
ENDBRANCH   1  12
BRANCH   5  14
ATOM     14  O   UNL     1       5.056   1.403  21.128  0.00  0.00    +0.000 OA
ATOM     15  H   UNL     1       4.562   1.334  21.963  0.00  0.00    +0.000 HD
ENDBRANCH   5  14
BRANCH   6  16
ATOM     16  O   UNL     1       2.566   2.308  22.062  0.00  0.00    +0.000 OA
ATOM     17  H   UNL     1       2.962   1.420  22.119  0.00  0.00    +0.000 HD
ENDBRANCH   6  16
BRANCH  10  18
ATOM     18  C   UNL     1       2.848   7.958  17.714  0.00  0.00    +0.000 C 
BRANCH  18  19
ATOM     19  N   UNL     1       1.698   8.392  18.544  0.00  0.00    +0.000 NA
ATOM     20  C   UNL     1       2.044   8.549  19.961  0.00  0.00    +0.000 C 
ATOM     21  C   UNL     1       0.833   8.395  20.889  0.00  0.00    +0.000 C 
ATOM     22  C   UNL     1      -0.021   9.644  21.048  0.00  0.00    +0.000 C 
ATOM     23  C   UNL     1      -0.636  10.149  19.752  0.00  0.00    +0.000 C 
ATOM     24  C   UNL     1       0.416  10.640  18.768  0.00  0.00    +0.000 C 
ATOM     25  C   UNL     1       1.027   9.534  17.904  0.00  0.00    +0.000 C 
ENDBRANCH  18  19
ENDBRANCH  10  18
TORSDOF 5
ENDMDL
MODEL 5
REMARK VINA RESULT:      -7.6      3.542      4.813
REMARK  Name = 
REMARK  5 active torsions:
REMARK  status: ('A' for Active; 'I' for Inactive)
REMARK    1  A    between atoms: N_2  and  C_4
REMARK    2  A    between atoms: C_8  and  O_9
REMARK    3  A    between atoms: C_10  and  O_11
REMARK    4  A    between atoms: C_15  and  C_16
REMARK    5  A    between atoms: C_16  and  N_17
REMARK                            x       y       z     vdW  Elec       q    Type
REMARK                         _______ _______ _______ _____ _____    ______ ____
ROOT
ATOM      1  C   UNL     1       2.800   3.946  18.452  0.00  0.00    +0.000 A 
ATOM      2  C   UNL     1       3.433   3.314  17.374  0.00  0.00    +0.000 A 
ATOM      3  C   UNL     1       4.575   3.871  16.813  0.00  0.00    +0.000 A 
ATOM      4  N   UNL     1       5.119   3.318  15.711  0.00  0.00    +0.000 NA
ATOM      5  C   UNL     1       6.173   3.985  15.209  0.00  0.00    +0.000 A 
ATOM      6  C   UNL     1       6.704   5.134  15.774  0.00  0.00    +0.000 A 
ATOM      7  N   UNL     1       6.198   5.670  16.895  0.00  0.00    +0.000 NA
ATOM      8  C   UNL     1       5.125   5.044  17.407  0.00  0.00    +0.000 A 
ATOM      9  C   UNL     1       4.509   5.610  18.509  0.00  0.00    +0.000 A 
ATOM     10  C   UNL     1       3.291   5.129  19.016  0.00  0.00    +0.000 A 
ENDROOT
BRANCH   1  12
ATOM     11  O   UNL     1       0.584   3.395  18.187  0.00  0.00    +0.000 OA
ATOM     12  N   UNL     1       1.565   3.350  18.942  0.00  0.00    +0.000 N 
ATOM     13  O   UNL     1       1.591   2.850  20.072  0.00  0.00    +0.000 OA
ENDBRANCH   1  12
BRANCH   5  14
ATOM     14  O   UNL     1       6.686   3.466  14.057  0.00  0.00    +0.000 OA
ATOM     15  H   UNL     1       7.318   4.164  13.813  0.00  0.00    +0.000 HD
ENDBRANCH   5  14
BRANCH   6  16
ATOM     16  O   UNL     1       7.739   5.808  15.194  0.00  0.00    +0.000 OA
ATOM     17  H   UNL     1       8.018   6.463  15.858  0.00  0.00    +0.000 HD
ENDBRANCH   6  16
BRANCH  10  18
ATOM     18  C   UNL     1       2.563   5.899  20.104  0.00  0.00    +0.000 C 
BRANCH  18  19
ATOM     19  N   UNL     1       2.307   7.322  19.770  0.00  0.00    +0.000 NA
ATOM     20  C   UNL     1       1.812   7.506  18.401  0.00  0.00    +0.000 C 
ATOM     21  C   UNL     1       2.113   8.903  17.844  0.00  0.00    +0.000 C 
ATOM     22  C   UNL     1       1.127   9.987  18.255  0.00  0.00    +0.000 C 
ATOM     23  C   UNL     1       1.045  10.220  19.755  0.00  0.00    +0.000 C 
ATOM     24  C   UNL     1       0.478   9.016  20.494  0.00  0.00    +0.000 C 
ATOM     25  C   UNL     1       1.519   7.949  20.841  0.00  0.00    +0.000 C 
ENDBRANCH  18  19
ENDBRANCH  10  18
TORSDOF 5
ENDMDL
MODEL 6
REMARK VINA RESULT:      -7.6      2.574      6.591
REMARK  Name = 
REMARK  5 active torsions:
REMARK  status: ('A' for Active; 'I' for Inactive)
REMARK    1  A    between atoms: N_2  and  C_4
REMARK    2  A    between atoms: C_8  and  O_9
REMARK    3  A    between atoms: C_10  and  O_11
REMARK    4  A    between atoms: C_15  and  C_16
REMARK    5  A    between atoms: C_16  and  N_17
REMARK                            x       y       z     vdW  Elec       q    Type
REMARK                         _______ _______ _______ _____ _____    ______ ____
ROOT
ATOM      1  C   UNL     1       5.835   4.554  18.113  0.00  0.00    +0.000 A 
ATOM      2  C   UNL     1       5.307   3.946  19.260  0.00  0.00    +0.000 A 
ATOM      3  C   UNL     1       3.986   3.519  19.278  0.00  0.00    +0.000 A 
ATOM      4  N   UNL     1       3.454   3.032  20.416  0.00  0.00    +0.000 NA
ATOM      5  C   UNL     1       2.147   2.724  20.339  0.00  0.00    +0.000 A 
ATOM      6  C   UNL     1       1.387   2.854  19.187  0.00  0.00    +0.000 A 
ATOM      7  N   UNL     1       1.915   3.297  18.037  0.00  0.00    +0.000 NA
ATOM      8  C   UNL     1       3.213   3.642  18.086  0.00  0.00    +0.000 A 
ATOM      9  C   UNL     1       3.782   4.192  16.952  0.00  0.00    +0.000 A 
ATOM     10  C   UNL     1       5.077   4.734  16.951  0.00  0.00    +0.000 A 
ENDROOT
BRANCH   1  12
ATOM     11  O   UNL     1       7.364   6.177  18.671  0.00  0.00    +0.000 OA
ATOM     12  N   UNL     1       7.203   5.047  18.189  0.00  0.00    +0.000 N 
ATOM     13  O   UNL     1       8.093   4.303  17.765  0.00  0.00    +0.000 OA
ENDBRANCH   1  12
BRANCH   5  14
ATOM     14  O   UNL     1       1.589   2.293  21.506  0.00  0.00    +0.000 OA
ATOM     15  H   UNL     1       2.387   2.039  22.001  0.00  0.00    +0.000 HD
ENDBRANCH   5  14
BRANCH   6  16
ATOM     16  O   UNL     1       0.049   2.583  19.174  0.00  0.00    +0.000 OA
ATOM     17  H   UNL     1      -0.014   1.631  18.984  0.00  0.00    +0.000 HD
ENDBRANCH   6  16
BRANCH  10  18
ATOM     18  C   UNL     1       5.582   5.496  15.736  0.00  0.00    +0.000 C 
BRANCH  18  19
ATOM     19  N   UNL     1       5.988   4.627  14.604  0.00  0.00    +0.000 NA
ATOM     20  C   UNL     1       4.925   4.456  13.607  0.00  0.00    +0.000 C 
ATOM     21  C   UNL     1       5.069   3.159  12.802  0.00  0.00    +0.000 C 
ATOM     22  C   UNL     1       6.038   3.230  11.631  0.00  0.00    +0.000 C 
ATOM     23  C   UNL     1       7.469   3.557  12.025  0.00  0.00    +0.000 C 
ATOM     24  C   UNL     1       7.603   4.960  12.599  0.00  0.00    +0.000 C 
ATOM     25  C   UNL     1       7.300   5.054  14.096  0.00  0.00    +0.000 C 
ENDBRANCH  18  19
ENDBRANCH  10  18
TORSDOF 5
ENDMDL
MODEL 7
REMARK VINA RESULT:      -7.5      3.453      4.706
REMARK  Name = 
REMARK  5 active torsions:
REMARK  status: ('A' for Active; 'I' for Inactive)
REMARK    1  A    between atoms: N_2  and  C_4
REMARK    2  A    between atoms: C_8  and  O_9
REMARK    3  A    between atoms: C_10  and  O_11
REMARK    4  A    between atoms: C_15  and  C_16
REMARK    5  A    between atoms: C_16  and  N_17
REMARK                            x       y       z     vdW  Elec       q    Type
REMARK                         _______ _______ _______ _____ _____    ______ ____
ROOT
ATOM      1  C   UNL     1       2.953   4.039  18.325  0.00  0.00    +0.000 A 
ATOM      2  C   UNL     1       3.497   3.400  17.202  0.00  0.00    +0.000 A 
ATOM      3  C   UNL     1       4.639   3.907  16.597  0.00  0.00    +0.000 A 
ATOM      4  N   UNL     1       5.097   3.353  15.457  0.00  0.00    +0.000 NA
ATOM      5  C   UNL     1       6.161   3.974  14.918  0.00  0.00    +0.000 A 
ATOM      6  C   UNL     1       6.781   5.078  15.481  0.00  0.00    +0.000 A 
ATOM      7  N   UNL     1       6.362   5.613  16.637  0.00  0.00    +0.000 NA
ATOM      8  C   UNL     1       5.282   5.034  17.189  0.00  0.00    +0.000 A 
ATOM      9  C   UNL     1       4.754   5.605  18.333  0.00  0.00    +0.000 A 
ATOM     10  C   UNL     1       3.537   5.178  18.890  0.00  0.00    +0.000 A 
ENDROOT
BRANCH   1  12
ATOM     11  O   UNL     1       1.766   2.996  19.994  0.00  0.00    +0.000 OA
ATOM     12  N   UNL     1       1.712   3.499  18.863  0.00  0.00    +0.000 N 
ATOM     13  O   UNL     1       0.706   3.583  18.151  0.00  0.00    +0.000 OA
ENDBRANCH   1  12
BRANCH   5  14
ATOM     14  O   UNL     1       6.586   3.456  13.730  0.00  0.00    +0.000 OA
ATOM     15  H   UNL     1       7.227   2.795  14.044  0.00  0.00    +0.000 HD
ENDBRANCH   5  14
BRANCH   6  16
ATOM     16  O   UNL     1       7.823   5.709  14.864  0.00  0.00    +0.000 OA
ATOM     17  H   UNL     1       7.760   6.637  15.148  0.00  0.00    +0.000 HD
ENDBRANCH   6  16
BRANCH  10  18
ATOM     18  C   UNL     1       2.907   5.960  20.030  0.00  0.00    +0.000 C 
BRANCH  18  19
ATOM     19  N   UNL     1       2.002   7.050  19.588  0.00  0.00    +0.000 NA
ATOM     20  C   UNL     1       1.816   8.087  20.609  0.00  0.00    +0.000 C 
ATOM     21  C   UNL     1       0.495   8.848  20.448  0.00  0.00    +0.000 C 
ATOM     22  C   UNL     1       0.522   9.978  19.430  0.00  0.00    +0.000 C 
ATOM     23  C   UNL     1       0.843   9.533  18.012  0.00  0.00    +0.000 C 
ATOM     24  C   UNL     1       2.260   8.993  17.885  0.00  0.00    +0.000 C 
ATOM     25  C   UNL     1       2.400   7.513  18.250  0.00  0.00    +0.000 C 
ENDBRANCH  18  19
ENDBRANCH  10  18
TORSDOF 5
ENDMDL
MODEL 8
REMARK VINA RESULT:      -7.5      4.509      5.854
REMARK  Name = 
REMARK  5 active torsions:
REMARK  status: ('A' for Active; 'I' for Inactive)
REMARK    1  A    between atoms: N_2  and  C_4
REMARK    2  A    between atoms: C_8  and  O_9
REMARK    3  A    between atoms: C_10  and  O_11
REMARK    4  A    between atoms: C_15  and  C_16
REMARK    5  A    between atoms: C_16  and  N_17
REMARK                            x       y       z     vdW  Elec       q    Type
REMARK                         _______ _______ _______ _____ _____    ______ ____
ROOT
ATOM      1  C   UNL     1       3.019   6.137  19.382  0.00  0.00    +0.000 A 
ATOM      2  C   UNL     1       4.170   5.339  19.425  0.00  0.00    +0.000 A 
ATOM      3  C   UNL     1       5.153   5.481  18.454  0.00  0.00    +0.000 A 
ATOM      4  N   UNL     1       6.206   4.641  18.437  0.00  0.00    +0.000 NA
ATOM      5  C   UNL     1       7.052   4.819  17.407  0.00  0.00    +0.000 A 
ATOM      6  C   UNL     1       6.900   5.801  16.442  0.00  0.00    +0.000 A 
ATOM      7  N   UNL     1       5.880   6.671  16.470  0.00  0.00    +0.000 NA
ATOM      8  C   UNL     1       4.999   6.502  17.471  0.00  0.00    +0.000 A 
ATOM      9  C   UNL     1       3.879   7.314  17.492  0.00  0.00    +0.000 A 
ATOM     10  C   UNL     1       2.822   7.109  18.395  0.00  0.00    +0.000 A 
ENDROOT
BRANCH   1  12
ATOM     11  O   UNL     1       1.855   6.741  21.270  0.00  0.00    +0.000 OA
ATOM     12  N   UNL     1       1.995   5.885  20.386  0.00  0.00    +0.000 N 
ATOM     13  O   UNL     1       1.350   4.836  20.280  0.00  0.00    +0.000 OA
ENDBRANCH   1  12
BRANCH   5  14
ATOM     14  O   UNL     1       8.083   3.929  17.350  0.00  0.00    +0.000 OA
ATOM     15  H   UNL     1       8.748   4.457  16.874  0.00  0.00    +0.000 HD
ENDBRANCH   5  14
BRANCH   6  16
ATOM     16  O   UNL     1       7.755   5.905  15.382  0.00  0.00    +0.000 OA
ATOM     17  H   UNL     1       7.246   6.364  14.691  0.00  0.00    +0.000 HD
ENDBRANCH   6  16
BRANCH  10  18
ATOM     18  C   UNL     1       1.535   7.904  18.253  0.00  0.00    +0.000 C 
BRANCH  18  19
ATOM     19  N   UNL     1       1.609   9.277  18.810  0.00  0.00    +0.000 NA
ATOM     20  C   UNL     1       1.636  10.314  17.772  0.00  0.00    +0.000 C 
ATOM     21  C   UNL     1       2.300  11.612  18.249  0.00  0.00    +0.000 C 
ATOM     22  C   UNL     1       1.394  12.547  19.037  0.00  0.00    +0.000 C 
ATOM     23  C   UNL     1       0.842  11.946  20.320  0.00  0.00    +0.000 C 
ATOM     24  C   UNL     1      -0.103  10.784  20.052  0.00  0.00    +0.000 C 
ATOM     25  C   UNL     1       0.600   9.437  19.869  0.00  0.00    +0.000 C 
ENDBRANCH  18  19
ENDBRANCH  10  18
TORSDOF 5
ENDMDL
MODEL 9
REMARK VINA RESULT:      -7.5      3.392      4.963
REMARK  Name = 
REMARK  5 active torsions:
REMARK  status: ('A' for Active; 'I' for Inactive)
REMARK    1  A    between atoms: N_2  and  C_4
REMARK    2  A    between atoms: C_8  and  O_9
REMARK    3  A    between atoms: C_10  and  O_11
REMARK    4  A    between atoms: C_15  and  C_16
REMARK    5  A    between atoms: C_16  and  N_17
REMARK                            x       y       z     vdW  Elec       q    Type
REMARK                         _______ _______ _______ _____ _____    ______ ____
ROOT
ATOM      1  C   UNL     1       3.046   3.898  18.555  0.00  0.00    +0.000 A 
ATOM      2  C   UNL     1       3.949   3.542  17.544  0.00  0.00    +0.000 A 
ATOM      3  C   UNL     1       5.039   4.356  17.264  0.00  0.00    +0.000 A 
ATOM      4  N   UNL     1       5.843   4.066  16.223  0.00  0.00    +0.000 NA
ATOM      5  C   UNL     1       6.817   4.965  15.997  0.00  0.00    +0.000 A 
ATOM      6  C   UNL     1       7.024   6.094  16.772  0.00  0.00    +0.000 A 
ATOM      7  N   UNL     1       6.257   6.373  17.837  0.00  0.00    +0.000 NA
ATOM      8  C   UNL     1       5.255   5.509  18.075  0.00  0.00    +0.000 A 
ATOM      9  C   UNL     1       4.379   5.800  19.104  0.00  0.00    +0.000 A 
ATOM     10  C   UNL     1       3.210   5.054  19.327  0.00  0.00    +0.000 A 
ENDROOT
BRANCH   1  12
ATOM     11  O   UNL     1       0.911   3.246  18.010  0.00  0.00    +0.000 OA
ATOM     12  N   UNL     1       1.886   3.039  18.745  0.00  0.00    +0.000 N 
ATOM     13  O   UNL     1       1.963   2.176  19.625  0.00  0.00    +0.000 OA
ENDBRANCH   1  12
BRANCH   5  14
ATOM     14  O   UNL     1       7.592   4.709  14.905  0.00  0.00    +0.000 OA
ATOM     15  H   UNL     1       6.938   4.819  14.193  0.00  0.00    +0.000 HD
ENDBRANCH   5  14
BRANCH   6  16
ATOM     16  O   UNL     1       7.991   7.008  16.467  0.00  0.00    +0.000 OA
ATOM     17  H   UNL     1       7.572   7.876  16.608  0.00  0.00    +0.000 HD
ENDBRANCH   6  16
BRANCH  10  18
ATOM     18  C   UNL     1       2.187   5.528  20.345  0.00  0.00    +0.000 C 
BRANCH  18  19
ATOM     19  N   UNL     1       1.533   6.812  19.993  0.00  0.00    +0.000 NA
ATOM     20  C   UNL     1       1.672   7.830  21.040  0.00  0.00    +0.000 C 
ATOM     21  C   UNL     1       0.559   8.883  20.996  0.00  0.00    +0.000 C 
ATOM     22  C   UNL     1       0.775  10.008  19.995  0.00  0.00    +0.000 C 
ATOM     23  C   UNL     1       0.877   9.547  18.549  0.00  0.00    +0.000 C 
ATOM     24  C   UNL     1       2.114   8.696  18.302  0.00  0.00    +0.000 C 
ATOM     25  C   UNL     1       1.929   7.213  18.634  0.00  0.00    +0.000 C 
ENDBRANCH  18  19
ENDBRANCH  10  18
TORSDOF 5
ENDMDL
