MODEL 1
REMARK VINA RESULT:      -8.4      0.000      0.000
REMARK  Name = 
REMARK  4 active torsions:
REMARK  status: ('A' for Active; 'I' for Inactive)
REMARK    1  A    between atoms: N_1  and  C_2
REMARK    2  A    between atoms: C_9  and  C_10
REMARK    3  A    between atoms: C_14  and  O_15
REMARK    4  A    between atoms: O_15  and  C_16
REMARK                            x       y       z     vdW  Elec       q    Type
REMARK                         _______ _______ _______ _____ _____    ______ ____
ROOT
ATOM      1  C   UNL     1       1.521   7.813  20.488  0.00  0.00    +0.000 A 
ATOM      2  N   UNL     1       0.693   8.402  21.378  0.00  0.00    +0.000 NA
ATOM      3  C   UNL     1       0.164   9.603  21.077  0.00  0.00    +0.000 A 
ATOM      4  N   UNL     1       0.370  10.337  19.974  0.00  0.00    +0.000 NA
ATOM      5  C   UNL     1       1.184   9.702  19.117  0.00  0.00    +0.000 A 
ATOM      6  N   UNL     1       1.599  10.179  17.915  0.00  0.00    +0.000 N 
ATOM      7  N   UNL     1       2.410   9.343  17.248  0.00  0.00    +0.000 NA
ATOM      8  C   UNL     1       2.516   8.264  18.052  0.00  0.00    +0.000 A 
ATOM      9  C   UNL     1       1.779   8.461  19.270  0.00  0.00    +0.000 A 
ATOM     10  H   UNL     1       1.367  11.074  17.502  0.00  0.00    +0.000 HD
ENDROOT
BRANCH   8  11
ATOM     11  C   UNL     1       3.357   7.132  17.641  0.00  0.00    +0.000 A 
ATOM     12  C   UNL     1       4.461   7.295  16.797  0.00  0.00    +0.000 A 
ATOM     13  C   UNL     1       5.161   6.189  16.309  0.00  0.00    +0.000 A 
ATOM     14  C   UNL     1       4.778   4.901  16.683  0.00  0.00    +0.000 A 
ATOM     15  C   UNL     1       3.713   4.723  17.562  0.00  0.00    +0.000 A 
ATOM     16  C   UNL     1       3.039   5.836  18.077  0.00  0.00    +0.000 A 
BRANCH  15  17
ATOM     17  O   UNL     1       3.412   3.419  17.896  0.00  0.00    +0.000 OA
BRANCH  17  18
ATOM     18  C   UNL     1       2.684   3.171  19.040  0.00  0.00    +0.000 A 
ATOM     19  C   UNL     1       1.287   3.142  19.085  0.00  0.00    +0.000 A 
ATOM     20  C   UNL     1       0.629   2.942  20.298  0.00  0.00    +0.000 A 
ATOM     21  C   UNL     1       1.365   2.708  21.457  0.00  0.00    +0.000 A 
ATOM     22  C   UNL     1       2.760   2.666  21.404  0.00  0.00    +0.000 A 
ATOM     23  C   UNL     1       3.419   2.900  20.196  0.00  0.00    +0.000 A 
ENDBRANCH  17  18
ENDBRANCH  15  17
ENDBRANCH   8  11
BRANCH   1  24
ATOM     24  N   UNL     1       2.072   6.604  20.897  0.00  0.00    +0.000 N 
ATOM     25  H   UNL     1       1.424   5.849  20.697  0.00  0.00    +0.000 HD
ATOM     26  H   UNL     1       2.437   6.613  21.841  0.00  0.00    +0.000 HD
ENDBRANCH   1  24
TORSDOF 4
ENDMDL
MODEL 2
REMARK VINA RESULT:      -8.3      0.381      1.072
REMARK  Name = 
REMARK  4 active torsions:
REMARK  status: ('A' for Active; 'I' for Inactive)
REMARK    1  A    between atoms: N_1  and  C_2
REMARK    2  A    between atoms: C_9  and  C_10
REMARK    3  A    between atoms: C_14  and  O_15
REMARK    4  A    between atoms: O_15  and  C_16
REMARK                            x       y       z     vdW  Elec       q    Type
REMARK                         _______ _______ _______ _____ _____    ______ ____
ROOT
ATOM      1  C   UNL     1       1.316   8.174  20.649  0.00  0.00    +0.000 A 
ATOM      2  N   UNL     1       0.500   8.799  21.526  0.00  0.00    +0.000 NA
ATOM      3  C   UNL     1      -0.039   9.983  21.182  0.00  0.00    +0.000 A 
ATOM      4  N   UNL     1       0.145  10.669  20.044  0.00  0.00    +0.000 NA
ATOM      5  C   UNL     1       0.947  10.001  19.202  0.00  0.00    +0.000 A 
ATOM      6  N   UNL     1       1.340  10.425  17.973  0.00  0.00    +0.000 N 
ATOM      7  N   UNL     1       2.143   9.564  17.330  0.00  0.00    +0.000 NA
ATOM      8  C   UNL     1       2.267   8.522  18.178  0.00  0.00    +0.000 A 
ATOM      9  C   UNL     1       1.550   8.769  19.399  0.00  0.00    +0.000 A 
ATOM     10  H   UNL     1       1.096  11.301  17.526  0.00  0.00    +0.000 HD
ENDROOT
BRANCH   8  11
ATOM     11  C   UNL     1       3.106   7.376  17.803  0.00  0.00    +0.000 A 
ATOM     12  C   UNL     1       4.299   7.531  17.089  0.00  0.00    +0.000 A 
ATOM     13  C   UNL     1       5.007   6.421  16.623  0.00  0.00    +0.000 A 
ATOM     14  C   UNL     1       4.540   5.134  16.891  0.00  0.00    +0.000 A 
ATOM     15  C   UNL     1       3.381   4.960  17.643  0.00  0.00    +0.000 A 
ATOM     16  C   UNL     1       2.697   6.075  18.138  0.00  0.00    +0.000 A 
BRANCH  15  17
ATOM     17  O   UNL     1       3.000   3.656  17.878  0.00  0.00    +0.000 OA
BRANCH  17  18
ATOM     18  C   UNL     1       2.571   3.301  19.140  0.00  0.00    +0.000 A 
ATOM     19  C   UNL     1       3.429   2.929  20.179  0.00  0.00    +0.000 A 
ATOM     20  C   UNL     1       2.906   2.526  21.408  0.00  0.00    +0.000 A 
ATOM     21  C   UNL     1       1.531   2.556  21.621  0.00  0.00    +0.000 A 
ATOM     22  C   UNL     1       0.674   2.995  20.609  0.00  0.00    +0.000 A 
ATOM     23  C   UNL     1       1.195   3.365  19.368  0.00  0.00    +0.000 A 
ENDBRANCH  17  18
ENDBRANCH  15  17
ENDBRANCH   8  11
BRANCH   1  24
ATOM     24  N   UNL     1       1.878   6.986  21.100  0.00  0.00    +0.000 N 
ATOM     25  H   UNL     1       1.594   6.817  22.059  0.00  0.00    +0.000 HD
ATOM     26  H   UNL     1       2.873   6.908  20.931  0.00  0.00    +0.000 HD
ENDBRANCH   1  24
TORSDOF 4
ENDMDL
MODEL 3
REMARK VINA RESULT:      -8.1      2.247      4.076
REMARK  Name = 
REMARK  4 active torsions:
REMARK  status: ('A' for Active; 'I' for Inactive)
REMARK    1  A    between atoms: N_1  and  C_2
REMARK    2  A    between atoms: C_9  and  C_10
REMARK    3  A    between atoms: C_14  and  O_15
REMARK    4  A    between atoms: O_15  and  C_16
REMARK                            x       y       z     vdW  Elec       q    Type
REMARK                         _______ _______ _______ _____ _____    ______ ____
ROOT
ATOM      1  C   UNL     1       0.205  12.364  21.103  0.00  0.00    +0.000 A 
ATOM      2  N   UNL     1      -0.277  13.430  21.780  0.00  0.00    +0.000 NA
ATOM      3  C   UNL     1      -0.997  13.220  22.898  0.00  0.00    +0.000 A 
ATOM      4  N   UNL     1      -1.333  12.044  23.448  0.00  0.00    +0.000 NA
ATOM      5  C   UNL     1      -0.818  11.020  22.751  0.00  0.00    +0.000 A 
ATOM      6  N   UNL     1      -0.982   9.702  23.036  0.00  0.00    +0.000 N 
ATOM      7  N   UNL     1      -0.358   8.878  22.181  0.00  0.00    +0.000 NA
ATOM      8  C   UNL     1       0.253   9.702  21.304  0.00  0.00    +0.000 A 
ATOM      9  C   UNL     1      -0.039  11.077  21.607  0.00  0.00    +0.000 A 
ATOM     10  H   UNL     1      -1.518   9.308  23.799  0.00  0.00    +0.000 HD
ENDROOT
BRANCH   8  11
ATOM     11  C   UNL     1       1.032   9.135  20.196  0.00  0.00    +0.000 A 
ATOM     12  C   UNL     1       1.041   9.712  18.921  0.00  0.00    +0.000 A 
ATOM     13  C   UNL     1       1.675   9.078  17.849  0.00  0.00    +0.000 A 
ATOM     14  C   UNL     1       2.334   7.865  18.049  0.00  0.00    +0.000 A 
ATOM     15  C   UNL     1       2.379   7.302  19.321  0.00  0.00    +0.000 A 
ATOM     16  C   UNL     1       1.773   7.959  20.397  0.00  0.00    +0.000 A 
BRANCH  15  17
ATOM     17  O   UNL     1       3.067   6.113  19.435  0.00  0.00    +0.000 OA
BRANCH  17  18
ATOM     18  C   UNL     1       2.364   4.952  19.681  0.00  0.00    +0.000 A 
ATOM     19  C   UNL     1       2.112   4.449  20.960  0.00  0.00    +0.000 A 
ATOM     20  C   UNL     1       1.443   3.235  21.115  0.00  0.00    +0.000 A 
ATOM     21  C   UNL     1       0.969   2.555  19.997  0.00  0.00    +0.000 A 
ATOM     22  C   UNL     1       1.156   3.089  18.721  0.00  0.00    +0.000 A 
ATOM     23  C   UNL     1       1.856   4.287  18.563  0.00  0.00    +0.000 A 
ENDBRANCH  17  18
ENDBRANCH  15  17
ENDBRANCH   8  11
BRANCH   1  24
ATOM     24  N   UNL     1       0.887  12.662  19.930  0.00  0.00    +0.000 N 
ATOM     25  H   UNL     1       0.944  11.832  19.349  0.00  0.00    +0.000 HD
ATOM     26  H   UNL     1       1.766  13.143  20.072  0.00  0.00    +0.000 HD
ENDBRANCH   1  24
TORSDOF 4
ENDMDL
MODEL 4
REMARK VINA RESULT:      -8.0      3.335      6.248
REMARK  Name = 
REMARK  4 active torsions:
REMARK  status: ('A' for Active; 'I' for Inactive)
REMARK    1  A    between atoms: N_1  and  C_2
REMARK    2  A    between atoms: C_9  and  C_10
REMARK    3  A    between atoms: C_14  and  O_15
REMARK    4  A    between atoms: O_15  and  C_16
REMARK                            x       y       z     vdW  Elec       q    Type
REMARK                         _______ _______ _______ _____ _____    ______ ____
ROOT
ATOM      1  C   UNL     1       2.486   4.942  19.904  0.00  0.00    +0.000 A 
ATOM      2  N   UNL     1       1.287   4.780  20.506  0.00  0.00    +0.000 NA
ATOM      3  C   UNL     1       0.609   3.634  20.307  0.00  0.00    +0.000 A 
ATOM      4  N   UNL     1       0.968   2.591  19.544  0.00  0.00    +0.000 NA
ATOM      5  C   UNL     1       2.169   2.792  18.984  0.00  0.00    +0.000 A 
ATOM      6  N   UNL     1       2.810   1.935  18.148  0.00  0.00    +0.000 N 
ATOM      7  N   UNL     1       4.005   2.376  17.727  0.00  0.00    +0.000 NA
ATOM      8  C   UNL     1       4.154   3.574  18.331  0.00  0.00    +0.000 A 
ATOM      9  C   UNL     1       2.994   3.898  19.115  0.00  0.00    +0.000 A 
ATOM     10  H   UNL     1       2.474   1.037  17.824  0.00  0.00    +0.000 HD
ENDROOT
BRANCH   8  11
ATOM     11  C   UNL     1       5.365   4.367  18.082  0.00  0.00    +0.000 A 
ATOM     12  C   UNL     1       6.105   4.941  19.121  0.00  0.00    +0.000 A 
ATOM     13  C   UNL     1       7.169   5.806  18.854  0.00  0.00    +0.000 A 
ATOM     14  C   UNL     1       7.524   6.086  17.534  0.00  0.00    +0.000 A 
ATOM     15  C   UNL     1       6.831   5.484  16.487  0.00  0.00    +0.000 A 
ATOM     16  C   UNL     1       5.790   4.591  16.762  0.00  0.00    +0.000 A 
BRANCH  15  17
ATOM     17  O   UNL     1       7.259   5.799  15.215  0.00  0.00    +0.000 OA
BRANCH  17  18
ATOM     18  C   UNL     1       6.889   4.988  14.163  0.00  0.00    +0.000 A 
ATOM     19  C   UNL     1       7.692   4.745  13.045  0.00  0.00    +0.000 A 
ATOM     20  C   UNL     1       7.214   3.957  11.998  0.00  0.00    +0.000 A 
ATOM     21  C   UNL     1       5.961   3.358  12.095  0.00  0.00    +0.000 A 
ATOM     22  C   UNL     1       5.185   3.540  13.241  0.00  0.00    +0.000 A 
ATOM     23  C   UNL     1       5.648   4.356  14.274  0.00  0.00    +0.000 A 
ENDBRANCH  17  18
ENDBRANCH  15  17
ENDBRANCH   8  11
BRANCH   1  24
ATOM     24  N   UNL     1       3.095   6.174  20.110  0.00  0.00    +0.000 N 
ATOM     25  H   UNL     1       4.014   6.036  20.516  0.00  0.00    +0.000 HD
ATOM     26  H   UNL     1       2.514   6.847  20.593  0.00  0.00    +0.000 HD
ENDBRANCH   1  24
TORSDOF 4
ENDMDL
MODEL 5
REMARK VINA RESULT:      -7.9      3.267      6.774
REMARK  Name = 
REMARK  4 active torsions:
REMARK  status: ('A' for Active; 'I' for Inactive)
REMARK    1  A    between atoms: N_1  and  C_2
REMARK    2  A    between atoms: C_9  and  C_10
REMARK    3  A    between atoms: C_14  and  O_15
REMARK    4  A    between atoms: O_15  and  C_16
REMARK                            x       y       z     vdW  Elec       q    Type
REMARK                         _______ _______ _______ _____ _____    ______ ____
ROOT
ATOM      1  C   UNL     1       1.758   3.828  19.300  0.00  0.00    +0.000 A 
ATOM      2  N   UNL     1       1.911   2.504  19.074  0.00  0.00    +0.000 NA
ATOM      3  C   UNL     1       2.860   2.098  18.210  0.00  0.00    +0.000 A 
ATOM      4  N   UNL     1       3.700   2.861  17.496  0.00  0.00    +0.000 NA
ATOM      5  C   UNL     1       3.521   4.162  17.768  0.00  0.00    +0.000 A 
ATOM      6  N   UNL     1       4.203   5.193  17.206  0.00  0.00    +0.000 N 
ATOM      7  N   UNL     1       3.832   6.401  17.655  0.00  0.00    +0.000 NA
ATOM      8  C   UNL     1       2.869   6.141  18.565  0.00  0.00    +0.000 A 
ATOM      9  C   UNL     1       2.613   4.729  18.647  0.00  0.00    +0.000 A 
ATOM     10  H   UNL     1       4.928   5.130  16.502  0.00  0.00    +0.000 HD
ENDROOT
BRANCH   8  11
ATOM     11  C   UNL     1       2.210   7.253  19.262  0.00  0.00    +0.000 A 
ATOM     12  C   UNL     1       1.908   7.200  20.627  0.00  0.00    +0.000 A 
ATOM     13  C   UNL     1       1.157   8.208  21.237  0.00  0.00    +0.000 A 
ATOM     14  C   UNL     1       0.719   9.301  20.488  0.00  0.00    +0.000 A 
ATOM     15  C   UNL     1       1.053   9.395  19.139  0.00  0.00    +0.000 A 
ATOM     16  C   UNL     1       1.836   8.400  18.544  0.00  0.00    +0.000 A 
BRANCH  15  17
ATOM     17  O   UNL     1       0.598  10.515  18.478  0.00  0.00    +0.000 OA
BRANCH  17  18
ATOM     18  C   UNL     1      -0.760  10.685  18.304  0.00  0.00    +0.000 A 
ATOM     19  C   UNL     1      -1.511  11.673  18.949  0.00  0.00    +0.000 A 
ATOM     20  C   UNL     1      -2.891  11.736  18.761  0.00  0.00    +0.000 A 
ATOM     21  C   UNL     1      -3.513  10.856  17.880  0.00  0.00    +0.000 A 
ATOM     22  C   UNL     1      -2.757   9.914  17.180  0.00  0.00    +0.000 A 
ATOM     23  C   UNL     1      -1.380   9.828  17.394  0.00  0.00    +0.000 A 
ENDBRANCH  17  18
ENDBRANCH  15  17
ENDBRANCH   8  11
BRANCH   1  24
ATOM     24  N   UNL     1       0.720   4.169  20.158  0.00  0.00    +0.000 N 
ATOM     25  H   UNL     1      -0.118   3.660  19.899  0.00  0.00    +0.000 HD
ATOM     26  H   UNL     1       0.593   5.166  20.278  0.00  0.00    +0.000 HD
ENDBRANCH   1  24
TORSDOF 4
ENDMDL
MODEL 6
REMARK VINA RESULT:      -7.9      2.297      4.192
REMARK  Name = 
REMARK  4 active torsions:
REMARK  status: ('A' for Active; 'I' for Inactive)
REMARK    1  A    between atoms: N_1  and  C_2
REMARK    2  A    between atoms: C_9  and  C_10
REMARK    3  A    between atoms: C_14  and  O_15
REMARK    4  A    between atoms: O_15  and  C_16
REMARK                            x       y       z     vdW  Elec       q    Type
REMARK                         _______ _______ _______ _____ _____    ______ ____
ROOT
ATOM      1  C   UNL     1      -1.313  11.852  20.556  0.00  0.00    +0.000 A 
ATOM      2  N   UNL     1      -2.168  12.774  21.050  0.00  0.00    +0.000 NA
ATOM      3  C   UNL     1      -2.511  12.712  22.350  0.00  0.00    +0.000 A 
ATOM      4  N   UNL     1      -2.117  11.809  23.260  0.00  0.00    +0.000 NA
ATOM      5  C   UNL     1      -1.258  10.928  22.726  0.00  0.00    +0.000 A 
ATOM      6  N   UNL     1      -0.684   9.883  23.376  0.00  0.00    +0.000 N 
ATOM      7  N   UNL     1       0.143   9.154  22.612  0.00  0.00    +0.000 NA
ATOM      8  C   UNL     1       0.115   9.764  21.408  0.00  0.00    +0.000 A 
ATOM      9  C   UNL     1      -0.791  10.880  21.423  0.00  0.00    +0.000 A 
ATOM     10  H   UNL     1      -0.828   9.616  24.342  0.00  0.00    +0.000 HD
ENDROOT
BRANCH   8  11
ATOM     11  C   UNL     1       0.906   9.216  20.298  0.00  0.00    +0.000 A 
ATOM     12  C   UNL     1       0.905   9.800  19.026  0.00  0.00    +0.000 A 
ATOM     13  C   UNL     1       1.552   9.183  17.952  0.00  0.00    +0.000 A 
ATOM     14  C   UNL     1       2.235   7.982  18.147  0.00  0.00    +0.000 A 
ATOM     15  C   UNL     1       2.289   7.414  19.417  0.00  0.00    +0.000 A 
ATOM     16  C   UNL     1       1.669   8.055  20.495  0.00  0.00    +0.000 A 
BRANCH  15  17
ATOM     17  O   UNL     1       3.000   6.238  19.526  0.00  0.00    +0.000 OA
BRANCH  17  18
ATOM     18  C   UNL     1       2.334   5.037  19.394  0.00  0.00    +0.000 A 
ATOM     19  C   UNL     1       2.292   4.294  18.210  0.00  0.00    +0.000 A 
ATOM     20  C   UNL     1       1.544   3.119  18.148  0.00  0.00    +0.000 A 
ATOM     21  C   UNL     1       0.891   2.650  19.284  0.00  0.00    +0.000 A 
ATOM     22  C   UNL     1       0.988   3.351  20.488  0.00  0.00    +0.000 A 
ATOM     23  C   UNL     1       1.708   4.546  20.541  0.00  0.00    +0.000 A 
ENDBRANCH  17  18
ENDBRANCH  15  17
ENDBRANCH   8  11
BRANCH   1  24
ATOM     24  N   UNL     1      -1.055  11.949  19.193  0.00  0.00    +0.000 N 
ATOM     25  H   UNL     1      -0.394  11.230  18.920  0.00  0.00    +0.000 HD
ATOM     26  H   UNL     1      -0.821  12.883  18.882  0.00  0.00    +0.000 HD
ENDBRANCH   1  24
TORSDOF 4
ENDMDL
MODEL 7
REMARK VINA RESULT:      -7.9      3.192      6.302
REMARK  Name = 
REMARK  4 active torsions:
REMARK  status: ('A' for Active; 'I' for Inactive)
REMARK    1  A    between atoms: N_1  and  C_2
REMARK    2  A    between atoms: C_9  and  C_10
REMARK    3  A    between atoms: C_14  and  O_15
REMARK    4  A    between atoms: O_15  and  C_16
REMARK                            x       y       z     vdW  Elec       q    Type
REMARK                         _______ _______ _______ _____ _____    ______ ____
ROOT
ATOM      1  C   UNL     1       2.433   5.015  19.715  0.00  0.00    +0.000 A 
ATOM      2  N   UNL     1       1.245   4.792  20.320  0.00  0.00    +0.000 NA
ATOM      3  C   UNL     1       1.049   3.623  20.957  0.00  0.00    +0.000 A 
ATOM      4  N   UNL     1       1.902   2.593  21.063  0.00  0.00    +0.000 NA
ATOM      5  C   UNL     1       3.069   2.869  20.463  0.00  0.00    +0.000 A 
ATOM      6  N   UNL     1       4.137   2.034  20.380  0.00  0.00    +0.000 N 
ATOM      7  N   UNL     1       5.187   2.555  19.726  0.00  0.00    +0.000 NA
ATOM      8  C   UNL     1       4.785   3.796  19.379  0.00  0.00    +0.000 A 
ATOM      9  C   UNL     1       3.430   4.029  19.797  0.00  0.00    +0.000 A 
ATOM     10  H   UNL     1       4.202   1.092  20.746  0.00  0.00    +0.000 HD
ENDROOT
BRANCH   8  11
ATOM     11  C   UNL     1       5.692   4.667  18.620  0.00  0.00    +0.000 A 
ATOM     12  C   UNL     1       6.799   5.284  19.212  0.00  0.00    +0.000 A 
ATOM     13  C   UNL     1       7.565   6.216  18.507  0.00  0.00    +0.000 A 
ATOM     14  C   UNL     1       7.244   6.523  17.184  0.00  0.00    +0.000 A 
ATOM     15  C   UNL     1       6.176   5.882  16.563  0.00  0.00    +0.000 A 
ATOM     16  C   UNL     1       5.436   4.922  17.263  0.00  0.00    +0.000 A 
BRANCH  15  17
ATOM     17  O   UNL     1       5.940   6.229  15.250  0.00  0.00    +0.000 OA
BRANCH  17  18
ATOM     18  C   UNL     1       6.230   5.320  14.254  0.00  0.00    +0.000 A 
ATOM     19  C   UNL     1       7.438   5.292  13.551  0.00  0.00    +0.000 A 
ATOM     20  C   UNL     1       7.625   4.375  12.517  0.00  0.00    +0.000 A 
ATOM     21  C   UNL     1       6.632   3.444  12.227  0.00  0.00    +0.000 A 
ATOM     22  C   UNL     1       5.452   3.422  12.973  0.00  0.00    +0.000 A 
ATOM     23  C   UNL     1       5.250   4.362  13.985  0.00  0.00    +0.000 A 
ENDBRANCH  17  18
ENDBRANCH  15  17
ENDBRANCH   8  11
BRANCH   1  24
ATOM     24  N   UNL     1       2.537   6.219  19.030  0.00  0.00    +0.000 N 
ATOM     25  H   UNL     1       1.999   6.171  18.172  0.00  0.00    +0.000 HD
ATOM     26  H   UNL     1       3.487   6.552  18.920  0.00  0.00    +0.000 HD
ENDBRANCH   1  24
TORSDOF 4
ENDMDL
MODEL 8
REMARK VINA RESULT:      -7.8      2.093      3.639
REMARK  Name = 
REMARK  4 active torsions:
REMARK  status: ('A' for Active; 'I' for Inactive)
REMARK    1  A    between atoms: N_1  and  C_2
REMARK    2  A    between atoms: C_9  and  C_10
REMARK    3  A    between atoms: C_14  and  O_15
REMARK    4  A    between atoms: O_15  and  C_16
REMARK                            x       y       z     vdW  Elec       q    Type
REMARK                         _______ _______ _______ _____ _____    ______ ____
ROOT
ATOM      1  C   UNL     1      -1.448  10.826  18.636  0.00  0.00    +0.000 A 
ATOM      2  N   UNL     1      -2.514  11.656  18.652  0.00  0.00    +0.000 NA
ATOM      3  C   UNL     1      -2.786  12.344  19.776  0.00  0.00    +0.000 A 
ATOM      4  N   UNL     1      -2.125  12.304  20.943  0.00  0.00    +0.000 NA
ATOM      5  C   UNL     1      -1.068  11.482  20.871  0.00  0.00    +0.000 A 
ATOM      6  N   UNL     1      -0.202  11.210  21.881  0.00  0.00    +0.000 N 
ATOM      7  N   UNL     1       0.774  10.354  21.547  0.00  0.00    +0.000 NA
ATOM      8  C   UNL     1       0.539  10.064  20.249  0.00  0.00    +0.000 A 
ATOM      9  C   UNL     1      -0.645  10.733  19.785  0.00  0.00    +0.000 A 
ATOM     10  H   UNL     1      -0.235  11.577  22.825  0.00  0.00    +0.000 HD
ENDROOT
BRANCH   8  11
ATOM     11  C   UNL     1       1.419   9.124  19.544  0.00  0.00    +0.000 A 
ATOM     12  C   UNL     1       1.839   9.345  18.227  0.00  0.00    +0.000 A 
ATOM     13  C   UNL     1       2.560   8.371  17.530  0.00  0.00    +0.000 A 
ATOM     14  C   UNL     1       2.893   7.170  18.157  0.00  0.00    +0.000 A 
ATOM     15  C   UNL     1       2.527   6.955  19.482  0.00  0.00    +0.000 A 
ATOM     16  C   UNL     1       1.837   7.948  20.186  0.00  0.00    +0.000 A 
BRANCH  15  17
ATOM     17  O   UNL     1       2.913   5.750  20.031  0.00  0.00    +0.000 OA
BRANCH  17  18
ATOM     18  C   UNL     1       2.323   4.588  19.578  0.00  0.00    +0.000 A 
ATOM     19  C   UNL     1       2.837   3.806  18.539  0.00  0.00    +0.000 A 
ATOM     20  C   UNL     1       2.144   2.677  18.105  0.00  0.00    +0.000 A 
ATOM     21  C   UNL     1       0.972   2.291  18.748  0.00  0.00    +0.000 A 
ATOM     22  C   UNL     1       0.492   3.029  19.832  0.00  0.00    +0.000 A 
ATOM     23  C   UNL     1       1.167   4.179  20.245  0.00  0.00    +0.000 A 
ENDBRANCH  17  18
ENDBRANCH  15  17
ENDBRANCH   8  11
BRANCH   1  24
ATOM     24  N   UNL     1      -1.268  10.108  17.460  0.00  0.00    +0.000 N 
ATOM     25  H   UNL     1      -0.355  10.315  17.070  0.00  0.00    +0.000 HD
ATOM     26  H   UNL     1      -2.037  10.185  16.807  0.00  0.00    +0.000 HD
ENDBRANCH   1  24
TORSDOF 4
ENDMDL
MODEL 9
REMARK VINA RESULT:      -7.8      1.753      4.487
REMARK  Name = 
REMARK  4 active torsions:
REMARK  status: ('A' for Active; 'I' for Inactive)
REMARK    1  A    between atoms: N_1  and  C_2
REMARK    2  A    between atoms: C_9  and  C_10
REMARK    3  A    between atoms: C_14  and  O_15
REMARK    4  A    between atoms: O_15  and  C_16
REMARK                            x       y       z     vdW  Elec       q    Type
REMARK                         _______ _______ _______ _____ _____    ______ ____
ROOT
ATOM      1  C   UNL     1       2.299   8.536  18.120  0.00  0.00    +0.000 A 
ATOM      2  N   UNL     1       2.174   9.802  17.664  0.00  0.00    +0.000 NA
ATOM      3  C   UNL     1       1.550  10.713  18.434  0.00  0.00    +0.000 A 
ATOM      4  N   UNL     1       0.994  10.524  19.639  0.00  0.00    +0.000 NA
ATOM      5  C   UNL     1       1.159   9.260  20.056  0.00  0.00    +0.000 A 
ATOM      6  N   UNL     1       0.704   8.742  21.226  0.00  0.00    +0.000 N 
ATOM      7  N   UNL     1       1.006   7.447  21.403  0.00  0.00    +0.000 NA
ATOM      8  C   UNL     1       1.704   7.110  20.298  0.00  0.00    +0.000 A 
ATOM      9  C   UNL     1       1.798   8.224  19.394  0.00  0.00    +0.000 A 
ATOM     10  H   UNL     1       0.173   9.227  21.938  0.00  0.00    +0.000 HD
ENDROOT
BRANCH   8  11
ATOM     11  C   UNL     1       2.192   5.734  20.139  0.00  0.00    +0.000 A 
ATOM     12  C   UNL     1       1.399   4.624  20.448  0.00  0.00    +0.000 A 
ATOM     13  C   UNL     1       1.930   3.332  20.423  0.00  0.00    +0.000 A 
ATOM     14  C   UNL     1       3.262   3.133  20.059  0.00  0.00    +0.000 A 
ATOM     15  C   UNL     1       4.052   4.222  19.700  0.00  0.00    +0.000 A 
ATOM     16  C   UNL     1       3.504   5.509  19.692  0.00  0.00    +0.000 A 
BRANCH  15  17
ATOM     17  O   UNL     1       5.350   3.936  19.335  0.00  0.00    +0.000 OA
BRANCH  17  18
ATOM     18  C   UNL     1       6.090   4.898  18.681  0.00  0.00    +0.000 A 
ATOM     19  C   UNL     1       7.153   5.595  19.263  0.00  0.00    +0.000 A 
ATOM     20  C   UNL     1       7.809   6.596  18.546  0.00  0.00    +0.000 A 
ATOM     21  C   UNL     1       7.448   6.857  17.228  0.00  0.00    +0.000 A 
ATOM     22  C   UNL     1       6.434   6.115  16.619  0.00  0.00    +0.000 A 
ATOM     23  C   UNL     1       5.754   5.137  17.346  0.00  0.00    +0.000 A 
ENDBRANCH  17  18
ENDBRANCH  15  17
ENDBRANCH   8  11
BRANCH   1  24
ATOM     24  N   UNL     1       2.902   7.643  17.244  0.00  0.00    +0.000 N 
ATOM     25  H   UNL     1       3.248   6.841  17.759  0.00  0.00    +0.000 HD
ATOM     26  H   UNL     1       3.572   8.068  16.615  0.00  0.00    +0.000 HD
ENDBRANCH   1  24
TORSDOF 4
ENDMDL
