MODEL 1
REMARK VINA RESULT:      -7.2      0.000      0.000
REMARK  Name = 
REMARK  7 active torsions:
REMARK  status: ('A' for Active; 'I' for Inactive)
REMARK    1  A    between atoms: N_1  and  CA_2
REMARK    2  A    between atoms: CA_2  and  C_3
REMARK    3  A    between atoms: CA_2  and  C_6
REMARK    4  A    between atoms: C_3  and  OXT_5
REMARK    5  A    between atoms: N_9  and  O_10
REMARK    6  A    between atoms: C_11  and  C_12
REMARK    7  A    between atoms: C_12  and  C_13
REMARK                            x       y       z     vdW  Elec       q    Type
REMARK                         _______ _______ _______ _____ _____    ______ ____
ROOT
ATOM      1  C   UNL     1       6.233   5.036  16.612  0.00  0.00    +0.000 A 
ATOM      2  C   UNL     1       7.492   4.461  16.949  0.00  0.00    +0.000 A 
ATOM      3  N   UNL     1       7.739   4.500  18.260  0.00  0.00    +0.000 NA
ATOM      4  N   UNL     1       6.673   5.115  18.745  0.00  0.00    +0.000 N 
ATOM      5  C   UNL     1       5.708   5.424  17.840  0.00  0.00    +0.000 A 
ENDROOT
BRANCH   4   6
ATOM      6  O   UNL     1       6.665   5.359  20.090  0.00  0.00    +0.000 OA
ATOM      7  H   UNL     1       7.281   4.638  20.306  0.00  0.00    +0.000 HD
ENDBRANCH   4   6
BRANCH   1   8
ATOM      8  CA  UNL     1       5.642   5.197  15.248  0.00  0.00    +0.000 C 
BRANCH   8   9
ATOM      9  N   UNL     1       5.347   6.629  15.052  0.00  0.00    +0.000 NA
ATOM     10  H1  UNL     1       4.338   6.721  14.918  0.00  0.00    +0.000 HD
ATOM     11  H2  UNL     1       5.728   6.909  14.144  0.00  0.00    +0.000 HD
ENDBRANCH   8   9
BRANCH   8  12
ATOM     12  C   UNL     1       6.575   4.673  14.136  0.00  0.00    +0.000 C 
ATOM     13  O   UNL     1       7.445   5.348  13.598  0.00  0.00    +0.000 OA
BRANCH  12  14
ATOM     14  OXT UNL     1       6.330   3.393  13.758  0.00  0.00    +0.000 OA
ATOM     15  HXT UNL     1       5.383   3.192  13.630  0.00  0.00    +0.000 HD
ENDBRANCH  12  14
ENDBRANCH   8  12
ENDBRANCH   1   8
BRANCH   5  16
ATOM     16  C   UNL     1       4.419   6.054  18.252  0.00  0.00    +0.000 C 
BRANCH  16  17
ATOM     17  C   UNL     1       3.323   5.101  18.678  0.00  0.00    +0.000 A 
ATOM     18  C   UNL     1       2.828   5.178  19.991  0.00  0.00    +0.000 A 
ATOM     19  C   UNL     1       1.742   4.397  20.392  0.00  0.00    +0.000 A 
ATOM     20  C   UNL     1       1.135   3.530  19.488  0.00  0.00    +0.000 A 
ATOM     21  C   UNL     1       1.618   3.438  18.184  0.00  0.00    +0.000 A 
ATOM     22  C   UNL     1       2.701   4.222  17.780  0.00  0.00    +0.000 A 
ENDBRANCH  16  17
ENDBRANCH   5  16
TORSDOF 7
ENDMDL
MODEL 2
REMARK VINA RESULT:      -7.1      0.653      1.264
REMARK  Name = 
REMARK  7 active torsions:
REMARK  status: ('A' for Active; 'I' for Inactive)
REMARK    1  A    between atoms: N_1  and  CA_2
REMARK    2  A    between atoms: CA_2  and  C_3
REMARK    3  A    between atoms: CA_2  and  C_6
REMARK    4  A    between atoms: C_3  and  OXT_5
REMARK    5  A    between atoms: N_9  and  O_10
REMARK    6  A    between atoms: C_11  and  C_12
REMARK    7  A    between atoms: C_12  and  C_13
REMARK                            x       y       z     vdW  Elec       q    Type
REMARK                         _______ _______ _______ _____ _____    ______ ____
ROOT
ATOM      1  C   UNL     1       6.132   4.993  16.563  0.00  0.00    +0.000 A 
ATOM      2  C   UNL     1       7.430   4.552  16.947  0.00  0.00    +0.000 A 
ATOM      3  N   UNL     1       7.591   4.520  18.271  0.00  0.00    +0.000 NA
ATOM      4  N   UNL     1       6.428   4.960  18.722  0.00  0.00    +0.000 N 
ATOM      5  C   UNL     1       5.488   5.218  17.776  0.00  0.00    +0.000 A 
ENDROOT
BRANCH   4   6
ATOM      6  O   UNL     1       6.307   5.097  20.077  0.00  0.00    +0.000 OA
ATOM      7  H   UNL     1       6.641   4.206  20.277  0.00  0.00    +0.000 HD
ENDBRANCH   4   6
BRANCH   1   8
ATOM      8  CA  UNL     1       5.608   5.186  15.176  0.00  0.00    +0.000 C 
BRANCH   8   9
ATOM      9  N   UNL     1       5.351   6.626  14.988  0.00  0.00    +0.000 NA
ATOM     10  H1  UNL     1       6.211   7.127  15.214  0.00  0.00    +0.000 HD
ATOM     11  H2  UNL     1       4.706   6.930  15.722  0.00  0.00    +0.000 HD
ENDBRANCH   8   9
BRANCH   8  12
ATOM     12  C   UNL     1       6.582   4.659  14.100  0.00  0.00    +0.000 C 
ATOM     13  O   UNL     1       7.453   5.341  13.573  0.00  0.00    +0.000 OA
BRANCH  12  14
ATOM     14  OXT UNL     1       6.373   3.367  13.742  0.00  0.00    +0.000 OA
ATOM     15  HXT UNL     1       5.632   2.941  14.214  0.00  0.00    +0.000 HD
ENDBRANCH  12  14
ENDBRANCH   8  12
ENDBRANCH   1   8
BRANCH   5  16
ATOM     16  C   UNL     1       4.107   5.652  18.140  0.00  0.00    +0.000 C 
BRANCH  16  17
ATOM     17  C   UNL     1       3.081   4.548  18.278  0.00  0.00    +0.000 A 
ATOM     18  C   UNL     1       3.283   3.343  17.585  0.00  0.00    +0.000 A 
ATOM     19  C   UNL     1       2.423   2.259  17.772  0.00  0.00    +0.000 A 
ATOM     20  C   UNL     1       1.351   2.363  18.655  0.00  0.00    +0.000 A 
ATOM     21  C   UNL     1       1.134   3.554  19.345  0.00  0.00    +0.000 A 
ATOM     22  C   UNL     1       1.997   4.637  19.163  0.00  0.00    +0.000 A 
ENDBRANCH  16  17
ENDBRANCH   5  16
TORSDOF 7
ENDMDL
MODEL 3
REMARK VINA RESULT:      -7.0      1.252      1.653
REMARK  Name = 
REMARK  7 active torsions:
REMARK  status: ('A' for Active; 'I' for Inactive)
REMARK    1  A    between atoms: N_1  and  CA_2
REMARK    2  A    between atoms: CA_2  and  C_3
REMARK    3  A    between atoms: CA_2  and  C_6
REMARK    4  A    between atoms: C_3  and  OXT_5
REMARK    5  A    between atoms: N_9  and  O_10
REMARK    6  A    between atoms: C_11  and  C_12
REMARK    7  A    between atoms: C_12  and  C_13
REMARK                            x       y       z     vdW  Elec       q    Type
REMARK                         _______ _______ _______ _____ _____    ______ ____
ROOT
ATOM      1  C   UNL     1       6.548   5.856  17.099  0.00  0.00    +0.000 A 
ATOM      2  C   UNL     1       7.527   6.869  17.307  0.00  0.00    +0.000 A 
ATOM      3  N   UNL     1       8.047   6.836  18.535  0.00  0.00    +0.000 NA
ATOM      4  N   UNL     1       7.392   5.841  19.109  0.00  0.00    +0.000 N 
ATOM      5  C   UNL     1       6.517   5.174  18.312  0.00  0.00    +0.000 A 
ENDROOT
BRANCH   4   6
ATOM      6  O   UNL     1       7.673   5.599  20.425  0.00  0.00    +0.000 OA
ATOM      7  H   UNL     1       7.543   4.638  20.358  0.00  0.00    +0.000 HD
ENDBRANCH   4   6
BRANCH   1   8
ATOM      8  CA  UNL     1       5.736   5.613  15.868  0.00  0.00    +0.000 C 
BRANCH   8   9
ATOM      9  N   UNL     1       5.319   6.924  15.337  0.00  0.00    +0.000 NA
ATOM     10  H1  UNL     1       4.514   7.237  15.881  0.00  0.00    +0.000 HD
ATOM     11  H2  UNL     1       4.926   6.777  14.403  0.00  0.00    +0.000 HD
ENDBRANCH   8   9
BRANCH   8  12
ATOM     12  C   UNL     1       6.509   4.810  14.801  0.00  0.00    +0.000 C 
ATOM     13  O   UNL     1       6.177   3.697  14.407  0.00  0.00    +0.000 OA
BRANCH  12  14
ATOM     14  OXT UNL     1       7.633   5.420  14.346  0.00  0.00    +0.000 OA
ATOM     15  HXT UNL     1       7.459   6.196  13.779  0.00  0.00    +0.000 HD
ENDBRANCH  12  14
ENDBRANCH   8  12
ENDBRANCH   1   8
BRANCH   5  16
ATOM     16  C   UNL     1       5.759   3.985  18.801  0.00  0.00    +0.000 C 
BRANCH  16  17
ATOM     17  C   UNL     1       4.275   3.977  18.505  0.00  0.00    +0.000 A 
ATOM     18  C   UNL     1       3.483   5.036  18.978  0.00  0.00    +0.000 A 
ATOM     19  C   UNL     1       2.133   5.128  18.633  0.00  0.00    +0.000 A 
ATOM     20  C   UNL     1       1.557   4.165  17.810  0.00  0.00    +0.000 A 
ATOM     21  C   UNL     1       2.328   3.105  17.338  0.00  0.00    +0.000 A 
ATOM     22  C   UNL     1       3.680   3.014  17.677  0.00  0.00    +0.000 A 
ENDBRANCH  16  17
ENDBRANCH   5  16
TORSDOF 7
ENDMDL
MODEL 4
REMARK VINA RESULT:      -6.9      3.358      5.478
REMARK  Name = 
REMARK  7 active torsions:
REMARK  status: ('A' for Active; 'I' for Inactive)
REMARK    1  A    between atoms: N_1  and  CA_2
REMARK    2  A    between atoms: CA_2  and  C_3
REMARK    3  A    between atoms: CA_2  and  C_6
REMARK    4  A    between atoms: C_3  and  OXT_5
REMARK    5  A    between atoms: N_9  and  O_10
REMARK    6  A    between atoms: C_11  and  C_12
REMARK    7  A    between atoms: C_12  and  C_13
REMARK                            x       y       z     vdW  Elec       q    Type
REMARK                         _______ _______ _______ _____ _____    ______ ____
ROOT
ATOM      1  C   UNL     1       2.247   3.625  19.624  0.00  0.00    +0.000 A 
ATOM      2  C   UNL     1       1.674   4.123  20.828  0.00  0.00    +0.000 A 
ATOM      3  N   UNL     1       1.671   5.456  20.883  0.00  0.00    +0.000 NA
ATOM      4  N   UNL     1       2.258   5.802  19.749  0.00  0.00    +0.000 N 
ATOM      5  C   UNL     1       2.589   4.776  18.921  0.00  0.00    +0.000 A 
ENDROOT
BRANCH   4   6
ATOM      6  O   UNL     1       2.457   7.138  19.543  0.00  0.00    +0.000 OA
ATOM      7  H   UNL     1       3.368   7.136  19.885  0.00  0.00    +0.000 HD
ENDBRANCH   4   6
BRANCH   1   8
ATOM      8  CA  UNL     1       2.449   2.196  19.234  0.00  0.00    +0.000 C 
BRANCH   8   9
ATOM      9  N   UNL     1       1.916   2.022  17.869  0.00  0.00    +0.000 NA
ATOM     10  H1  UNL     1       2.418   1.244  17.438  0.00  0.00    +0.000 HD
ATOM     11  H2  UNL     1       2.210   2.827  17.310  0.00  0.00    +0.000 HD
ENDBRANCH   8   9
BRANCH   8  12
ATOM     12  C   UNL     1       3.931   1.770  19.302  0.00  0.00    +0.000 C 
ATOM     13  O   UNL     1       4.747   2.255  20.077  0.00  0.00    +0.000 OA
BRANCH  12  14
ATOM     14  OXT UNL     1       4.284   0.827  18.393  0.00  0.00    +0.000 OA
ATOM     15  HXT UNL     1       3.582   0.617  17.747  0.00  0.00    +0.000 HD
ENDBRANCH  12  14
ENDBRANCH   8  12
ENDBRANCH   1   8
BRANCH   5  16
ATOM     16  C   UNL     1       3.192   5.017  17.577  0.00  0.00    +0.000 C 
BRANCH  16  17
ATOM     17  C   UNL     1       4.689   4.821  17.478  0.00  0.00    +0.000 A 
ATOM     18  C   UNL     1       5.231   4.318  16.283  0.00  0.00    +0.000 A 
ATOM     19  C   UNL     1       6.613   4.228  16.107  0.00  0.00    +0.000 A 
ATOM     20  C   UNL     1       7.473   4.640  17.122  0.00  0.00    +0.000 A 
ATOM     21  C   UNL     1       6.951   5.135  18.315  0.00  0.00    +0.000 A 
ATOM     22  C   UNL     1       5.569   5.231  18.490  0.00  0.00    +0.000 A 
ENDBRANCH  16  17
ENDBRANCH   5  16
TORSDOF 7
ENDMDL
MODEL 5
REMARK VINA RESULT:      -6.9      1.245      1.905
REMARK  Name = 
REMARK  7 active torsions:
REMARK  status: ('A' for Active; 'I' for Inactive)
REMARK    1  A    between atoms: N_1  and  CA_2
REMARK    2  A    between atoms: CA_2  and  C_3
REMARK    3  A    between atoms: CA_2  and  C_6
REMARK    4  A    between atoms: C_3  and  OXT_5
REMARK    5  A    between atoms: N_9  and  O_10
REMARK    6  A    between atoms: C_11  and  C_12
REMARK    7  A    between atoms: C_12  and  C_13
REMARK                            x       y       z     vdW  Elec       q    Type
REMARK                         _______ _______ _______ _____ _____    ______ ____
ROOT
ATOM      1  C   UNL     1       6.492   5.890  17.061  0.00  0.00    +0.000 A 
ATOM      2  C   UNL     1       7.465   6.906  17.277  0.00  0.00    +0.000 A 
ATOM      3  N   UNL     1       7.998   6.856  18.499  0.00  0.00    +0.000 NA
ATOM      4  N   UNL     1       7.355   5.847  19.063  0.00  0.00    +0.000 N 
ATOM      5  C   UNL     1       6.478   5.187  18.262  0.00  0.00    +0.000 A 
ENDROOT
BRANCH   4   6
ATOM      6  O   UNL     1       7.651   5.585  20.371  0.00  0.00    +0.000 OA
ATOM      7  H   UNL     1       8.612   5.544  20.229  0.00  0.00    +0.000 HD
ENDBRANCH   4   6
BRANCH   1   8
ATOM      8  CA  UNL     1       5.669   5.661  15.834  0.00  0.00    +0.000 C 
BRANCH   8   9
ATOM      9  N   UNL     1       5.266   6.980  15.311  0.00  0.00    +0.000 NA
ATOM     10  H1  UNL     1       4.939   7.539  16.100  0.00  0.00    +0.000 HD
ATOM     11  H2  UNL     1       4.419   6.852  14.750  0.00  0.00    +0.000 HD
ENDBRANCH   8   9
BRANCH   8  12
ATOM     12  C   UNL     1       6.427   4.854  14.759  0.00  0.00    +0.000 C 
ATOM     13  O   UNL     1       6.026   3.794  14.291  0.00  0.00    +0.000 OA
BRANCH  12  14
ATOM     14  OXT UNL     1       7.615   5.393  14.388  0.00  0.00    +0.000 OA
ATOM     15  HXT UNL     1       7.583   6.357  14.239  0.00  0.00    +0.000 HD
ENDBRANCH  12  14
ENDBRANCH   8  12
ENDBRANCH   1   8
BRANCH   5  16
ATOM     16  C   UNL     1       5.733   3.984  18.739  0.00  0.00    +0.000 C 
BRANCH  16  17
ATOM     17  C   UNL     1       4.244   3.976  18.469  0.00  0.00    +0.000 A 
ATOM     18  C   UNL     1       3.695   2.921  17.721  0.00  0.00    +0.000 A 
ATOM     19  C   UNL     1       2.314   2.814  17.545  0.00  0.00    +0.000 A 
ATOM     20  C   UNL     1       1.463   3.757  18.114  0.00  0.00    +0.000 A 
ATOM     21  C   UNL     1       1.993   4.813  18.853  0.00  0.00    +0.000 A 
ATOM     22  C   UNL     1       3.374   4.919  19.035  0.00  0.00    +0.000 A 
ENDBRANCH  16  17
ENDBRANCH   5  16
TORSDOF 7
ENDMDL
MODEL 6
REMARK VINA RESULT:      -6.9      3.581      6.036
REMARK  Name = 
REMARK  7 active torsions:
REMARK  status: ('A' for Active; 'I' for Inactive)
REMARK    1  A    between atoms: N_1  and  CA_2
REMARK    2  A    between atoms: CA_2  and  C_3
REMARK    3  A    between atoms: CA_2  and  C_6
REMARK    4  A    between atoms: C_3  and  OXT_5
REMARK    5  A    between atoms: N_9  and  O_10
REMARK    6  A    between atoms: C_11  and  C_12
REMARK    7  A    between atoms: C_12  and  C_13
REMARK                            x       y       z     vdW  Elec       q    Type
REMARK                         _______ _______ _______ _____ _____    ______ ____
ROOT
ATOM      1  C   UNL     1       2.462   3.043  19.781  0.00  0.00    +0.000 A 
ATOM      2  C   UNL     1       1.389   2.172  19.438  0.00  0.00    +0.000 A 
ATOM      3  N   UNL     1       0.730   2.572  18.349  0.00  0.00    +0.000 NA
ATOM      4  N   UNL     1       1.352   3.693  18.021  0.00  0.00    +0.000 N 
ATOM      5  C   UNL     1       2.422   4.020  18.792  0.00  0.00    +0.000 A 
ENDROOT
BRANCH   4   6
ATOM      6  O   UNL     1       0.852   4.382  16.952  0.00  0.00    +0.000 OA
ATOM      7  H   UNL     1       1.694   4.820  16.739  0.00  0.00    +0.000 HD
ENDBRANCH   4   6
BRANCH   1   8
ATOM      8  CA  UNL     1       3.388   2.930  20.949  0.00  0.00    +0.000 C 
BRANCH   8   9
ATOM      9  N   UNL     1       2.599   2.466  22.106  0.00  0.00    +0.000 NA
ATOM     10  H1  UNL     1       2.828   1.483  22.262  0.00  0.00    +0.000 HD
ATOM     11  H2  UNL     1       1.615   2.435  21.826  0.00  0.00    +0.000 HD
ENDBRANCH   8   9
BRANCH   8  12
ATOM     12  C   UNL     1       4.571   1.978  20.675  0.00  0.00    +0.000 C 
ATOM     13  O   UNL     1       5.248   1.458  21.554  0.00  0.00    +0.000 OA
BRANCH  12  14
ATOM     14  OXT UNL     1       4.839   1.785  19.359  0.00  0.00    +0.000 OA
ATOM     15  HXT UNL     1       4.172   1.243  18.895  0.00  0.00    +0.000 HD
ENDBRANCH  12  14
ENDBRANCH   8  12
ENDBRANCH   1   8
BRANCH   5  16
ATOM     16  C   UNL     1       3.264   5.218  18.498  0.00  0.00    +0.000 C 
BRANCH  16  17
ATOM     17  C   UNL     1       4.674   4.936  18.026  0.00  0.00    +0.000 A 
ATOM     18  C   UNL     1       4.867   4.418  16.734  0.00  0.00    +0.000 A 
ATOM     19  C   UNL     1       6.153   4.250  16.217  0.00  0.00    +0.000 A 
ATOM     20  C   UNL     1       7.263   4.599  16.980  0.00  0.00    +0.000 A 
ATOM     21  C   UNL     1       7.088   5.109  18.265  0.00  0.00    +0.000 A 
ATOM     22  C   UNL     1       5.802   5.283  18.783  0.00  0.00    +0.000 A 
ENDBRANCH  16  17
ENDBRANCH   5  16
TORSDOF 7
ENDMDL
MODEL 7
REMARK VINA RESULT:      -6.9      3.016      5.930
REMARK  Name = 
REMARK  7 active torsions:
REMARK  status: ('A' for Active; 'I' for Inactive)
REMARK    1  A    between atoms: N_1  and  CA_2
REMARK    2  A    between atoms: CA_2  and  C_3
REMARK    3  A    between atoms: CA_2  and  C_6
REMARK    4  A    between atoms: C_3  and  OXT_5
REMARK    5  A    between atoms: N_9  and  O_10
REMARK    6  A    between atoms: C_11  and  C_12
REMARK    7  A    between atoms: C_12  and  C_13
REMARK                            x       y       z     vdW  Elec       q    Type
REMARK                         _______ _______ _______ _____ _____    ______ ____
ROOT
ATOM      1  C   UNL     1       2.574   3.302  18.902  0.00  0.00    +0.000 A 
ATOM      2  C   UNL     1       2.875   1.931  18.661  0.00  0.00    +0.000 A 
ATOM      3  N   UNL     1       3.857   1.770  17.771  0.00  0.00    +0.000 NA
ATOM      4  N   UNL     1       4.155   3.013  17.429  0.00  0.00    +0.000 N 
ATOM      5  C   UNL     1       3.473   3.985  18.090  0.00  0.00    +0.000 A 
ENDROOT
BRANCH   4   6
ATOM      6  O   UNL     1       5.110   3.172  16.465  0.00  0.00    +0.000 OA
ATOM      7  H   UNL     1       5.294   4.101  16.688  0.00  0.00    +0.000 HD
ENDBRANCH   4   6
BRANCH   1   8
ATOM      8  CA  UNL     1       1.518   3.857  19.803  0.00  0.00    +0.000 C 
BRANCH   8   9
ATOM      9  N   UNL     1       0.445   2.851  19.912  0.00  0.00    +0.000 NA
ATOM     10  H1  UNL     1      -0.357   3.300  20.358  0.00  0.00    +0.000 HD
ATOM     11  H2  UNL     1       0.734   2.153  20.603  0.00  0.00    +0.000 HD
ENDBRANCH   8   9
BRANCH   8  12
ATOM     12  C   UNL     1       2.067   4.226  21.197  0.00  0.00    +0.000 C 
ATOM     13  O   UNL     1       2.155   3.434  22.129  0.00  0.00    +0.000 OA
BRANCH  12  14
ATOM     14  OXT UNL     1       2.416   5.530  21.334  0.00  0.00    +0.000 OA
ATOM     15  HXT UNL     1       2.388   5.852  22.256  0.00  0.00    +0.000 HD
ENDBRANCH  12  14
ENDBRANCH   8  12
ENDBRANCH   1   8
BRANCH   5  16
ATOM     16  C   UNL     1       3.754   5.434  17.862  0.00  0.00    +0.000 C 
BRANCH  16  17
ATOM     17  C   UNL     1       5.176   5.881  18.121  0.00  0.00    +0.000 A 
ATOM     18  C   UNL     1       5.874   5.330  19.209  0.00  0.00    +0.000 A 
ATOM     19  C   UNL     1       7.222   5.628  19.419  0.00  0.00    +0.000 A 
ATOM     20  C   UNL     1       7.892   6.479  18.543  0.00  0.00    +0.000 A 
ATOM     21  C   UNL     1       7.212   7.037  17.463  0.00  0.00    +0.000 A 
ATOM     22  C   UNL     1       5.865   6.736  17.249  0.00  0.00    +0.000 A 
ENDBRANCH  16  17
ENDBRANCH   5  16
TORSDOF 7
ENDMDL
MODEL 8
REMARK VINA RESULT:      -6.8      3.398      5.294
REMARK  Name = 
REMARK  7 active torsions:
REMARK  status: ('A' for Active; 'I' for Inactive)
REMARK    1  A    between atoms: N_1  and  CA_2
REMARK    2  A    between atoms: CA_2  and  C_3
REMARK    3  A    between atoms: CA_2  and  C_6
REMARK    4  A    between atoms: C_3  and  OXT_5
REMARK    5  A    between atoms: N_9  and  O_10
REMARK    6  A    between atoms: C_11  and  C_12
REMARK    7  A    between atoms: C_12  and  C_13
REMARK                            x       y       z     vdW  Elec       q    Type
REMARK                         _______ _______ _______ _____ _____    ______ ____
ROOT
ATOM      1  C   UNL     1       2.294   3.556  19.667  0.00  0.00    +0.000 A 
ATOM      2  C   UNL     1       1.745   3.927  20.927  0.00  0.00    +0.000 A 
ATOM      3  N   UNL     1       1.718   5.249  21.106  0.00  0.00    +0.000 NA
ATOM      4  N   UNL     1       2.267   5.711  19.995  0.00  0.00    +0.000 N 
ATOM      5  C   UNL     1       2.594   4.774  19.066  0.00  0.00    +0.000 A 
ENDROOT
BRANCH   4   6
ATOM      6  O   UNL     1       2.434   7.064  19.909  0.00  0.00    +0.000 OA
ATOM      7  H   UNL     1       2.521   7.072  18.940  0.00  0.00    +0.000 HD
ENDBRANCH   4   6
BRANCH   1   8
ATOM      8  CA  UNL     1       2.512   2.173  19.141  0.00  0.00    +0.000 C 
BRANCH   8   9
ATOM      9  N   UNL     1       2.026   2.140  17.749  0.00  0.00    +0.000 NA
ATOM     10  H1  UNL     1       1.566   3.032  17.560  0.00  0.00    +0.000 HD
ATOM     11  H2  UNL     1       1.257   1.466  17.699  0.00  0.00    +0.000 HD
ENDBRANCH   8   9
BRANCH   8  12
ATOM     12  C   UNL     1       3.992   1.741  19.215  0.00  0.00    +0.000 C 
ATOM     13  O   UNL     1       4.822   2.266  19.949  0.00  0.00    +0.000 OA
BRANCH  12  14
ATOM     14  OXT UNL     1       4.326   0.741  18.361  0.00  0.00    +0.000 OA
ATOM     15  HXT UNL     1       3.628   0.525  17.713  0.00  0.00    +0.000 HD
ENDBRANCH  12  14
ENDBRANCH   8  12
ENDBRANCH   1   8
BRANCH   5  16
ATOM     16  C   UNL     1       3.154   5.151  17.735  0.00  0.00    +0.000 C 
BRANCH  16  17
ATOM     17  C   UNL     1       4.658   5.055  17.598  0.00  0.00    +0.000 A 
ATOM     18  C   UNL     1       5.465   5.447  18.679  0.00  0.00    +0.000 A 
ATOM     19  C   UNL     1       6.849   5.269  18.638  0.00  0.00    +0.000 A 
ATOM     20  C   UNL     1       7.446   4.695  17.519  0.00  0.00    +0.000 A 
ATOM     21  C   UNL     1       6.660   4.306  16.437  0.00  0.00    +0.000 A 
ATOM     22  C   UNL     1       5.274   4.479  16.477  0.00  0.00    +0.000 A 
ENDBRANCH  16  17
ENDBRANCH   5  16
TORSDOF 7
ENDMDL
MODEL 9
REMARK VINA RESULT:      -6.8      1.112      1.775
REMARK  Name = 
REMARK  7 active torsions:
REMARK  status: ('A' for Active; 'I' for Inactive)
REMARK    1  A    between atoms: N_1  and  CA_2
REMARK    2  A    between atoms: CA_2  and  C_3
REMARK    3  A    between atoms: CA_2  and  C_6
REMARK    4  A    between atoms: C_3  and  OXT_5
REMARK    5  A    between atoms: N_9  and  O_10
REMARK    6  A    between atoms: C_11  and  C_12
REMARK    7  A    between atoms: C_12  and  C_13
REMARK                            x       y       z     vdW  Elec       q    Type
REMARK                         _______ _______ _______ _____ _____    ______ ____
ROOT
ATOM      1  C   UNL     1       5.803   4.708  16.554  0.00  0.00    +0.000 A 
ATOM      2  C   UNL     1       6.982   4.913  17.325  0.00  0.00    +0.000 A 
ATOM      3  N   UNL     1       6.913   4.346  18.530  0.00  0.00    +0.000 NA
ATOM      4  N   UNL     1       5.701   3.815  18.540  0.00  0.00    +0.000 N 
ATOM      5  C   UNL     1       4.993   3.943  17.387  0.00  0.00    +0.000 A 
ENDROOT
BRANCH   4   6
ATOM      6  O   UNL     1       5.309   3.201  19.696  0.00  0.00    +0.000 OA
ATOM      7  H   UNL     1       6.214   3.012  19.997  0.00  0.00    +0.000 HD
ENDBRANCH   4   6
BRANCH   1   8
ATOM      8  CA  UNL     1       5.511   5.223  15.181  0.00  0.00    +0.000 C 
BRANCH   8   9
ATOM      9  N   UNL     1       5.447   6.695  15.256  0.00  0.00    +0.000 NA
ATOM     10  H1  UNL     1       4.494   6.950  15.519  0.00  0.00    +0.000 HD
ATOM     11  H2  UNL     1       5.533   7.064  14.305  0.00  0.00    +0.000 HD
ENDBRANCH   8   9
BRANCH   8  12
ATOM     12  C   UNL     1       6.563   4.772  14.146  0.00  0.00    +0.000 C 
ATOM     13  O   UNL     1       6.436   3.789  13.426  0.00  0.00    +0.000 OA
BRANCH  12  14
ATOM     14  OXT UNL     1       7.683   5.537  14.118  0.00  0.00    +0.000 OA
ATOM     15  HXT UNL     1       7.954   5.808  13.219  0.00  0.00    +0.000 HD
ENDBRANCH  12  14
ENDBRANCH   8  12
ENDBRANCH   1   8
BRANCH   5  16
ATOM     16  C   UNL     1       3.640   3.332  17.226  0.00  0.00    +0.000 C 
BRANCH  16  17
ATOM     17  C   UNL     1       2.628   3.672  18.298  0.00  0.00    +0.000 A 
ATOM     18  C   UNL     1       1.856   2.639  18.857  0.00  0.00    +0.000 A 
ATOM     19  C   UNL     1       0.993   2.889  19.925  0.00  0.00    +0.000 A 
ATOM     20  C   UNL     1       0.890   4.173  20.453  0.00  0.00    +0.000 A 
ATOM     21  C   UNL     1       1.645   5.210  19.906  0.00  0.00    +0.000 A 
ATOM     22  C   UNL     1       2.513   4.960  18.841  0.00  0.00    +0.000 A 
ENDBRANCH  16  17
ENDBRANCH   5  16
TORSDOF 7
ENDMDL
