MODEL 1
REMARK VINA RESULT:      -8.8      0.000      0.000
REMARK  Name = 
REMARK  3 active torsions:
REMARK  status: ('A' for Active; 'I' for Inactive)
REMARK    1  A    between atoms: N_6  and  C_7
REMARK    2  A    between atoms: C_7  and  C_8
REMARK    3  A    between atoms: C_7  and  C_14
REMARK                            x       y       z     vdW  Elec       q    Type
REMARK                         _______ _______ _______ _____ _____    ______ ____
ROOT
ATOM      1  O   UNL     1       2.382   6.212  20.291  0.00  0.00    +0.000 OA
ATOM      2  C   UNL     1       2.941   5.137  20.117  0.00  0.00    +0.000 C 
ATOM      3  N   UNL     1       4.023   4.903  19.263  0.00  0.00    +0.000 N 
ATOM      4  C   UNL     1       4.400   3.586  18.719  0.00  0.00    +0.000 C 
ATOM      5  C   UNL     1       4.039   3.491  17.219  0.00  0.00    +0.000 C 
ATOM      6  N   UNL     1       4.619   4.575  16.380  0.00  0.00    +0.000 NA
ATOM      7  C   UNL     1       4.176   5.865  16.970  0.00  0.00    +0.000 C 
ATOM      8  C   UNL     1       4.509   6.040  18.468  0.00  0.00    +0.000 C 
ATOM      9  N   UNL     1       2.387   3.998  20.715  0.00  0.00    +0.000 N 
ATOM     10  C   UNL     1       1.057   3.673  20.742  0.00  0.00    +0.000 A 
ATOM     11  N   UNL     1       0.881   2.529  21.361  0.00  0.00    +0.000 NA
ATOM     12  C   UNL     1       2.145   2.202  21.755  0.00  0.00    +0.000 A 
ATOM     13  N   UNL     1       3.107   3.048  21.377  0.00  0.00    +0.000 NA
ENDROOT
BRANCH   6  14
ATOM     14  C   UNL     1       6.107   4.450  16.285  0.00  0.00    +0.000 C 
BRANCH  14  15
ATOM     15  C   UNL     1       6.567   4.380  14.820  0.00  0.00    +0.000 A 
ATOM     16  C   UNL     1       7.606   5.185  14.329  0.00  0.00    +0.000 A 
ATOM     17  C   UNL     1       7.945   5.197  12.984  0.00  0.00    +0.000 A 
ATOM     18  C   UNL     1       7.219   4.431  12.077  0.00  0.00    +0.000 A 
ATOM     19  C   UNL     1       6.173   3.628  12.535  0.00  0.00    +0.000 A 
ATOM     20  C   UNL     1       5.858   3.594  13.892  0.00  0.00    +0.000 A 
ENDBRANCH  14  15
BRANCH  14  21
ATOM     21  C   UNL     1       6.889   5.499  17.084  0.00  0.00    +0.000 A 
ATOM     22  C   UNL     1       6.948   6.826  16.616  0.00  0.00    +0.000 A 
ATOM     23  C   UNL     1       7.620   7.816  17.339  0.00  0.00    +0.000 A 
ATOM     24  C   UNL     1       8.234   7.499  18.548  0.00  0.00    +0.000 A 
ATOM     25  C   UNL     1       8.203   6.189  19.018  0.00  0.00    +0.000 A 
ATOM     26  C   UNL     1       7.552   5.195  18.284  0.00  0.00    +0.000 A 
ENDBRANCH  14  21
ENDBRANCH   6  14
TORSDOF 3
ENDMDL
MODEL 2
REMARK VINA RESULT:      -8.7      3.392      5.321
REMARK  Name = 
REMARK  3 active torsions:
REMARK  status: ('A' for Active; 'I' for Inactive)
REMARK    1  A    between atoms: N_6  and  C_7
REMARK    2  A    between atoms: C_7  and  C_8
REMARK    3  A    between atoms: C_7  and  C_14
REMARK                            x       y       z     vdW  Elec       q    Type
REMARK                         _______ _______ _______ _____ _____    ______ ____
ROOT
ATOM      1  O   UNL     1       1.247   8.278  21.442  0.00  0.00    +0.000 OA
ATOM      2  C   UNL     1       1.291   8.458  20.232  0.00  0.00    +0.000 C 
ATOM      3  N   UNL     1       1.739   7.536  19.281  0.00  0.00    +0.000 N 
ATOM      4  C   UNL     1       2.209   7.881  17.927  0.00  0.00    +0.000 C 
ATOM      5  C   UNL     1       3.745   7.737  17.829  0.00  0.00    +0.000 C 
ATOM      6  N   UNL     1       4.260   6.397  18.223  0.00  0.00    +0.000 NA
ATOM      7  C   UNL     1       3.771   6.132  19.601  0.00  0.00    +0.000 C 
ATOM      8  C   UNL     1       2.241   6.248  19.778  0.00  0.00    +0.000 C 
ATOM      9  N   UNL     1       0.997   9.736  19.742  0.00  0.00    +0.000 N 
ATOM     10  C   UNL     1       1.448  10.919  20.265  0.00  0.00    +0.000 A 
ATOM     11  N   UNL     1       1.006  11.929  19.553  0.00  0.00    +0.000 NA
ATOM     12  C   UNL     1       0.226  11.319  18.616  0.00  0.00    +0.000 A 
ATOM     13  N   UNL     1       0.195   9.984  18.668  0.00  0.00    +0.000 NA
ENDROOT
BRANCH   6  14
ATOM     14  C   UNL     1       3.849   5.347  17.239  0.00  0.00    +0.000 C 
BRANCH  14  15
ATOM     15  C   UNL     1       5.007   4.985  16.296  0.00  0.00    +0.000 A 
ATOM     16  C   UNL     1       6.334   5.345  16.579  0.00  0.00    +0.000 A 
ATOM     17  C   UNL     1       7.361   5.111  15.674  0.00  0.00    +0.000 A 
ATOM     18  C   UNL     1       7.080   4.547  14.435  0.00  0.00    +0.000 A 
ATOM     19  C   UNL     1       5.767   4.189  14.121  0.00  0.00    +0.000 A 
ATOM     20  C   UNL     1       4.745   4.393  15.047  0.00  0.00    +0.000 A 
ENDBRANCH  14  15
BRANCH  14  21
ATOM     21  C   UNL     1       3.204   4.104  17.863  0.00  0.00    +0.000 A 
ATOM     22  C   UNL     1       4.009   3.178  18.555  0.00  0.00    +0.000 A 
ATOM     23  C   UNL     1       3.448   2.054  19.168  0.00  0.00    +0.000 A 
ATOM     24  C   UNL     1       2.074   1.842  19.110  0.00  0.00    +0.000 A 
ATOM     25  C   UNL     1       1.264   2.734  18.413  0.00  0.00    +0.000 A 
ATOM     26  C   UNL     1       1.827   3.845  17.780  0.00  0.00    +0.000 A 
ENDBRANCH  14  21
ENDBRANCH   6  14
TORSDOF 3
ENDMDL
MODEL 3
REMARK VINA RESULT:      -8.7      3.433      5.336
REMARK  Name = 
REMARK  3 active torsions:
REMARK  status: ('A' for Active; 'I' for Inactive)
REMARK    1  A    between atoms: N_6  and  C_7
REMARK    2  A    between atoms: C_7  and  C_8
REMARK    3  A    between atoms: C_7  and  C_14
REMARK                            x       y       z     vdW  Elec       q    Type
REMARK                         _______ _______ _______ _____ _____    ______ ____
ROOT
ATOM      1  O   UNL     1       1.218   8.314  21.504  0.00  0.00    +0.000 OA
ATOM      2  C   UNL     1       1.256   8.500  20.294  0.00  0.00    +0.000 C 
ATOM      3  N   UNL     1       1.712   7.589  19.337  0.00  0.00    +0.000 N 
ATOM      4  C   UNL     1       2.172   7.947  17.983  0.00  0.00    +0.000 C 
ATOM      5  C   UNL     1       3.709   7.825  17.878  0.00  0.00    +0.000 C 
ATOM      6  N   UNL     1       4.245   6.491  18.264  0.00  0.00    +0.000 NA
ATOM      7  C   UNL     1       3.765   6.213  19.643  0.00  0.00    +0.000 C 
ATOM      8  C   UNL     1       2.235   6.306  19.827  0.00  0.00    +0.000 C 
ATOM      9  N   UNL     1       0.941   9.776  19.811  0.00  0.00    +0.000 N 
ATOM     10  C   UNL     1       1.377  10.963  20.338  0.00  0.00    +0.000 A 
ATOM     11  N   UNL     1       0.917  11.970  19.633  0.00  0.00    +0.000 NA
ATOM     12  C   UNL     1       0.143  11.353  18.695  0.00  0.00    +0.000 A 
ATOM     13  N   UNL     1       0.131  10.017  18.741  0.00  0.00    +0.000 NA
ENDROOT
BRANCH   6  14
ATOM     14  C   UNL     1       3.846   5.440  17.276  0.00  0.00    +0.000 C 
BRANCH  14  15
ATOM     15  C   UNL     1       4.960   5.191  16.248  0.00  0.00    +0.000 A 
ATOM     16  C   UNL     1       4.737   4.450  15.078  0.00  0.00    +0.000 A 
ATOM     17  C   UNL     1       5.771   4.136  14.207  0.00  0.00    +0.000 A 
ATOM     18  C   UNL     1       7.074   4.520  14.507  0.00  0.00    +0.000 A 
ATOM     19  C   UNL     1       7.327   5.249  15.670  0.00  0.00    +0.000 A 
ATOM     20  C   UNL     1       6.281   5.592  16.524  0.00  0.00    +0.000 A 
ENDBRANCH  14  15
BRANCH  14  21
ATOM     21  C   UNL     1       3.337   4.136  17.902  0.00  0.00    +0.000 A 
ATOM     22  C   UNL     1       1.973   3.801  17.798  0.00  0.00    +0.000 A 
ATOM     23  C   UNL     1       1.483   2.603  18.324  0.00  0.00    +0.000 A 
ATOM     24  C   UNL     1       2.349   1.713  18.952  0.00  0.00    +0.000 A 
ATOM     25  C   UNL     1       3.698   2.034  19.084  0.00  0.00    +0.000 A 
ATOM     26  C   UNL     1       4.184   3.242  18.579  0.00  0.00    +0.000 A 
ENDBRANCH  14  21
ENDBRANCH   6  14
TORSDOF 3
ENDMDL
MODEL 4
REMARK VINA RESULT:      -8.5      9.188     12.005
REMARK  Name = 
REMARK  3 active torsions:
REMARK  status: ('A' for Active; 'I' for Inactive)
REMARK    1  A    between atoms: N_6  and  C_7
REMARK    2  A    between atoms: C_7  and  C_8
REMARK    3  A    between atoms: C_7  and  C_14
REMARK                            x       y       z     vdW  Elec       q    Type
REMARK                         _______ _______ _______ _____ _____    ______ ____
ROOT
ATOM      1  O   UNL     1       3.801  15.098  19.249  0.00  0.00    +0.000 OA
ATOM      2  C   UNL     1       2.629  15.387  19.042  0.00  0.00    +0.000 C 
ATOM      3  N   UNL     1       1.516  14.661  19.476  0.00  0.00    +0.000 N 
ATOM      4  C   UNL     1       0.172  14.738  18.877  0.00  0.00    +0.000 C 
ATOM      5  C   UNL     1      -0.136  13.463  18.059  0.00  0.00    +0.000 C 
ATOM      6  N   UNL     1       0.010  12.195  18.825  0.00  0.00    +0.000 NA
ATOM      7  C   UNL     1       1.391  12.175  19.373  0.00  0.00    +0.000 C 
ATOM      8  C   UNL     1       1.772  13.415  20.212  0.00  0.00    +0.000 C 
ATOM      9  N   UNL     1       2.353  16.462  18.189  0.00  0.00    +0.000 N 
ATOM     10  C   UNL     1       2.967  16.714  16.991  0.00  0.00    +0.000 A 
ATOM     11  N   UNL     1       2.456  17.787  16.434  0.00  0.00    +0.000 NA
ATOM     12  C   UNL     1       1.550  18.207  17.363  0.00  0.00    +0.000 A 
ATOM     13  N   UNL     1       1.429  17.432  18.445  0.00  0.00    +0.000 NA
ENDROOT
BRANCH   6  14
ATOM     14  C   UNL     1      -1.045  12.073  19.879  0.00  0.00    +0.000 C 
BRANCH  14  15
ATOM     15  C   UNL     1      -2.441  11.927  19.254  0.00  0.00    +0.000 A 
ATOM     16  C   UNL     1      -3.584  12.476  19.855  0.00  0.00    +0.000 A 
ATOM     17  C   UNL     1      -4.855  12.250  19.345  0.00  0.00    +0.000 A 
ATOM     18  C   UNL     1      -5.023  11.426  18.238  0.00  0.00    +0.000 A 
ATOM     19  C   UNL     1      -3.905  10.857  17.625  0.00  0.00    +0.000 A 
ATOM     20  C   UNL     1      -2.628  11.115  18.120  0.00  0.00    +0.000 A 
ENDBRANCH  14  15
BRANCH  14  21
ATOM     21  C   UNL     1      -0.771  10.996  20.935  0.00  0.00    +0.000 A 
ATOM     22  C   UNL     1      -0.518   9.671  20.527  0.00  0.00    +0.000 A 
ATOM     23  C   UNL     1      -0.228   8.673  21.461  0.00  0.00    +0.000 A 
ATOM     24  C   UNL     1      -0.173   8.983  22.817  0.00  0.00    +0.000 A 
ATOM     25  C   UNL     1      -0.439  10.281  23.242  0.00  0.00    +0.000 A 
ATOM     26  C   UNL     1      -0.753  11.275  22.311  0.00  0.00    +0.000 A 
ENDBRANCH  14  21
ENDBRANCH   6  14
TORSDOF 3
ENDMDL
MODEL 5
REMARK VINA RESULT:      -8.4      9.051     11.482
REMARK  Name = 
REMARK  3 active torsions:
REMARK  status: ('A' for Active; 'I' for Inactive)
REMARK    1  A    between atoms: N_6  and  C_7
REMARK    2  A    between atoms: C_7  and  C_8
REMARK    3  A    between atoms: C_7  and  C_14
REMARK                            x       y       z     vdW  Elec       q    Type
REMARK                         _______ _______ _______ _____ _____    ______ ____
ROOT
ATOM      1  O   UNL     1       3.694  15.914  18.443  0.00  0.00    +0.000 OA
ATOM      2  C   UNL     1       3.633  15.124  19.377  0.00  0.00    +0.000 C 
ATOM      3  N   UNL     1       2.829  13.981  19.434  0.00  0.00    +0.000 N 
ATOM      4  C   UNL     1       2.418  13.300  20.674  0.00  0.00    +0.000 C 
ATOM      5  C   UNL     1       0.925  13.565  20.975  0.00  0.00    +0.000 C 
ATOM      6  N   UNL     1       0.004  13.203  19.863  0.00  0.00    +0.000 NA
ATOM      7  C   UNL     1       0.462  13.946  18.660  0.00  0.00    +0.000 C 
ATOM      8  C   UNL     1       1.945  13.724  18.288  0.00  0.00    +0.000 C 
ATOM      9  N   UNL     1       4.320  15.438  20.555  0.00  0.00    +0.000 N 
ATOM     10  C   UNL     1       4.346  16.664  21.166  0.00  0.00    +0.000 A 
ATOM     11  N   UNL     1       5.063  16.609  22.264  0.00  0.00    +0.000 NA
ATOM     12  C   UNL     1       5.516  15.323  22.266  0.00  0.00    +0.000 A 
ATOM     13  N   UNL     1       5.083  14.556  21.261  0.00  0.00    +0.000 NA
ENDROOT
BRANCH   6  14
ATOM     14  C   UNL     1      -0.045  11.722  19.659  0.00  0.00    +0.000 C 
BRANCH  14  15
ATOM     15  C   UNL     1       0.011  10.974  21.000  0.00  0.00    +0.000 A 
ATOM     16  C   UNL     1       0.911   9.921  21.225  0.00  0.00    +0.000 A 
ATOM     17  C   UNL     1       0.886   9.179  22.398  0.00  0.00    +0.000 A 
ATOM     18  C   UNL     1      -0.077   9.442  23.366  0.00  0.00    +0.000 A 
ATOM     19  C   UNL     1      -0.992  10.477  23.165  0.00  0.00    +0.000 A 
ATOM     20  C   UNL     1      -0.940  11.242  22.002  0.00  0.00    +0.000 A 
ENDBRANCH  14  15
BRANCH  14  21
ATOM     21  C   UNL     1      -1.202  11.236  18.777  0.00  0.00    +0.000 A 
ATOM     22  C   UNL     1      -2.467  11.843  18.896  0.00  0.00    +0.000 A 
ATOM     23  C   UNL     1      -3.533  11.451  18.081  0.00  0.00    +0.000 A 
ATOM     24  C   UNL     1      -3.350  10.454  17.127  0.00  0.00    +0.000 A 
ATOM     25  C   UNL     1      -2.112   9.828  17.008  0.00  0.00    +0.000 A 
ATOM     26  C   UNL     1      -1.053  10.203  17.838  0.00  0.00    +0.000 A 
ENDBRANCH  14  21
ENDBRANCH   6  14
TORSDOF 3
ENDMDL
MODEL 6
REMARK VINA RESULT:      -8.1      8.772     10.990
REMARK  Name = 
REMARK  3 active torsions:
REMARK  status: ('A' for Active; 'I' for Inactive)
REMARK    1  A    between atoms: N_6  and  C_7
REMARK    2  A    between atoms: C_7  and  C_8
REMARK    3  A    between atoms: C_7  and  C_14
REMARK                            x       y       z     vdW  Elec       q    Type
REMARK                         _______ _______ _______ _____ _____    ______ ____
ROOT
ATOM      1  O   UNL     1       3.562  15.452  20.297  0.00  0.00    +0.000 OA
ATOM      2  C   UNL     1       2.341  15.389  20.371  0.00  0.00    +0.000 C 
ATOM      3  N   UNL     1       1.573  14.224  20.281  0.00  0.00    +0.000 N 
ATOM      4  C   UNL     1       0.143  14.182  19.926  0.00  0.00    +0.000 C 
ATOM      5  C   UNL     1      -0.048  13.634  18.493  0.00  0.00    +0.000 C 
ATOM      6  N   UNL     1       0.577  12.304  18.257  0.00  0.00    +0.000 NA
ATOM      7  C   UNL     1       2.015  12.432  18.609  0.00  0.00    +0.000 C 
ATOM      8  C   UNL     1       2.289  12.965  20.032  0.00  0.00    +0.000 C 
ATOM      9  N   UNL     1       1.618  16.587  20.421  0.00  0.00    +0.000 N 
ATOM     10  C   UNL     1       1.840  17.691  19.641  0.00  0.00    +0.000 A 
ATOM     11  N   UNL     1       0.969  18.631  19.926  0.00  0.00    +0.000 NA
ATOM     12  C   UNL     1       0.249  18.077  20.943  0.00  0.00    +0.000 A 
ATOM     13  N   UNL     1       0.585  16.828  21.277  0.00  0.00    +0.000 NA
ENDROOT
BRANCH   6  14
ATOM     14  C   UNL     1      -0.126  11.231  19.027  0.00  0.00    +0.000 C 
BRANCH  14  15
ATOM     15  C   UNL     1      -1.541  10.989  18.480  0.00  0.00    +0.000 A 
ATOM     16  C   UNL     1      -1.775  10.178  17.358  0.00  0.00    +0.000 A 
ATOM     17  C   UNL     1      -3.040  10.050  16.803  0.00  0.00    +0.000 A 
ATOM     18  C   UNL     1      -4.107  10.769  17.331  0.00  0.00    +0.000 A 
ATOM     19  C   UNL     1      -3.902  11.592  18.441  0.00  0.00    +0.000 A 
ATOM     20  C   UNL     1      -2.637  11.691  19.016  0.00  0.00    +0.000 A 
ENDBRANCH  14  15
BRANCH  14  21
ATOM     21  C   UNL     1       0.666   9.925  19.172  0.00  0.00    +0.000 A 
ATOM     22  C   UNL     1       1.322   9.383  18.050  0.00  0.00    +0.000 A 
ATOM     23  C   UNL     1       2.083   8.216  18.155  0.00  0.00    +0.000 A 
ATOM     24  C   UNL     1       2.212   7.578  19.385  0.00  0.00    +0.000 A 
ATOM     25  C   UNL     1       1.556   8.086  20.503  0.00  0.00    +0.000 A 
ATOM     26  C   UNL     1       0.776   9.240  20.393  0.00  0.00    +0.000 A 
ENDBRANCH  14  21
ENDBRANCH   6  14
TORSDOF 3
ENDMDL
MODEL 7
REMARK VINA RESULT:      -8.1     10.063     13.153
REMARK  Name = 
REMARK  3 active torsions:
REMARK  status: ('A' for Active; 'I' for Inactive)
REMARK    1  A    between atoms: N_6  and  C_7
REMARK    2  A    between atoms: C_7  and  C_8
REMARK    3  A    between atoms: C_7  and  C_14
REMARK                            x       y       z     vdW  Elec       q    Type
REMARK                         _______ _______ _______ _____ _____    ______ ____
ROOT
ATOM      1  O   UNL     1       0.192  18.077  20.667  0.00  0.00    +0.000 OA
ATOM      2  C   UNL     1       0.530  16.990  20.215  0.00  0.00    +0.000 C 
ATOM      3  N   UNL     1      -0.150  15.782  20.389  0.00  0.00    +0.000 N 
ATOM      4  C   UNL     1       0.454  14.445  20.245  0.00  0.00    +0.000 C 
ATOM      5  C   UNL     1       0.645  13.780  21.627  0.00  0.00    +0.000 C 
ATOM      6  N   UNL     1      -0.597  13.695  22.443  0.00  0.00    +0.000 NA
ATOM      7  C   UNL     1      -1.131  15.076  22.567  0.00  0.00    +0.000 C 
ATOM      8  C   UNL     1      -1.359  15.805  21.225  0.00  0.00    +0.000 C 
ATOM      9  N   UNL     1       1.771  16.897  19.572  0.00  0.00    +0.000 N 
ATOM     10  C   UNL     1       2.945  17.447  20.013  0.00  0.00    +0.000 A 
ATOM     11  N   UNL     1       3.923  17.151  19.189  0.00  0.00    +0.000 NA
ATOM     12  C   UNL     1       3.288  16.452  18.206  0.00  0.00    +0.000 A 
ATOM     13  N   UNL     1       1.980  16.249  18.391  0.00  0.00    +0.000 NA
ENDROOT
BRANCH   6  14
ATOM     14  C   UNL     1      -1.576  12.736  21.842  0.00  0.00    +0.000 C 
BRANCH  14  15
ATOM     15  C   UNL     1      -0.997  11.314  21.782  0.00  0.00    +0.000 A 
ATOM     16  C   UNL     1      -0.705  10.582  22.943  0.00  0.00    +0.000 A 
ATOM     17  C   UNL     1      -0.082   9.343  22.886  0.00  0.00    +0.000 A 
ATOM     18  C   UNL     1       0.309   8.818  21.659  0.00  0.00    +0.000 A 
ATOM     19  C   UNL     1       0.042   9.528  20.487  0.00  0.00    +0.000 A 
ATOM     20  C   UNL     1      -0.615  10.756  20.547  0.00  0.00    +0.000 A 
ENDBRANCH  14  15
BRANCH  14  21
ATOM     21  C   UNL     1      -2.971  12.763  22.478  0.00  0.00    +0.000 A 
ATOM     22  C   UNL     1      -3.102  12.582  23.869  0.00  0.00    +0.000 A 
ATOM     23  C   UNL     1      -4.354  12.639  24.487  0.00  0.00    +0.000 A 
ATOM     24  C   UNL     1      -5.494  12.889  23.729  0.00  0.00    +0.000 A 
ATOM     25  C   UNL     1      -5.388  13.051  22.350  0.00  0.00    +0.000 A 
ATOM     26  C   UNL     1      -4.139  12.971  21.728  0.00  0.00    +0.000 A 
ENDBRANCH  14  21
ENDBRANCH   6  14
TORSDOF 3
ENDMDL
MODEL 8
REMARK VINA RESULT:      -8.1      9.161     12.258
REMARK  Name = 
REMARK  3 active torsions:
REMARK  status: ('A' for Active; 'I' for Inactive)
REMARK    1  A    between atoms: N_6  and  C_7
REMARK    2  A    between atoms: C_7  and  C_8
REMARK    3  A    between atoms: C_7  and  C_14
REMARK                            x       y       z     vdW  Elec       q    Type
REMARK                         _______ _______ _______ _____ _____    ______ ____
ROOT
ATOM      1  O   UNL     1       1.599  17.159  18.340  0.00  0.00    +0.000 OA
ATOM      2  C   UNL     1       2.045  16.045  18.585  0.00  0.00    +0.000 C 
ATOM      3  N   UNL     1       1.291  14.889  18.807  0.00  0.00    +0.000 N 
ATOM      4  C   UNL     1       1.771  13.693  19.521  0.00  0.00    +0.000 C 
ATOM      5  C   UNL     1       1.121  13.594  20.921  0.00  0.00    +0.000 C 
ATOM      6  N   UNL     1      -0.367  13.619  20.907  0.00  0.00    +0.000 NA
ATOM      7  C   UNL     1      -0.774  14.861  20.199  0.00  0.00    +0.000 C 
ATOM      8  C   UNL     1      -0.172  15.027  18.786  0.00  0.00    +0.000 C 
ATOM      9  N   UNL     1       3.424  15.917  18.795  0.00  0.00    +0.000 N 
ATOM     10  C   UNL     1       4.201  16.754  19.551  0.00  0.00    +0.000 A 
ATOM     11  N   UNL     1       5.445  16.335  19.560  0.00  0.00    +0.000 NA
ATOM     12  C   UNL     1       5.403  15.248  18.737  0.00  0.00    +0.000 A 
ATOM     13  N   UNL     1       4.197  14.932  18.256  0.00  0.00    +0.000 NA
ENDROOT
BRANCH   6  14
ATOM     14  C   UNL     1      -0.925  12.376  20.288  0.00  0.00    +0.000 C 
BRANCH  14  15
ATOM     15  C   UNL     1      -0.446  11.121  21.034  0.00  0.00    +0.000 A 
ATOM     16  C   UNL     1       0.146  10.040  20.363  0.00  0.00    +0.000 A 
ATOM     17  C   UNL     1       0.477   8.865  21.024  0.00  0.00    +0.000 A 
ATOM     18  C   UNL     1       0.183   8.722  22.376  0.00  0.00    +0.000 A 
ATOM     19  C   UNL     1      -0.416   9.777  23.067  0.00  0.00    +0.000 A 
ATOM     20  C   UNL     1      -0.715  10.967  22.407  0.00  0.00    +0.000 A 
ENDBRANCH  14  15
BRANCH  14  21
ATOM     21  C   UNL     1      -2.446  12.386  20.094  0.00  0.00    +0.000 A 
ATOM     22  C   UNL     1      -2.994  11.913  18.886  0.00  0.00    +0.000 A 
ATOM     23  C   UNL     1      -4.377  11.873  18.690  0.00  0.00    +0.000 A 
ATOM     24  C   UNL     1      -5.236  12.294  19.702  0.00  0.00    +0.000 A 
ATOM     25  C   UNL     1      -4.713  12.785  20.895  0.00  0.00    +0.000 A 
ATOM     26  C   UNL     1      -3.330  12.847  21.082  0.00  0.00    +0.000 A 
ENDBRANCH  14  21
ENDBRANCH   6  14
TORSDOF 3
ENDMDL
MODEL 9
REMARK VINA RESULT:      -8.0      9.491     12.606
REMARK  Name = 
REMARK  3 active torsions:
REMARK  status: ('A' for Active; 'I' for Inactive)
REMARK    1  A    between atoms: N_6  and  C_7
REMARK    2  A    between atoms: C_7  and  C_8
REMARK    3  A    between atoms: C_7  and  C_14
REMARK                            x       y       z     vdW  Elec       q    Type
REMARK                         _______ _______ _______ _____ _____    ______ ____
ROOT
ATOM      1  O   UNL     1       0.937  17.433  18.939  0.00  0.00    +0.000 OA
ATOM      2  C   UNL     1       1.322  16.272  18.887  0.00  0.00    +0.000 C 
ATOM      3  N   UNL     1       0.562  15.141  19.197  0.00  0.00    +0.000 N 
ATOM      4  C   UNL     1       1.118  13.826  19.565  0.00  0.00    +0.000 C 
ATOM      5  C   UNL     1       0.932  13.558  21.077  0.00  0.00    +0.000 C 
ATOM      6  N   UNL     1      -0.475  13.669  21.549  0.00  0.00    +0.000 NA
ATOM      7  C   UNL     1      -0.955  15.023  21.169  0.00  0.00    +0.000 C 
ATOM      8  C   UNL     1      -0.812  15.363  19.670  0.00  0.00    +0.000 C 
ATOM      9  N   UNL     1       2.676  16.036  18.622  0.00  0.00    +0.000 N 
ATOM     10  C   UNL     1       3.732  16.705  19.181  0.00  0.00    +0.000 A 
ATOM     11  N   UNL     1       4.867  16.220  18.735  0.00  0.00    +0.000 NA
ATOM     12  C   UNL     1       4.459  15.272  17.843  0.00  0.00    +0.000 A 
ATOM     13  N   UNL     1       3.138  15.100  17.744  0.00  0.00    +0.000 NA
ENDROOT
BRANCH   6  14
ATOM     14  C   UNL     1      -1.321  12.565  20.997  0.00  0.00    +0.000 C 
BRANCH  14  15
ATOM     15  C   UNL     1      -0.785  11.189  21.419  0.00  0.00    +0.000 A 
ATOM     16  C   UNL     1      -0.695  10.809  22.767  0.00  0.00    +0.000 A 
ATOM     17  C   UNL     1      -0.110   9.609  23.148  0.00  0.00    +0.000 A 
ATOM     18  C   UNL     1       0.443   8.770  22.187  0.00  0.00    +0.000 A 
ATOM     19  C   UNL     1       0.378   9.126  20.839  0.00  0.00    +0.000 A 
ATOM     20  C   UNL     1      -0.241  10.316  20.459  0.00  0.00    +0.000 A 
ENDBRANCH  14  15
BRANCH  14  21
ATOM     21  C   UNL     1      -2.822  12.710  21.278  0.00  0.00    +0.000 A 
ATOM     22  C   UNL     1      -3.733  12.700  20.204  0.00  0.00    +0.000 A 
ATOM     23  C   UNL     1      -5.110  12.792  20.426  0.00  0.00    +0.000 A 
ATOM     24  C   UNL     1      -5.600  12.883  21.726  0.00  0.00    +0.000 A 
ATOM     25  C   UNL     1      -4.715  12.914  22.800  0.00  0.00    +0.000 A 
ATOM     26  C   UNL     1      -3.338  12.846  22.577  0.00  0.00    +0.000 A 
ENDBRANCH  14  21
ENDBRANCH   6  14
TORSDOF 3
ENDMDL
