MODEL 1
REMARK VINA RESULT:      -8.1      0.000      0.000
REMARK  Name = 
REMARK  9 active torsions:
REMARK  status: ('A' for Active; 'I' for Inactive)
REMARK    1  A    between atoms: C_2  and  C_3
REMARK    2  A    between atoms: C_3  and  N_4
REMARK    3  A    between atoms: N_4  and  C_21
REMARK    4  A    between atoms: C_5  and  C_7
REMARK    5  A    between atoms: C_7  and  N_8
REMARK    6  A    between atoms: C_9  and  C_10
REMARK    7  A    between atoms: C_10  and  O_12
REMARK    8  A    between atoms: O_12  and  C_13
REMARK    9  A    between atoms: C_17  and  C_18
REMARK                            x       y       z     vdW  Elec       q    Type
REMARK                         _______ _______ _______ _____ _____    ______ ____
ROOT
ATOM      1  C   UNL     1       4.459   4.939  17.826  0.00  0.00    +0.000 C 
ENDROOT
BRANCH   1   2
ATOM      2  N   UNL     1       5.663   4.923  16.992  0.00  0.00    +0.000 N 
ATOM      3  C   UNL     1       6.967   5.239  17.400  0.00  0.00    +0.000 A 
ATOM      4  C   UNL     1       7.826   5.049  16.313  0.00  0.00    +0.000 A 
ATOM      5  C   UNL     1       6.995   4.591  15.280  0.00  0.00    +0.000 A 
ATOM      6  O   UNL     1       7.125   4.184  13.987  0.00  0.00    +0.000 OA
ATOM      7  C   UNL     1       5.857   3.833  13.609  0.00  0.00    +0.000 A 
ATOM      8  C   UNL     1       5.683   3.300  12.241  0.00  0.00    +0.000 C 
ATOM      9  C   UNL     1       4.934   4.033  14.610  0.00  0.00    +0.000 A 
ATOM     10  C   UNL     1       5.714   4.514  15.684  0.00  0.00    +0.000 A 
BRANCH   3  11
ATOM     11  C   UNL     1       7.310   5.666  18.751  0.00  0.00    +0.000 C 
ATOM     12  O   UNL     1       6.888   5.152  19.780  0.00  0.00    +0.000 OA
BRANCH  11  13
ATOM     13  O   UNL     1       8.184   6.712  18.724  0.00  0.00    +0.000 OA
ATOM     14  C   UNL     1       7.737   7.799  17.911  0.00  0.00    +0.000 C 
ENDBRANCH  11  13
ENDBRANCH   3  11
ENDBRANCH   1   2
BRANCH   1  16
ATOM     15  N   UNL     1       2.689   6.405  18.843  0.00  0.00    +0.000 N 
ATOM     16  C   UNL     1       3.804   6.310  18.008  0.00  0.00    +0.000 C 
ATOM     17  O   UNL     1       4.282   7.301  17.447  0.00  0.00    +0.000 OA
BRANCH  15  18
ATOM     18  C   UNL     1       2.071   5.256  19.379  0.00  0.00    +0.000 A 
ATOM     19  C   UNL     1       2.202   4.955  20.737  0.00  0.00    +0.000 A 
ATOM     20  C   UNL     1       1.806   3.702  21.205  0.00  0.00    +0.000 A 
ATOM     21  C   UNL     1       1.273   2.761  20.320  0.00  0.00    +0.000 A 
ATOM     22  C   UNL     1       1.115   3.076  18.971  0.00  0.00    +0.000 A 
ATOM     23  C   UNL     1       1.512   4.323  18.499  0.00  0.00    +0.000 A 
ENDBRANCH  15  18
BRANCH  15  24
ATOM     24  C   UNL     1       2.159   7.709  19.235  0.00  0.00    +0.000 C 
BRANCH  24  26
ATOM     25  C   UNL     1       1.732   9.856  17.910  0.00  0.00    +0.000 C 
ATOM     26  C   UNL     1       1.640   8.530  18.085  0.00  0.00    +0.000 C 
ENDBRANCH  24  26
ENDBRANCH  15  24
ENDBRANCH   1  16
TORSDOF 7
ENDMDL
MODEL 2
REMARK VINA RESULT:      -8.0      0.630      1.132
REMARK  Name = 
REMARK  9 active torsions:
REMARK  status: ('A' for Active; 'I' for Inactive)
REMARK    1  A    between atoms: C_2  and  C_3
REMARK    2  A    between atoms: C_3  and  N_4
REMARK    3  A    between atoms: N_4  and  C_21
REMARK    4  A    between atoms: C_5  and  C_7
REMARK    5  A    between atoms: C_7  and  N_8
REMARK    6  A    between atoms: C_9  and  C_10
REMARK    7  A    between atoms: C_10  and  O_12
REMARK    8  A    between atoms: O_12  and  C_13
REMARK    9  A    between atoms: C_17  and  C_18
REMARK                            x       y       z     vdW  Elec       q    Type
REMARK                         _______ _______ _______ _____ _____    ______ ____
ROOT
ATOM      1  C   UNL     1       4.557   4.709  17.420  0.00  0.00    +0.000 C 
ENDROOT
BRANCH   1   2
ATOM      2  N   UNL     1       5.670   4.765  16.469  0.00  0.00    +0.000 N 
ATOM      3  C   UNL     1       6.991   5.147  16.750  0.00  0.00    +0.000 A 
ATOM      4  C   UNL     1       7.744   5.012  15.579  0.00  0.00    +0.000 A 
ATOM      5  C   UNL     1       6.839   4.518  14.628  0.00  0.00    +0.000 A 
ATOM      6  O   UNL     1       6.860   4.128  13.324  0.00  0.00    +0.000 OA
ATOM      7  C   UNL     1       5.580   3.713  13.070  0.00  0.00    +0.000 A 
ATOM      8  C   UNL     1       5.298   3.182  11.719  0.00  0.00    +0.000 C 
ATOM      9  C   UNL     1       4.754   3.855  14.160  0.00  0.00    +0.000 A 
ATOM     10  C   UNL     1       5.611   4.369  15.157  0.00  0.00    +0.000 A 
BRANCH   3  11
ATOM     11  C   UNL     1       7.444   5.581  18.065  0.00  0.00    +0.000 C 
ATOM     12  O   UNL     1       8.078   4.890  18.854  0.00  0.00    +0.000 OA
BRANCH  11  13
ATOM     13  O   UNL     1       7.084   6.874  18.302  0.00  0.00    +0.000 OA
ATOM     14  C   UNL     1       7.978   7.824  17.718  0.00  0.00    +0.000 C 
ENDBRANCH  11  13
ENDBRANCH   3  11
ENDBRANCH   1   2
BRANCH   1  16
ATOM     15  N   UNL     1       2.876   6.086  18.682  0.00  0.00    +0.000 N 
ATOM     16  C   UNL     1       3.855   6.042  17.687  0.00  0.00    +0.000 C 
ATOM     17  O   UNL     1       4.180   7.049  17.051  0.00  0.00    +0.000 OA
BRANCH  15  18
ATOM     18  C   UNL     1       2.418   4.912  19.317  0.00  0.00    +0.000 A 
ATOM     19  C   UNL     1       1.543   4.049  18.652  0.00  0.00    +0.000 A 
ATOM     20  C   UNL     1       0.903   3.036  19.366  0.00  0.00    +0.000 A 
ATOM     21  C   UNL     1       1.146   2.882  20.733  0.00  0.00    +0.000 A 
ATOM     22  C   UNL     1       2.043   3.726  21.387  0.00  0.00    +0.000 A 
ATOM     23  C   UNL     1       2.681   4.741  20.679  0.00  0.00    +0.000 A 
ENDBRANCH  15  18
BRANCH  15  24
ATOM     24  C   UNL     1       2.332   7.363  19.138  0.00  0.00    +0.000 C 
BRANCH  24  26
ATOM     25  C   UNL     1       1.841   9.509  17.832  0.00  0.00    +0.000 C 
ATOM     26  C   UNL     1       1.712   8.191  18.045  0.00  0.00    +0.000 C 
ENDBRANCH  24  26
ENDBRANCH  15  24
ENDBRANCH   1  16
TORSDOF 7
ENDMDL
MODEL 3
REMARK VINA RESULT:      -8.0      2.220      6.525
REMARK  Name = 
REMARK  9 active torsions:
REMARK  status: ('A' for Active; 'I' for Inactive)
REMARK    1  A    between atoms: C_2  and  C_3
REMARK    2  A    between atoms: C_3  and  N_4
REMARK    3  A    between atoms: N_4  and  C_21
REMARK    4  A    between atoms: C_5  and  C_7
REMARK    5  A    between atoms: C_7  and  N_8
REMARK    6  A    between atoms: C_9  and  C_10
REMARK    7  A    between atoms: C_10  and  O_12
REMARK    8  A    between atoms: O_12  and  C_13
REMARK    9  A    between atoms: C_17  and  C_18
REMARK                            x       y       z     vdW  Elec       q    Type
REMARK                         _______ _______ _______ _____ _____    ______ ____
ROOT
ATOM      1  C   UNL     1       4.250   4.477  18.901  0.00  0.00    +0.000 C 
ENDROOT
BRANCH   1   2
ATOM      2  N   UNL     1       3.123   5.247  19.432  0.00  0.00    +0.000 N 
ATOM      3  C   UNL     1       2.250   4.853  20.458  0.00  0.00    +0.000 A 
ATOM      4  C   UNL     1       1.350   5.897  20.693  0.00  0.00    +0.000 A 
ATOM      5  C   UNL     1       1.740   6.910  19.804  0.00  0.00    +0.000 A 
ATOM      6  O   UNL     1       1.362   8.181  19.496  0.00  0.00    +0.000 OA
ATOM      7  C   UNL     1       2.246   8.577  18.529  0.00  0.00    +0.000 A 
ATOM      8  C   UNL     1       2.114   9.957  18.016  0.00  0.00    +0.000 C 
ATOM      9  C   UNL     1       3.145   7.588  18.200  0.00  0.00    +0.000 A 
ATOM     10  C   UNL     1       2.791   6.525  19.059  0.00  0.00    +0.000 A 
BRANCH   3  11
ATOM     11  C   UNL     1       2.334   3.568  21.140  0.00  0.00    +0.000 C 
ATOM     12  O   UNL     1       2.401   3.418  22.354  0.00  0.00    +0.000 OA
BRANCH  11  13
ATOM     13  O   UNL     1       2.310   2.540  20.245  0.00  0.00    +0.000 OA
ATOM     14  C   UNL     1       1.086   2.461  19.509  0.00  0.00    +0.000 C 
ENDBRANCH  11  13
ENDBRANCH   3  11
ENDBRANCH   1   2
BRANCH   1  16
ATOM     15  N   UNL     1       5.237   4.554  16.591  0.00  0.00    +0.000 N 
ATOM     16  C   UNL     1       4.177   4.153  17.407  0.00  0.00    +0.000 C 
ATOM     17  O   UNL     1       3.212   3.527  16.958  0.00  0.00    +0.000 OA
BRANCH  15  18
ATOM     18  C   UNL     1       6.273   5.377  17.080  0.00  0.00    +0.000 A 
ATOM     19  C   UNL     1       7.129   4.910  18.080  0.00  0.00    +0.000 A 
ATOM     20  C   UNL     1       7.980   5.805  18.730  0.00  0.00    +0.000 A 
ATOM     21  C   UNL     1       7.979   7.156  18.373  0.00  0.00    +0.000 A 
ATOM     22  C   UNL     1       7.145   7.612  17.353  0.00  0.00    +0.000 A 
ATOM     23  C   UNL     1       6.292   6.724  16.705  0.00  0.00    +0.000 A 
ENDBRANCH  15  18
BRANCH  15  24
ATOM     24  C   UNL     1       5.335   4.084  15.211  0.00  0.00    +0.000 C 
BRANCH  24  26
ATOM     25  C   UNL     1       6.970   4.597  13.309  0.00  0.00    +0.000 C 
ATOM     26  C   UNL     1       6.688   4.297  14.585  0.00  0.00    +0.000 C 
ENDBRANCH  24  26
ENDBRANCH  15  24
ENDBRANCH   1  16
TORSDOF 7
ENDMDL
MODEL 4
REMARK VINA RESULT:      -7.9      1.941      6.158
REMARK  Name = 
REMARK  9 active torsions:
REMARK  status: ('A' for Active; 'I' for Inactive)
REMARK    1  A    between atoms: C_2  and  C_3
REMARK    2  A    between atoms: C_3  and  N_4
REMARK    3  A    between atoms: N_4  and  C_21
REMARK    4  A    between atoms: C_5  and  C_7
REMARK    5  A    between atoms: C_7  and  N_8
REMARK    6  A    between atoms: C_9  and  C_10
REMARK    7  A    between atoms: C_10  and  O_12
REMARK    8  A    between atoms: O_12  and  C_13
REMARK    9  A    between atoms: C_17  and  C_18
REMARK                            x       y       z     vdW  Elec       q    Type
REMARK                         _______ _______ _______ _____ _____    ______ ____
ROOT
ATOM      1  C   UNL     1       4.961   4.304  18.704  0.00  0.00    +0.000 C 
ENDROOT
BRANCH   1   2
ATOM      2  N   UNL     1       3.700   4.862  19.198  0.00  0.00    +0.000 N 
ATOM      3  C   UNL     1       2.822   4.261  20.114  0.00  0.00    +0.000 A 
ATOM      4  C   UNL     1       1.766   5.147  20.354  0.00  0.00    +0.000 A 
ATOM      5  C   UNL     1       2.068   6.278  19.582  0.00  0.00    +0.000 A 
ATOM      6  O   UNL     1       1.534   7.508  19.343  0.00  0.00    +0.000 OA
ATOM      7  C   UNL     1       2.418   8.105  18.486  0.00  0.00    +0.000 A 
ATOM      8  C   UNL     1       2.125   9.494  18.073  0.00  0.00    +0.000 C 
ATOM      9  C   UNL     1       3.471   7.283  18.157  0.00  0.00    +0.000 A 
ATOM     10  C   UNL     1       3.215   6.109  18.899  0.00  0.00    +0.000 A 
BRANCH   3  11
ATOM     11  C   UNL     1       3.041   2.945  20.698  0.00  0.00    +0.000 C 
ATOM     12  O   UNL     1       3.003   2.691  21.896  0.00  0.00    +0.000 OA
BRANCH  11  13
ATOM     13  O   UNL     1       3.280   2.016  19.730  0.00  0.00    +0.000 OA
ATOM     14  C   UNL     1       2.164   1.809  18.860  0.00  0.00    +0.000 C 
ENDBRANCH  11  13
ENDBRANCH   3  11
ENDBRANCH   1   2
BRANCH   1  16
ATOM     15  N   UNL     1       6.911   5.722  17.997  0.00  0.00    +0.000 N 
ATOM     16  C   UNL     1       6.214   5.114  19.042  0.00  0.00    +0.000 C 
ATOM     17  O   UNL     1       6.568   5.240  20.219  0.00  0.00    +0.000 OA
BRANCH  15  18
ATOM     18  C   UNL     1       6.582   5.473  16.648  0.00  0.00    +0.000 A 
ATOM     19  C   UNL     1       5.583   6.220  16.019  0.00  0.00    +0.000 A 
ATOM     20  C   UNL     1       5.092   5.806  14.780  0.00  0.00    +0.000 A 
ATOM     21  C   UNL     1       5.606   4.658  14.172  0.00  0.00    +0.000 A 
ATOM     22  C   UNL     1       6.624   3.932  14.789  0.00  0.00    +0.000 A 
ATOM     23  C   UNL     1       7.114   4.339  16.027  0.00  0.00    +0.000 A 
ENDBRANCH  15  18
BRANCH  15  24
ATOM     24  C   UNL     1       7.976   6.685  18.270  0.00  0.00    +0.000 C 
BRANCH  24  26
ATOM     25  C   UNL     1       8.225   9.217  17.989  0.00  0.00    +0.000 C 
ATOM     26  C   UNL     1       7.792   8.013  17.585  0.00  0.00    +0.000 C 
ENDBRANCH  24  26
ENDBRANCH  15  24
ENDBRANCH   1  16
TORSDOF 7
ENDMDL
MODEL 5
REMARK VINA RESULT:      -7.8      1.983      6.408
REMARK  Name = 
REMARK  9 active torsions:
REMARK  status: ('A' for Active; 'I' for Inactive)
REMARK    1  A    between atoms: C_2  and  C_3
REMARK    2  A    between atoms: C_3  and  N_4
REMARK    3  A    between atoms: N_4  and  C_21
REMARK    4  A    between atoms: C_5  and  C_7
REMARK    5  A    between atoms: C_7  and  N_8
REMARK    6  A    between atoms: C_9  and  C_10
REMARK    7  A    between atoms: C_10  and  O_12
REMARK    8  A    between atoms: O_12  and  C_13
REMARK    9  A    between atoms: C_17  and  C_18
REMARK                            x       y       z     vdW  Elec       q    Type
REMARK                         _______ _______ _______ _____ _____    ______ ____
ROOT
ATOM      1  C   UNL     1       4.030   4.078  18.447  0.00  0.00    +0.000 C 
ENDROOT
BRANCH   1   2
ATOM      2  N   UNL     1       3.053   4.903  19.162  0.00  0.00    +0.000 N 
ATOM      3  C   UNL     1       2.305   4.526  20.288  0.00  0.00    +0.000 A 
ATOM      4  C   UNL     1       1.531   5.621  20.687  0.00  0.00    +0.000 A 
ATOM      5  C   UNL     1       1.869   6.642  19.787  0.00  0.00    +0.000 A 
ATOM      6  O   UNL     1       1.553   7.950  19.581  0.00  0.00    +0.000 OA
ATOM      7  C   UNL     1       2.320   8.325  18.511  0.00  0.00    +0.000 A 
ATOM      8  C   UNL     1       2.225   9.733  18.071  0.00  0.00    +0.000 C 
ATOM      9  C   UNL     1       3.084   7.290  18.022  0.00  0.00    +0.000 A 
ATOM     10  C   UNL     1       2.773   6.217  18.885  0.00  0.00    +0.000 A 
BRANCH   3  11
ATOM     11  C   UNL     1       2.383   3.209  20.905  0.00  0.00    +0.000 C 
ATOM     12  O   UNL     1       3.351   2.773  21.517  0.00  0.00    +0.000 OA
BRANCH  11  13
ATOM     13  O   UNL     1       1.221   2.518  20.727  0.00  0.00    +0.000 OA
ATOM     14  C   UNL     1       0.921   2.264  19.352  0.00  0.00    +0.000 C 
ENDBRANCH  11  13
ENDBRANCH   3  11
ENDBRANCH   1   2
BRANCH   1  16
ATOM     15  N   UNL     1       6.380   4.687  17.795  0.00  0.00    +0.000 N 
ATOM     16  C   UNL     1       5.495   4.329  18.814  0.00  0.00    +0.000 C 
ATOM     17  O   UNL     1       5.859   4.243  19.991  0.00  0.00    +0.000 OA
BRANCH  15  18
ATOM     18  C   UNL     1       5.991   4.661  16.439  0.00  0.00    +0.000 A 
ATOM     19  C   UNL     1       6.286   3.551  15.644  0.00  0.00    +0.000 A 
ATOM     20  C   UNL     1       6.127   3.634  14.261  0.00  0.00    +0.000 A 
ATOM     21  C   UNL     1       5.664   4.817  13.680  0.00  0.00    +0.000 A 
ATOM     22  C   UNL     1       5.341   5.913  14.479  0.00  0.00    +0.000 A 
ATOM     23  C   UNL     1       5.503   5.836  15.859  0.00  0.00    +0.000 A 
ENDBRANCH  15  18
BRANCH  15  24
ATOM     24  C   UNL     1       7.728   5.155  18.108  0.00  0.00    +0.000 C 
BRANCH  24  26
ATOM     25  C   UNL     1       7.858   7.693  17.800  0.00  0.00    +0.000 C 
ATOM     26  C   UNL     1       7.790   6.590  18.560  0.00  0.00    +0.000 C 
ENDBRANCH  24  26
ENDBRANCH  15  24
ENDBRANCH   1  16
TORSDOF 7
ENDMDL
MODEL 6
REMARK VINA RESULT:      -7.8      2.151      6.528
REMARK  Name = 
REMARK  9 active torsions:
REMARK  status: ('A' for Active; 'I' for Inactive)
REMARK    1  A    between atoms: C_2  and  C_3
REMARK    2  A    between atoms: C_3  and  N_4
REMARK    3  A    between atoms: N_4  and  C_21
REMARK    4  A    between atoms: C_5  and  C_7
REMARK    5  A    between atoms: C_7  and  N_8
REMARK    6  A    between atoms: C_9  and  C_10
REMARK    7  A    between atoms: C_10  and  O_12
REMARK    8  A    between atoms: O_12  and  C_13
REMARK    9  A    between atoms: C_17  and  C_18
REMARK                            x       y       z     vdW  Elec       q    Type
REMARK                         _______ _______ _______ _____ _____    ______ ____
ROOT
ATOM      1  C   UNL     1       4.211   4.105  18.517  0.00  0.00    +0.000 C 
ENDROOT
BRANCH   1   2
ATOM      2  N   UNL     1       3.165   4.829  19.243  0.00  0.00    +0.000 N 
ATOM      3  C   UNL     1       2.421   4.352  20.333  0.00  0.00    +0.000 A 
ATOM      4  C   UNL     1       1.566   5.373  20.761  0.00  0.00    +0.000 A 
ATOM      5  C   UNL     1       1.853   6.455  19.915  0.00  0.00    +0.000 A 
ATOM      6  O   UNL     1       1.452   7.746  19.759  0.00  0.00    +0.000 OA
ATOM      7  C   UNL     1       2.214   8.219  18.725  0.00  0.00    +0.000 A 
ATOM      8  C   UNL     1       2.032   9.637  18.345  0.00  0.00    +0.000 C 
ATOM      9  C   UNL     1       3.056   7.261  18.210  0.00  0.00    +0.000 A 
ATOM     10  C   UNL     1       2.801   6.132  19.018  0.00  0.00    +0.000 A 
BRANCH   3  11
ATOM     11  C   UNL     1       2.575   3.016  20.894  0.00  0.00    +0.000 C 
ATOM     12  O   UNL     1       3.549   2.627  21.528  0.00  0.00    +0.000 OA
BRANCH  11  13
ATOM     13  O   UNL     1       1.478   2.250  20.636  0.00  0.00    +0.000 OA
ATOM     14  C   UNL     1       1.238   2.061  19.239  0.00  0.00    +0.000 C 
ENDBRANCH  11  13
ENDBRANCH   3  11
ENDBRANCH   1   2
BRANCH   1  16
ATOM     15  N   UNL     1       5.262   5.118  16.472  0.00  0.00    +0.000 N 
ATOM     16  C   UNL     1       4.237   4.333  17.004  0.00  0.00    +0.000 C 
ATOM     17  O   UNL     1       3.383   3.804  16.285  0.00  0.00    +0.000 OA
BRANCH  15  18
ATOM     18  C   UNL     1       6.158   5.822  17.303  0.00  0.00    +0.000 A 
ATOM     19  C   UNL     1       6.472   7.155  17.028  0.00  0.00    +0.000 A 
ATOM     20  C   UNL     1       7.536   7.763  17.694  0.00  0.00    +0.000 A 
ATOM     21  C   UNL     1       8.273   7.042  18.638  0.00  0.00    +0.000 A 
ATOM     22  C   UNL     1       7.938   5.721  18.932  0.00  0.00    +0.000 A 
ATOM     23  C   UNL     1       6.879   5.110  18.266  0.00  0.00    +0.000 A 
ENDBRANCH  15  18
BRANCH  15  24
ATOM     24  C   UNL     1       5.474   5.190  15.027  0.00  0.00    +0.000 C 
BRANCH  24  26
ATOM     25  C   UNL     1       6.245   3.582  13.191  0.00  0.00    +0.000 C 
ATOM     26  C   UNL     1       6.230   4.019  14.459  0.00  0.00    +0.000 C 
ENDBRANCH  24  26
ENDBRANCH  15  24
ENDBRANCH   1  16
TORSDOF 7
ENDMDL
MODEL 7
REMARK VINA RESULT:      -7.8      1.099      3.051
REMARK  Name = 
REMARK  9 active torsions:
REMARK  status: ('A' for Active; 'I' for Inactive)
REMARK    1  A    between atoms: C_2  and  C_3
REMARK    2  A    between atoms: C_3  and  N_4
REMARK    3  A    between atoms: N_4  and  C_21
REMARK    4  A    between atoms: C_5  and  C_7
REMARK    5  A    between atoms: C_7  and  N_8
REMARK    6  A    between atoms: C_9  and  C_10
REMARK    7  A    between atoms: C_10  and  O_12
REMARK    8  A    between atoms: O_12  and  C_13
REMARK    9  A    between atoms: C_17  and  C_18
REMARK                            x       y       z     vdW  Elec       q    Type
REMARK                         _______ _______ _______ _____ _____    ______ ____
ROOT
ATOM      1  C   UNL     1       4.462   5.926  17.576  0.00  0.00    +0.000 C 
ENDROOT
BRANCH   1   2
ATOM      2  N   UNL     1       5.665   5.436  16.898  0.00  0.00    +0.000 N 
ATOM      3  C   UNL     1       6.959   5.369  17.435  0.00  0.00    +0.000 A 
ATOM      4  C   UNL     1       7.802   4.795  16.477  0.00  0.00    +0.000 A 
ATOM      5  C   UNL     1       6.962   4.509  15.390  0.00  0.00    +0.000 A 
ATOM      6  O   UNL     1       7.067   3.938  14.159  0.00  0.00    +0.000 OA
ATOM      7  C   UNL     1       5.793   3.965  13.659  0.00  0.00    +0.000 A 
ATOM      8  C   UNL     1       5.577   3.362  12.326  0.00  0.00    +0.000 C 
ATOM      9  C   UNL     1       4.901   4.558  14.522  0.00  0.00    +0.000 A 
ATOM     10  C   UNL     1       5.696   4.886  15.641  0.00  0.00    +0.000 A 
BRANCH   3  11
ATOM     11  C   UNL     1       7.300   5.815  18.779  0.00  0.00    +0.000 C 
ATOM     12  O   UNL     1       6.875   5.319  19.816  0.00  0.00    +0.000 OA
BRANCH  11  13
ATOM     13  O   UNL     1       8.176   6.859  18.738  0.00  0.00    +0.000 OA
ATOM     14  C   UNL     1       7.765   7.906  17.855  0.00  0.00    +0.000 C 
ENDBRANCH  11  13
ENDBRANCH   3  11
ENDBRANCH   1   2
BRANCH   1  16
ATOM     15  N   UNL     1       2.508   5.265  19.011  0.00  0.00    +0.000 N 
ATOM     16  C   UNL     1       3.617   4.854  18.269  0.00  0.00    +0.000 C 
ATOM     17  O   UNL     1       3.906   3.661  18.137  0.00  0.00    +0.000 OA
BRANCH  15  18
ATOM     18  C   UNL     1       2.255   6.629  19.264  0.00  0.00    +0.000 A 
ATOM     19  C   UNL     1       1.858   7.046  20.537  0.00  0.00    +0.000 A 
ATOM     20  C   UNL     1       1.371   8.341  20.715  0.00  0.00    +0.000 A 
ATOM     21  C   UNL     1       1.293   9.215  19.628  0.00  0.00    +0.000 A 
ATOM     22  C   UNL     1       1.719   8.806  18.365  0.00  0.00    +0.000 A 
ATOM     23  C   UNL     1       2.202   7.513  18.182  0.00  0.00    +0.000 A 
ENDBRANCH  15  18
BRANCH  15  24
ATOM     24  C   UNL     1       1.539   4.289  19.506  0.00  0.00    +0.000 C 
BRANCH  24  26
ATOM     25  C   UNL     1       1.377   2.871  21.630  0.00  0.00    +0.000 C 
ATOM     26  C   UNL     1       2.062   3.413  20.612  0.00  0.00    +0.000 C 
ENDBRANCH  24  26
ENDBRANCH  15  24
ENDBRANCH   1  16
TORSDOF 7
ENDMDL
MODEL 8
REMARK VINA RESULT:      -7.7      2.138      6.455
REMARK  Name = 
REMARK  9 active torsions:
REMARK  status: ('A' for Active; 'I' for Inactive)
REMARK    1  A    between atoms: C_2  and  C_3
REMARK    2  A    between atoms: C_3  and  N_4
REMARK    3  A    between atoms: N_4  and  C_21
REMARK    4  A    between atoms: C_5  and  C_7
REMARK    5  A    between atoms: C_7  and  N_8
REMARK    6  A    between atoms: C_9  and  C_10
REMARK    7  A    between atoms: C_10  and  O_12
REMARK    8  A    between atoms: O_12  and  C_13
REMARK    9  A    between atoms: C_17  and  C_18
REMARK                            x       y       z     vdW  Elec       q    Type
REMARK                         _______ _______ _______ _____ _____    ______ ____
ROOT
ATOM      1  C   UNL     1       4.516   4.224  18.331  0.00  0.00    +0.000 C 
ENDROOT
BRANCH   1   2
ATOM      2  N   UNL     1       3.501   4.954  19.095  0.00  0.00    +0.000 N 
ATOM      3  C   UNL     1       2.874   4.525  20.274  0.00  0.00    +0.000 A 
ATOM      4  C   UNL     1       2.010   5.538  20.705  0.00  0.00    +0.000 A 
ATOM      5  C   UNL     1       2.173   6.567  19.766  0.00  0.00    +0.000 A 
ATOM      6  O   UNL     1       1.701   7.827  19.559  0.00  0.00    +0.000 OA
ATOM      7  C   UNL     1       2.351   8.257  18.434  0.00  0.00    +0.000 A 
ATOM      8  C   UNL     1       2.072   9.635  17.976  0.00  0.00    +0.000 C 
ATOM      9  C   UNL     1       3.192   7.300  17.913  0.00  0.00    +0.000 A 
ATOM     10  C   UNL     1       3.059   6.222  18.814  0.00  0.00    +0.000 A 
BRANCH   3  11
ATOM     11  C   UNL     1       3.137   3.240  20.908  0.00  0.00    +0.000 C 
ATOM     12  O   UNL     1       3.869   2.368  20.455  0.00  0.00    +0.000 OA
BRANCH  11  13
ATOM     13  O   UNL     1       2.471   3.136  22.093  0.00  0.00    +0.000 OA
ATOM     14  C   UNL     1       1.276   2.355  22.001  0.00  0.00    +0.000 C 
ENDBRANCH  11  13
ENDBRANCH   3  11
ENDBRANCH   1   2
BRANCH   1  16
ATOM     15  N   UNL     1       5.528   5.085  16.198  0.00  0.00    +0.000 N 
ATOM     16  C   UNL     1       4.465   4.422  16.814  0.00  0.00    +0.000 C 
ATOM     17  O   UNL     1       3.514   3.974  16.166  0.00  0.00    +0.000 OA
BRANCH  15  18
ATOM     18  C   UNL     1       6.545   5.706  16.952  0.00  0.00    +0.000 A 
ATOM     19  C   UNL     1       7.194   5.003  17.970  0.00  0.00    +0.000 A 
ATOM     20  C   UNL     1       8.012   5.690  18.867  0.00  0.00    +0.000 A 
ATOM     21  C   UNL     1       8.186   7.071  18.739  0.00  0.00    +0.000 A 
ATOM     22  C   UNL     1       7.561   7.764  17.703  0.00  0.00    +0.000 A 
ATOM     23  C   UNL     1       6.741   7.083  16.808  0.00  0.00    +0.000 A 
ENDBRANCH  15  18
BRANCH  15  24
ATOM     24  C   UNL     1       5.648   5.109  14.742  0.00  0.00    +0.000 C 
BRANCH  24  26
ATOM     25  C   UNL     1       6.143   3.403  12.900  0.00  0.00    +0.000 C 
ATOM     26  C   UNL     1       6.250   3.860  14.156  0.00  0.00    +0.000 C 
ENDBRANCH  24  26
ENDBRANCH  15  24
ENDBRANCH   1  16
TORSDOF 7
ENDMDL
MODEL 9
REMARK VINA RESULT:      -7.7      1.099      3.121
REMARK  Name = 
REMARK  9 active torsions:
REMARK  status: ('A' for Active; 'I' for Inactive)
REMARK    1  A    between atoms: C_2  and  C_3
REMARK    2  A    between atoms: C_3  and  N_4
REMARK    3  A    between atoms: N_4  and  C_21
REMARK    4  A    between atoms: C_5  and  C_7
REMARK    5  A    between atoms: C_7  and  N_8
REMARK    6  A    between atoms: C_9  and  C_10
REMARK    7  A    between atoms: C_10  and  O_12
REMARK    8  A    between atoms: O_12  and  C_13
REMARK    9  A    between atoms: C_17  and  C_18
REMARK                            x       y       z     vdW  Elec       q    Type
REMARK                         _______ _______ _______ _____ _____    ______ ____
ROOT
ATOM      1  C   UNL     1       4.655   6.055  18.009  0.00  0.00    +0.000 C 
ENDROOT
BRANCH   1   2
ATOM      2  N   UNL     1       5.784   5.550  17.224  0.00  0.00    +0.000 N 
ATOM      3  C   UNL     1       7.125   5.486  17.632  0.00  0.00    +0.000 A 
ATOM      4  C   UNL     1       7.868   4.894  16.605  0.00  0.00    +0.000 A 
ATOM      5  C   UNL     1       6.924   4.594  15.611  0.00  0.00    +0.000 A 
ATOM      6  O   UNL     1       6.905   4.003  14.385  0.00  0.00    +0.000 OA
ATOM      7  C   UNL     1       5.588   4.027  14.013  0.00  0.00    +0.000 A 
ATOM      8  C   UNL     1       5.241   3.404  12.717  0.00  0.00    +0.000 C 
ATOM      9  C   UNL     1       4.787   4.637  14.950  0.00  0.00    +0.000 A 
ATOM     10  C   UNL     1       5.690   4.980  15.980  0.00  0.00    +0.000 A 
BRANCH   3  11
ATOM     11  C   UNL     1       7.597   5.953  18.928  0.00  0.00    +0.000 C 
ATOM     12  O   UNL     1       7.352   5.416  20.002  0.00  0.00    +0.000 OA
BRANCH  11  13
ATOM     13  O   UNL     1       8.372   7.066  18.792  0.00  0.00    +0.000 OA
ATOM     14  C   UNL     1       7.826   8.025  17.882  0.00  0.00    +0.000 C 
ENDBRANCH  11  13
ENDBRANCH   3  11
ENDBRANCH   1   2
BRANCH   1  16
ATOM     15  N   UNL     1       2.834   5.375  19.602  0.00  0.00    +0.000 N 
ATOM     16  C   UNL     1       4.065   5.069  19.020  0.00  0.00    +0.000 C 
ATOM     17  O   UNL     1       4.663   4.019  19.278  0.00  0.00    +0.000 OA
BRANCH  15  18
ATOM     18  C   UNL     1       2.217   6.628  19.403  0.00  0.00    +0.000 A 
ATOM     19  C   UNL     1       2.257   7.241  18.148  0.00  0.00    +0.000 A 
ATOM     20  C   UNL     1       1.871   8.575  18.022  0.00  0.00    +0.000 A 
ATOM     21  C   UNL     1       1.437   9.287  19.143  0.00  0.00    +0.000 A 
ATOM     22  C   UNL     1       1.369   8.664  20.388  0.00  0.00    +0.000 A 
ATOM     23  C   UNL     1       1.758   7.334  20.519  0.00  0.00    +0.000 A 
ENDBRANCH  15  18
BRANCH  15  24
ATOM     24  C   UNL     1       2.115   4.381  20.396  0.00  0.00    +0.000 C 
BRANCH  24  26
ATOM     25  C   UNL     1       1.029   2.655  18.850  0.00  0.00    +0.000 C 
ATOM     26  C   UNL     1       0.978   3.718  19.665  0.00  0.00    +0.000 C 
ENDBRANCH  24  26
ENDBRANCH  15  24
ENDBRANCH   1  16
TORSDOF 7
ENDMDL
