MODEL 1
REMARK VINA RESULT:      -8.4      0.000      0.000
REMARK  Name = 
REMARK  7 active torsions:
REMARK  status: ('A' for Active; 'I' for Inactive)
REMARK    1  A    between atoms: C_1  and  C_2
REMARK    2  A    between atoms: C_2  and  N_3
REMARK    3  A    between atoms: C_8  and  C_9
REMARK    4  A    between atoms: N_11  and  C_12
REMARK    5  A    between atoms: C_12  and  C_13
REMARK    6  A    between atoms: C_13  and  N_14
REMARK    7  A    between atoms: N_17  and  C_18
REMARK                            x       y       z     vdW  Elec       q    Type
REMARK                         _______ _______ _______ _____ _____    ______ ____
ROOT
ATOM      1  C   UNL     1       2.129   6.869  20.080  0.00  0.00    +0.000 C 
ATOM      2  O   UNL     1       2.996   6.742  19.220  0.00  0.00    +0.000 OA
ATOM      3  N   UNL     1       1.732   5.845  20.908  0.00  0.00    +0.000 N 
ATOM      4  H   UNL     1       0.965   6.021  21.553  0.00  0.00    +0.000 HD
ENDROOT
BRANCH   1  10
ATOM      5  N   UNL     1      -0.471  11.872  22.044  0.00  0.00    +0.000 N 
ATOM      6  C   UNL     1      -0.330  12.374  20.677  0.00  0.00    +0.000 C 
ATOM      7  C   UNL     1       0.447  11.515  19.676  0.00  0.00    +0.000 C 
ATOM      8  N   UNL     1       0.712  10.179  20.133  0.00  0.00    +0.000 N 
ATOM      9  C   UNL     1       1.360   9.197  19.450  0.00  0.00    +0.000 A 
ATOM     10  C   UNL     1       1.447   8.139  20.332  0.00  0.00    +0.000 A 
ATOM     11  N   UNL     1       0.829   8.477  21.530  0.00  0.00    +0.000 NA
ATOM     12  C   UNL     1       0.419   9.728  21.389  0.00  0.00    +0.000 A 
ATOM     13  C   UNL     1      -0.210  10.542  22.415  0.00  0.00    +0.000 C 
ATOM     14  O   UNL     1      -0.486  10.126  23.539  0.00  0.00    +0.000 OA
BRANCH   5  16
ATOM     15  C   UNL     1      -2.650  12.514  23.047  0.00  0.00    +0.000 C 
ATOM     16  C   UNL     1      -1.145  12.738  23.009  0.00  0.00    +0.000 C 
ENDBRANCH   5  16
ENDBRANCH   1  10
BRANCH   3  17
ATOM     17  C   UNL     1       2.381   4.556  20.858  0.00  0.00    +0.000 C 
BRANCH  17  18
ATOM     18  C   UNL     1       1.596   3.494  20.064  0.00  0.00    +0.000 C 
BRANCH  18  19
ATOM     19  N   UNL     1       2.401   2.370  19.541  0.00  0.00    +0.000 NA
ATOM     20  C   UNL     1       2.371   2.284  18.062  0.00  0.00    +0.000 C 
ATOM     21  C   UNL     1       2.992   3.505  17.353  0.00  0.00    +0.000 C 
ATOM     22  N   UNL     1       4.392   3.643  17.775  0.00  0.00    +0.000 N 
ATOM     23  C   UNL     1       4.632   3.642  19.231  0.00  0.00    +0.000 C 
ATOM     24  C   UNL     1       3.827   2.511  19.938  0.00  0.00    +0.000 C 
BRANCH  22  25
ATOM     25  C   UNL     1       5.332   4.119  16.869  0.00  0.00    +0.000 A 
ATOM     26  C   UNL     1       5.534   3.449  15.651  0.00  0.00    +0.000 A 
ATOM     27  C   UNL     1       6.364   3.971  14.648  0.00  0.00    +0.000 A 
ATOM     28  C   UNL     1       7.029   5.178  14.844  0.00  0.00    +0.000 A 
ATOM     29  C   UNL     1       6.873   5.856  16.050  0.00  0.00    +0.000 A 
ATOM     30  C   UNL     1       6.042   5.324  17.042  0.00  0.00    +0.000 A 
ATOM     31  F   UNL     1       5.954   6.015  18.190  0.00  0.00    +0.000 F 
ENDBRANCH  22  25
ENDBRANCH  18  19
ENDBRANCH  17  18
ENDBRANCH   3  17
TORSDOF 6
ENDMDL
MODEL 2
REMARK VINA RESULT:      -8.2      6.608      9.832
REMARK  Name = 
REMARK  7 active torsions:
REMARK  status: ('A' for Active; 'I' for Inactive)
REMARK    1  A    between atoms: C_1  and  C_2
REMARK    2  A    between atoms: C_2  and  N_3
REMARK    3  A    between atoms: C_8  and  C_9
REMARK    4  A    between atoms: N_11  and  C_12
REMARK    5  A    between atoms: C_12  and  C_13
REMARK    6  A    between atoms: C_13  and  N_14
REMARK    7  A    between atoms: N_17  and  C_18
REMARK                            x       y       z     vdW  Elec       q    Type
REMARK                         _______ _______ _______ _____ _____    ______ ____
ROOT
ATOM      1  C   UNL     1       7.103   6.865  17.199  0.00  0.00    +0.000 C 
ATOM      2  O   UNL     1       7.790   6.558  16.228  0.00  0.00    +0.000 OA
ATOM      3  N   UNL     1       7.377   7.946  18.004  0.00  0.00    +0.000 N 
ATOM      4  H   UNL     1       6.790   8.094  18.822  0.00  0.00    +0.000 HD
ENDROOT
BRANCH   1  10
ATOM      5  N   UNL     1       2.731   3.506  19.489  0.00  0.00    +0.000 N 
ATOM      6  C   UNL     1       1.809   4.345  18.721  0.00  0.00    +0.000 C 
ATOM      7  C   UNL     1       2.387   5.554  17.984  0.00  0.00    +0.000 C 
ATOM      8  N   UNL     1       3.822   5.564  17.911  0.00  0.00    +0.000 N 
ATOM      9  C   UNL     1       4.601   6.499  17.302  0.00  0.00    +0.000 A 
ATOM     10  C   UNL     1       5.900   6.126  17.581  0.00  0.00    +0.000 A 
ATOM     11  N   UNL     1       5.899   4.957  18.332  0.00  0.00    +0.000 NA
ATOM     12  C   UNL     1       4.626   4.657  18.540  0.00  0.00    +0.000 A 
ATOM     13  C   UNL     1       4.128   3.559  19.351  0.00  0.00    +0.000 C 
ATOM     14  O   UNL     1       4.856   2.735  19.901  0.00  0.00    +0.000 OA
BRANCH   5  16
ATOM     15  C   UNL     1       1.890   2.768  21.706  0.00  0.00    +0.000 C 
ATOM     16  C   UNL     1       2.154   2.402  20.252  0.00  0.00    +0.000 C 
ENDBRANCH   5  16
ENDBRANCH   1  10
BRANCH   3  17
ATOM     17  C   UNL     1       8.470   8.840  17.701  0.00  0.00    +0.000 C 
BRANCH  17  18
ATOM     18  C   UNL     1       8.531  10.080  18.613  0.00  0.00    +0.000 C 
BRANCH  18  19
ATOM     19  N   UNL     1       9.887  10.608  18.876  0.00  0.00    +0.000 NA
ATOM     20  C   UNL     1      10.369  11.506  17.803  0.00  0.00    +0.000 C 
ATOM     21  C   UNL     1       9.531  12.791  17.640  0.00  0.00    +0.000 C 
ATOM     22  N   UNL     1       9.550  13.539  18.904  0.00  0.00    +0.000 N 
ATOM     23  C   UNL     1       9.195  12.772  20.114  0.00  0.00    +0.000 C 
ATOM     24  C   UNL     1       9.914  11.390  20.141  0.00  0.00    +0.000 C 
BRANCH  22  25
ATOM     25  C   UNL     1       9.528  14.928  18.873  0.00  0.00    +0.000 A 
ATOM     26  C   UNL     1       8.446  15.599  18.283  0.00  0.00    +0.000 A 
ATOM     27  C   UNL     1       8.311  16.994  18.354  0.00  0.00    +0.000 A 
ATOM     28  C   UNL     1       9.270  17.758  19.012  0.00  0.00    +0.000 A 
ATOM     29  C   UNL     1      10.371  17.129  19.585  0.00  0.00    +0.000 A 
ATOM     30  C   UNL     1      10.493  15.737  19.506  0.00  0.00    +0.000 A 
ATOM     31  F   UNL     1      11.590  15.194  20.060  0.00  0.00    +0.000 F 
ENDBRANCH  22  25
ENDBRANCH  18  19
ENDBRANCH  17  18
ENDBRANCH   3  17
TORSDOF 6
ENDMDL
MODEL 3
REMARK VINA RESULT:      -8.0      1.288      1.640
REMARK  Name = 
REMARK  7 active torsions:
REMARK  status: ('A' for Active; 'I' for Inactive)
REMARK    1  A    between atoms: C_1  and  C_2
REMARK    2  A    between atoms: C_2  and  N_3
REMARK    3  A    between atoms: C_8  and  C_9
REMARK    4  A    between atoms: N_11  and  C_12
REMARK    5  A    between atoms: C_12  and  C_13
REMARK    6  A    between atoms: C_13  and  N_14
REMARK    7  A    between atoms: N_17  and  C_18
REMARK                            x       y       z     vdW  Elec       q    Type
REMARK                         _______ _______ _______ _____ _____    ______ ____
ROOT
ATOM      1  C   UNL     1       2.171   6.813  20.181  0.00  0.00    +0.000 C 
ATOM      2  O   UNL     1       3.032   6.734  19.309  0.00  0.00    +0.000 OA
ATOM      3  N   UNL     1       1.783   5.744  20.956  0.00  0.00    +0.000 N 
ATOM      4  H   UNL     1       1.022   5.883  21.615  0.00  0.00    +0.000 HD
ENDROOT
BRANCH   1  10
ATOM      5  N   UNL     1      -0.976  11.867  20.614  0.00  0.00    +0.000 N 
ATOM      6  C   UNL     1      -0.838  11.722  22.064  0.00  0.00    +0.000 C 
ATOM      7  C   UNL     1      -0.189  10.442  22.596  0.00  0.00    +0.000 C 
ATOM      8  N   UNL     1       0.460   9.651  21.587  0.00  0.00    +0.000 N 
ATOM      9  C   UNL     1       1.131   8.483  21.773  0.00  0.00    +0.000 A 
ATOM     10  C   UNL     1       1.489   8.065  20.507  0.00  0.00    +0.000 A 
ATOM     11  N   UNL     1       1.055   8.993  19.568  0.00  0.00    +0.000 NA
ATOM     12  C   UNL     1       0.411   9.928  20.250  0.00  0.00    +0.000 A 
ATOM     13  C   UNL     1      -0.293  11.066  19.684  0.00  0.00    +0.000 C 
ATOM     14  O   UNL     1      -0.320  11.319  18.481  0.00  0.00    +0.000 OA
BRANCH   5  16
ATOM     15  C   UNL     1      -3.178  12.971  20.301  0.00  0.00    +0.000 C 
ATOM     16  C   UNL     1      -1.669  13.057  20.124  0.00  0.00    +0.000 C 
ENDBRANCH   5  16
ENDBRANCH   1  10
BRANCH   3  17
ATOM     17  C   UNL     1       2.434   4.461  20.830  0.00  0.00    +0.000 C 
BRANCH  17  18
ATOM     18  C   UNL     1       1.589   3.403  20.096  0.00  0.00    +0.000 C 
BRANCH  18  19
ATOM     19  N   UNL     1       2.352   2.291  19.489  0.00  0.00    +0.000 NA
ATOM     20  C   UNL     1       2.310   2.310  18.009  0.00  0.00    +0.000 C 
ATOM     21  C   UNL     1       2.968   3.556  17.381  0.00  0.00    +0.000 C 
ATOM     22  N   UNL     1       4.375   3.616  17.799  0.00  0.00    +0.000 N 
ATOM     23  C   UNL     1       4.624   3.506  19.250  0.00  0.00    +0.000 C 
ATOM     24  C   UNL     1       3.785   2.356  19.883  0.00  0.00    +0.000 C 
BRANCH  22  25
ATOM     25  C   UNL     1       5.325   4.123  16.921  0.00  0.00    +0.000 A 
ATOM     26  C   UNL     1       5.519   3.513  15.670  0.00  0.00    +0.000 A 
ATOM     27  C   UNL     1       6.361   4.071  14.697  0.00  0.00    +0.000 A 
ATOM     28  C   UNL     1       7.044   5.255  14.956  0.00  0.00    +0.000 A 
ATOM     29  C   UNL     1       6.898   5.873  16.195  0.00  0.00    +0.000 A 
ATOM     30  C   UNL     1       6.055   5.305  17.157  0.00  0.00    +0.000 A 
ATOM     31  F   UNL     1       5.975   5.937  18.339  0.00  0.00    +0.000 F 
ENDBRANCH  22  25
ENDBRANCH  18  19
ENDBRANCH  17  18
ENDBRANCH   3  17
TORSDOF 6
ENDMDL
MODEL 4
REMARK VINA RESULT:      -7.9      6.850      8.633
REMARK  Name = 
REMARK  7 active torsions:
REMARK  status: ('A' for Active; 'I' for Inactive)
REMARK    1  A    between atoms: C_1  and  C_2
REMARK    2  A    between atoms: C_2  and  N_3
REMARK    3  A    between atoms: C_8  and  C_9
REMARK    4  A    between atoms: N_11  and  C_12
REMARK    5  A    between atoms: C_12  and  C_13
REMARK    6  A    between atoms: C_13  and  N_14
REMARK    7  A    between atoms: N_17  and  C_18
REMARK                            x       y       z     vdW  Elec       q    Type
REMARK                         _______ _______ _______ _____ _____    ______ ____
ROOT
ATOM      1  C   UNL     1       9.125  10.302  18.946  0.00  0.00    +0.000 C 
ATOM      2  O   UNL     1       9.193   9.892  20.102  0.00  0.00    +0.000 OA
ATOM      3  N   UNL     1       8.672   9.533  17.900  0.00  0.00    +0.000 N 
ATOM      4  H   UNL     1       8.704   9.931  16.964  0.00  0.00    +0.000 HD
ENDROOT
BRANCH   1  10
ATOM      5  N   UNL     1      10.385  16.103  18.315  0.00  0.00    +0.000 N 
ATOM      6  C   UNL     1      11.179  15.710  17.149  0.00  0.00    +0.000 C 
ATOM      7  C   UNL     1      11.352  14.215  16.873  0.00  0.00    +0.000 C 
ATOM      8  N   UNL     1      10.478  13.373  17.642  0.00  0.00    +0.000 N 
ATOM      9  C   UNL     1      10.400  12.016  17.588  0.00  0.00    +0.000 A 
ATOM     10  C   UNL     1       9.493  11.667  18.568  0.00  0.00    +0.000 A 
ATOM     11  N   UNL     1       9.012  12.813  19.190  0.00  0.00    +0.000 NA
ATOM     12  C   UNL     1       9.649  13.828  18.626  0.00  0.00    +0.000 A 
ATOM     13  C   UNL     1       9.536  15.225  19.009  0.00  0.00    +0.000 C 
ATOM     14  O   UNL     1       8.775  15.631  19.884  0.00  0.00    +0.000 OA
BRANCH   5  16
ATOM     15  C   UNL     1      10.248  18.390  17.357  0.00  0.00    +0.000 C 
ATOM     16  C   UNL     1      10.295  17.531  18.613  0.00  0.00    +0.000 C 
ENDBRANCH   5  16
ENDBRANCH   1  10
BRANCH   3  17
ATOM     17  C   UNL     1       8.172   8.196  18.122  0.00  0.00    +0.000 C 
BRANCH  17  18
ATOM     18  C   UNL     1       6.788   7.937  17.497  0.00  0.00    +0.000 C 
BRANCH  18  19
ATOM     19  N   UNL     1       6.653   6.660  16.764  0.00  0.00    +0.000 NA
ATOM     20  C   UNL     1       6.891   5.478  17.624  0.00  0.00    +0.000 C 
ATOM     21  C   UNL     1       5.868   5.323  18.768  0.00  0.00    +0.000 C 
ATOM     22  N   UNL     1       4.521   5.206  18.193  0.00  0.00    +0.000 N 
ATOM     23  C   UNL     1       4.140   6.249  17.221  0.00  0.00    +0.000 C 
ATOM     24  C   UNL     1       5.285   6.516  16.199  0.00  0.00    +0.000 C 
BRANCH  22  25
ATOM     25  C   UNL     1       3.580   4.400  18.823  0.00  0.00    +0.000 A 
ATOM     26  C   UNL     1       3.986   3.494  19.817  0.00  0.00    +0.000 A 
ATOM     27  C   UNL     1       3.059   2.765  20.577  0.00  0.00    +0.000 A 
ATOM     28  C   UNL     1       1.694   2.915  20.352  0.00  0.00    +0.000 A 
ATOM     29  C   UNL     1       1.257   3.783  19.355  0.00  0.00    +0.000 A 
ATOM     30  C   UNL     1       2.192   4.504  18.604  0.00  0.00    +0.000 A 
ATOM     31  F   UNL     1       1.706   5.307  17.644  0.00  0.00    +0.000 F 
ENDBRANCH  22  25
ENDBRANCH  18  19
ENDBRANCH  17  18
ENDBRANCH   3  17
TORSDOF 6
ENDMDL
MODEL 5
REMARK VINA RESULT:      -7.9      0.896      1.316
REMARK  Name = 
REMARK  7 active torsions:
REMARK  status: ('A' for Active; 'I' for Inactive)
REMARK    1  A    between atoms: C_1  and  C_2
REMARK    2  A    between atoms: C_2  and  N_3
REMARK    3  A    between atoms: C_8  and  C_9
REMARK    4  A    between atoms: N_11  and  C_12
REMARK    5  A    between atoms: C_12  and  C_13
REMARK    6  A    between atoms: C_13  and  N_14
REMARK    7  A    between atoms: N_17  and  C_18
REMARK                            x       y       z     vdW  Elec       q    Type
REMARK                         _______ _______ _______ _____ _____    ______ ____
ROOT
ATOM      1  C   UNL     1       2.113   6.783  20.230  0.00  0.00    +0.000 C 
ATOM      2  O   UNL     1       3.080   6.667  19.482  0.00  0.00    +0.000 OA
ATOM      3  N   UNL     1       1.599   5.739  20.964  0.00  0.00    +0.000 N 
ATOM      4  H   UNL     1       0.760   5.908  21.514  0.00  0.00    +0.000 HD
ENDROOT
BRANCH   1  10
ATOM      5  N   UNL     1      -0.509  11.836  22.027  0.00  0.00    +0.000 N 
ATOM      6  C   UNL     1      -0.379  12.289  20.641  0.00  0.00    +0.000 C 
ATOM      7  C   UNL     1       0.398  11.400  19.668  0.00  0.00    +0.000 C 
ATOM      8  N   UNL     1       0.674  10.082  20.172  0.00  0.00    +0.000 N 
ATOM      9  C   UNL     1       1.325   9.081  19.521  0.00  0.00    +0.000 A 
ATOM     10  C   UNL     1       1.424   8.056  20.440  0.00  0.00    +0.000 A 
ATOM     11  N   UNL     1       0.811   8.434  21.629  0.00  0.00    +0.000 NA
ATOM     12  C   UNL     1       0.392   9.676  21.444  0.00  0.00    +0.000 A 
ATOM     13  C   UNL     1      -0.237  10.523  22.444  0.00  0.00    +0.000 C 
ATOM     14  O   UNL     1      -0.504  10.146  23.584  0.00  0.00    +0.000 OA
BRANCH   5  16
ATOM     15  C   UNL     1      -0.703  14.172  22.847  0.00  0.00    +0.000 C 
ATOM     16  C   UNL     1      -1.184  12.733  22.963  0.00  0.00    +0.000 C 
ENDBRANCH   5  16
ENDBRANCH   1  10
BRANCH   3  17
ATOM     17  C   UNL     1       2.230   4.440  20.950  0.00  0.00    +0.000 C 
BRANCH  17  18
ATOM     18  C   UNL     1       1.482   3.394  20.100  0.00  0.00    +0.000 C 
BRANCH  18  19
ATOM     19  N   UNL     1       2.336   2.379  19.448  0.00  0.00    +0.000 NA
ATOM     20  C   UNL     1       2.358   2.513  17.973  0.00  0.00    +0.000 C 
ATOM     21  C   UNL     1       2.966   3.840  17.474  0.00  0.00    +0.000 C 
ATOM     22  N   UNL     1       4.347   3.947  17.963  0.00  0.00    +0.000 N 
ATOM     23  C   UNL     1       4.539   3.736  19.411  0.00  0.00    +0.000 C 
ATOM     24  C   UNL     1       3.745   2.494  19.914  0.00  0.00    +0.000 C 
BRANCH  22  25
ATOM     25  C   UNL     1       5.302   4.574  17.171  0.00  0.00    +0.000 A 
ATOM     26  C   UNL     1       5.783   5.845  17.527  0.00  0.00    +0.000 A 
ATOM     27  C   UNL     1       6.845   6.453  16.842  0.00  0.00    +0.000 A 
ATOM     28  C   UNL     1       7.449   5.808  15.768  0.00  0.00    +0.000 A 
ATOM     29  C   UNL     1       6.980   4.558  15.370  0.00  0.00    +0.000 A 
ATOM     30  C   UNL     1       5.919   3.963  16.062  0.00  0.00    +0.000 A 
ATOM     31  F   UNL     1       5.500   2.769  15.613  0.00  0.00    +0.000 F 
ENDBRANCH  22  25
ENDBRANCH  18  19
ENDBRANCH  17  18
ENDBRANCH   3  17
TORSDOF 6
ENDMDL
MODEL 6
REMARK VINA RESULT:      -7.9      2.345      3.380
REMARK  Name = 
REMARK  7 active torsions:
REMARK  status: ('A' for Active; 'I' for Inactive)
REMARK    1  A    between atoms: C_1  and  C_2
REMARK    2  A    between atoms: C_2  and  N_3
REMARK    3  A    between atoms: C_8  and  C_9
REMARK    4  A    between atoms: N_11  and  C_12
REMARK    5  A    between atoms: C_12  and  C_13
REMARK    6  A    between atoms: C_13  and  N_14
REMARK    7  A    between atoms: N_17  and  C_18
REMARK                            x       y       z     vdW  Elec       q    Type
REMARK                         _______ _______ _______ _____ _____    ______ ____
ROOT
ATOM      1  C   UNL     1       2.395   7.657  18.669  0.00  0.00    +0.000 C 
ATOM      2  O   UNL     1       2.492   7.987  17.490  0.00  0.00    +0.000 OA
ATOM      3  N   UNL     1       2.985   6.528  19.186  0.00  0.00    +0.000 N 
ATOM      4  H   UNL     1       2.806   6.298  20.161  0.00  0.00    +0.000 HD
ENDROOT
BRANCH   1  10
ATOM      5  N   UNL     1      -1.021  11.315  21.924  0.00  0.00    +0.000 N 
ATOM      6  C   UNL     1      -0.759  10.412  23.047  0.00  0.00    +0.000 C 
ATOM      7  C   UNL     1       0.009   9.120  22.761  0.00  0.00    +0.000 C 
ATOM      8  N   UNL     1       0.625   9.080  21.463  0.00  0.00    +0.000 N 
ATOM      9  C   UNL     1       1.381   8.072  20.951  0.00  0.00    +0.000 A 
ATOM     10  C   UNL     1       1.663   8.453  19.655  0.00  0.00    +0.000 A 
ATOM     11  N   UNL     1       1.098   9.697  19.400  0.00  0.00    +0.000 NA
ATOM     12  C   UNL     1       0.452  10.037  20.505  0.00  0.00    +0.000 A 
ATOM     13  C   UNL     1      -0.365  11.225  20.685  0.00  0.00    +0.000 C 
ATOM     14  O   UNL     1      -0.503  12.092  19.825  0.00  0.00    +0.000 OA
BRANCH   5  16
ATOM     15  C   UNL     1      -1.142  13.466  23.158  0.00  0.00    +0.000 C 
ATOM     16  C   UNL     1      -1.824  12.505  22.196  0.00  0.00    +0.000 C 
ENDBRANCH   5  16
ENDBRANCH   1  10
BRANCH   3  17
ATOM     17  C   UNL     1       3.830   5.690  18.367  0.00  0.00    +0.000 C 
BRANCH  17  18
ATOM     18  C   UNL     1       5.249   5.493  18.934  0.00  0.00    +0.000 C 
BRANCH  18  19
ATOM     19  N   UNL     1       6.320   6.232  18.232  0.00  0.00    +0.000 NA
ATOM     20  C   UNL     1       7.393   5.343  17.729  0.00  0.00    +0.000 C 
ATOM     21  C   UNL     1       6.920   4.335  16.661  0.00  0.00    +0.000 C 
ATOM     22  N   UNL     1       6.365   5.073  15.519  0.00  0.00    +0.000 N 
ATOM     23  C   UNL     1       5.344   6.090  15.840  0.00  0.00    +0.000 C 
ATOM     24  C   UNL     1       5.776   6.963  17.056  0.00  0.00    +0.000 C 
BRANCH  22  25
ATOM     25  C   UNL     1       6.525   4.563  14.237  0.00  0.00    +0.000 A 
ATOM     26  C   UNL     1       5.591   3.649  13.723  0.00  0.00    +0.000 A 
ATOM     27  C   UNL     1       5.632   3.218  12.389  0.00  0.00    +0.000 A 
ATOM     28  C   UNL     1       6.624   3.683  11.532  0.00  0.00    +0.000 A 
ATOM     29  C   UNL     1       7.584   4.569  12.014  0.00  0.00    +0.000 A 
ATOM     30  C   UNL     1       7.531   4.991  13.347  0.00  0.00    +0.000 A 
ATOM     31  F   UNL     1       8.499   5.828  13.755  0.00  0.00    +0.000 F 
ENDBRANCH  22  25
ENDBRANCH  18  19
ENDBRANCH  17  18
ENDBRANCH   3  17
TORSDOF 6
ENDMDL
MODEL 7
REMARK VINA RESULT:      -7.8      6.628      9.868
REMARK  Name = 
REMARK  7 active torsions:
REMARK  status: ('A' for Active; 'I' for Inactive)
REMARK    1  A    between atoms: C_1  and  C_2
REMARK    2  A    between atoms: C_2  and  N_3
REMARK    3  A    between atoms: C_8  and  C_9
REMARK    4  A    between atoms: N_11  and  C_12
REMARK    5  A    between atoms: C_12  and  C_13
REMARK    6  A    between atoms: C_13  and  N_14
REMARK    7  A    between atoms: N_17  and  C_18
REMARK                            x       y       z     vdW  Elec       q    Type
REMARK                         _______ _______ _______ _____ _____    ______ ____
ROOT
ATOM      1  C   UNL     1       7.165   6.908  17.256  0.00  0.00    +0.000 C 
ATOM      2  O   UNL     1       7.805   6.626  16.246  0.00  0.00    +0.000 OA
ATOM      3  N   UNL     1       7.505   7.939  18.100  0.00  0.00    +0.000 N 
ATOM      4  H   UNL     1       6.955   8.066  18.946  0.00  0.00    +0.000 HD
ENDROOT
BRANCH   1  10
ATOM      5  N   UNL     1       2.768   3.584  19.550  0.00  0.00    +0.000 N 
ATOM      6  C   UNL     1       1.847   4.490  18.861  0.00  0.00    +0.000 C 
ATOM      7  C   UNL     1       2.439   5.715  18.162  0.00  0.00    +0.000 C 
ATOM      8  N   UNL     1       3.870   5.682  18.032  0.00  0.00    +0.000 N 
ATOM      9  C   UNL     1       4.657   6.620  17.440  0.00  0.00    +0.000 A 
ATOM     10  C   UNL     1       5.952   6.190  17.648  0.00  0.00    +0.000 A 
ATOM     11  N   UNL     1       5.939   4.985  18.341  0.00  0.00    +0.000 NA
ATOM     12  C   UNL     1       4.665   4.718  18.584  0.00  0.00    +0.000 A 
ATOM     13  C   UNL     1       4.160   3.598  19.359  0.00  0.00    +0.000 C 
ATOM     14  O   UNL     1       4.879   2.724  19.839  0.00  0.00    +0.000 OA
BRANCH   5  16
ATOM     15  C   UNL     1       1.614   2.875  21.631  0.00  0.00    +0.000 C 
ATOM     16  C   UNL     1       2.182   2.463  20.280  0.00  0.00    +0.000 C 
ENDBRANCH   5  16
ENDBRANCH   1  10
BRANCH   3  17
ATOM     17  C   UNL     1       8.617   8.811  17.798  0.00  0.00    +0.000 C 
BRANCH  17  18
ATOM     18  C   UNL     1       8.411  10.265  18.264  0.00  0.00    +0.000 C 
BRANCH  18  19
ATOM     19  N   UNL     1       9.543  11.180  18.002  0.00  0.00    +0.000 NA
ATOM     20  C   UNL     1       9.123  12.598  17.915  0.00  0.00    +0.000 C 
ATOM     21  C   UNL     1       8.531  13.156  19.225  0.00  0.00    +0.000 C 
ATOM     22  N   UNL     1       9.536  13.041  20.291  0.00  0.00    +0.000 N 
ATOM     23  C   UNL     1      10.150  11.711  20.460  0.00  0.00    +0.000 C 
ATOM     24  C   UNL     1      10.555  11.094  19.088  0.00  0.00    +0.000 C 
BRANCH  22  25
ATOM     25  C   UNL     1       9.591  14.016  21.280  0.00  0.00    +0.000 A 
ATOM     26  C   UNL     1       8.800  13.890  22.433  0.00  0.00    +0.000 A 
ATOM     27  C   UNL     1       8.927  14.770  23.519  0.00  0.00    +0.000 A 
ATOM     28  C   UNL     1       9.847  15.812  23.472  0.00  0.00    +0.000 A 
ATOM     29  C   UNL     1      10.629  15.984  22.334  0.00  0.00    +0.000 A 
ATOM     30  C   UNL     1      10.492  15.100  21.258  0.00  0.00    +0.000 A 
ATOM     31  F   UNL     1      11.259  15.334  20.181  0.00  0.00    +0.000 F 
ENDBRANCH  22  25
ENDBRANCH  18  19
ENDBRANCH  17  18
ENDBRANCH   3  17
TORSDOF 6
ENDMDL
MODEL 8
REMARK VINA RESULT:      -7.8      6.452      9.817
REMARK  Name = 
REMARK  7 active torsions:
REMARK  status: ('A' for Active; 'I' for Inactive)
REMARK    1  A    between atoms: C_1  and  C_2
REMARK    2  A    between atoms: C_2  and  N_3
REMARK    3  A    between atoms: C_8  and  C_9
REMARK    4  A    between atoms: N_11  and  C_12
REMARK    5  A    between atoms: C_12  and  C_13
REMARK    6  A    between atoms: C_13  and  N_14
REMARK    7  A    between atoms: N_17  and  C_18
REMARK                            x       y       z     vdW  Elec       q    Type
REMARK                         _______ _______ _______ _____ _____    ______ ____
ROOT
ATOM      1  C   UNL     1       7.225   7.304  17.292  0.00  0.00    +0.000 C 
ATOM      2  O   UNL     1       8.038   6.978  16.432  0.00  0.00    +0.000 OA
ATOM      3  N   UNL     1       7.339   8.453  18.039  0.00  0.00    +0.000 N 
ATOM      4  H   UNL     1       6.652   8.618  18.772  0.00  0.00    +0.000 HD
ENDROOT
BRANCH   1  10
ATOM      5  N   UNL     1       2.873   3.705  19.227  0.00  0.00    +0.000 N 
ATOM      6  C   UNL     1       1.952   4.573  18.492  0.00  0.00    +0.000 C 
ATOM      7  C   UNL     1       2.521   5.842  17.854  0.00  0.00    +0.000 C 
ATOM      8  N   UNL     1       3.957   5.888  17.822  0.00  0.00    +0.000 N 
ATOM      9  C   UNL     1       4.730   6.879  17.300  0.00  0.00    +0.000 A 
ATOM     10  C   UNL     1       6.029   6.515  17.589  0.00  0.00    +0.000 A 
ATOM     11  N   UNL     1       6.036   5.298  18.260  0.00  0.00    +0.000 NA
ATOM     12  C   UNL     1       4.765   4.958  18.411  0.00  0.00    +0.000 A 
ATOM     13  C   UNL     1       4.271   3.797  19.133  0.00  0.00    +0.000 C 
ATOM     14  O   UNL     1       5.003   2.954  19.647  0.00  0.00    +0.000 OA
BRANCH   5  16
ATOM     15  C   UNL     1       0.984   2.093  19.280  0.00  0.00    +0.000 C 
ATOM     16  C   UNL     1       2.301   2.540  19.898  0.00  0.00    +0.000 C 
ENDBRANCH   5  16
ENDBRANCH   1  10
BRANCH   3  17
ATOM     17  C   UNL     1       8.407   9.395  17.796  0.00  0.00    +0.000 C 
BRANCH  17  18
ATOM     18  C   UNL     1       8.970  10.042  19.076  0.00  0.00    +0.000 C 
BRANCH  18  19
ATOM     19  N   UNL     1      10.223  10.806  18.901  0.00  0.00    +0.000 NA
ATOM     20  C   UNL     1      10.188  11.701  17.721  0.00  0.00    +0.000 C 
ATOM     21  C   UNL     1       9.123  12.813  17.812  0.00  0.00    +0.000 C 
ATOM     22  N   UNL     1       9.388  13.634  19.001  0.00  0.00    +0.000 N 
ATOM     23  C   UNL     1       9.559  12.900  20.269  0.00  0.00    +0.000 C 
ATOM     24  C   UNL     1      10.490  11.664  20.087  0.00  0.00    +0.000 C 
BRANCH  22  25
ATOM     25  C   UNL     1       9.108  14.995  18.963  0.00  0.00    +0.000 A 
ATOM     26  C   UNL     1      10.111  15.908  18.600  0.00  0.00    +0.000 A 
ATOM     27  C   UNL     1       9.839  17.271  18.410  0.00  0.00    +0.000 A 
ATOM     28  C   UNL     1       8.550  17.761  18.594  0.00  0.00    +0.000 A 
ATOM     29  C   UNL     1       7.535  16.890  18.981  0.00  0.00    +0.000 A 
ATOM     30  C   UNL     1       7.821  15.532  19.167  0.00  0.00    +0.000 A 
ATOM     31  F   UNL     1       6.803  14.750  19.563  0.00  0.00    +0.000 F 
ENDBRANCH  22  25
ENDBRANCH  18  19
ENDBRANCH  17  18
ENDBRANCH   3  17
TORSDOF 6
ENDMDL
MODEL 9
REMARK VINA RESULT:      -7.7      6.022      8.121
REMARK  Name = 
REMARK  7 active torsions:
REMARK  status: ('A' for Active; 'I' for Inactive)
REMARK    1  A    between atoms: C_1  and  C_2
REMARK    2  A    between atoms: C_2  and  N_3
REMARK    3  A    between atoms: C_8  and  C_9
REMARK    4  A    between atoms: N_11  and  C_12
REMARK    5  A    between atoms: C_12  and  C_13
REMARK    6  A    between atoms: C_13  and  N_14
REMARK    7  A    between atoms: N_17  and  C_18
REMARK                            x       y       z     vdW  Elec       q    Type
REMARK                         _______ _______ _______ _____ _____    ______ ____
ROOT
ATOM      1  C   UNL     1       8.510   8.963  18.299  0.00  0.00    +0.000 C 
ATOM      2  O   UNL     1       8.927   8.276  19.227  0.00  0.00    +0.000 OA
ATOM      3  N   UNL     1       7.557   8.527  17.407  0.00  0.00    +0.000 N 
ATOM      4  H   UNL     1       7.311   9.140  16.633  0.00  0.00    +0.000 HD
ENDROOT
BRANCH   1  10
ATOM      5  N   UNL     1       9.518  14.822  17.749  0.00  0.00    +0.000 N 
ATOM      6  C   UNL     1      10.932  14.471  17.595  0.00  0.00    +0.000 C 
ATOM      7  C   UNL     1      11.331  13.008  17.795  0.00  0.00    +0.000 C 
ATOM      8  N   UNL     1      10.220  12.098  17.841  0.00  0.00    +0.000 N 
ATOM      9  C   UNL     1      10.278  10.747  17.987  0.00  0.00    +0.000 A 
ATOM     10  C   UNL     1       8.963  10.334  18.065  0.00  0.00    +0.000 A 
ATOM     11  N   UNL     1       8.120  11.432  17.941  0.00  0.00    +0.000 NA
ATOM     12  C   UNL     1       8.911  12.489  17.835  0.00  0.00    +0.000 A 
ATOM     13  C   UNL     1       8.480  13.875  17.767  0.00  0.00    +0.000 C 
ATOM     14  O   UNL     1       7.301  14.220  17.745  0.00  0.00    +0.000 OA
BRANCH   5  16
ATOM     15  C   UNL     1      10.332  17.099  17.182  0.00  0.00    +0.000 C 
ATOM     16  C   UNL     1       9.163  16.234  17.634  0.00  0.00    +0.000 C 
ENDBRANCH   5  16
ENDBRANCH   1  10
BRANCH   3  17
ATOM     17  C   UNL     1       6.931   7.235  17.562  0.00  0.00    +0.000 C 
BRANCH  17  18
ATOM     18  C   UNL     1       6.982   6.363  16.293  0.00  0.00    +0.000 C 
BRANCH  18  19
ATOM     19  N   UNL     1       5.680   6.128  15.633  0.00  0.00    +0.000 NA
ATOM     20  C   UNL     1       5.318   4.692  15.577  0.00  0.00    +0.000 C 
ATOM     21  C   UNL     1       5.119   4.043  16.962  0.00  0.00    +0.000 C 
ATOM     22  N   UNL     1       4.051   4.756  17.676  0.00  0.00    +0.000 N 
ATOM     23  C   UNL     1       4.187   6.224  17.744  0.00  0.00    +0.000 C 
ATOM     24  C   UNL     1       4.584   6.822  16.362  0.00  0.00    +0.000 C 
BRANCH  22  25
ATOM     25  C   UNL     1       3.214   4.048  18.528  0.00  0.00    +0.000 A 
ATOM     26  C   UNL     1       3.739   3.431  19.675  0.00  0.00    +0.000 A 
ATOM     27  C   UNL     1       2.914   2.829  20.637  0.00  0.00    +0.000 A 
ATOM     28  C   UNL     1       1.533   2.818  20.468  0.00  0.00    +0.000 A 
ATOM     29  C   UNL     1       0.978   3.395  19.329  0.00  0.00    +0.000 A 
ATOM     30  C   UNL     1       1.813   3.992  18.377  0.00  0.00    +0.000 A 
ATOM     31  F   UNL     1       1.217   4.511  17.292  0.00  0.00    +0.000 F 
ENDBRANCH  22  25
ENDBRANCH  18  19
ENDBRANCH  17  18
ENDBRANCH   3  17
TORSDOF 6
ENDMDL
