MODEL 1
REMARK VINA RESULT:      -8.8      0.000      0.000
REMARK  Name = 
REMARK  5 active torsions:
REMARK  status: ('A' for Active; 'I' for Inactive)
REMARK    1  A    between atoms: C_1  and  N_2
REMARK    2  A    between atoms: C_8  and  C_10
REMARK    3  A    between atoms: C_13  and  C_14
REMARK    4  A    between atoms: C_19  and  C_20
REMARK    5  A    between atoms: C_28  and  O_29
REMARK                            x       y       z     vdW  Elec       q    Type
REMARK                         _______ _______ _______ _____ _____    ______ ____
ROOT
ATOM      1  C   UNL     1       3.333   5.566  19.239  0.00  0.00    +0.000 A 
ATOM      2  N   UNL     1       4.654   5.814  19.294  0.00  0.00    +0.000 NA
ATOM      3  N   UNL     1       5.193   5.277  18.173  0.00  0.00    +0.000 N 
ATOM      4  C   UNL     1       6.544   5.174  17.830  0.00  0.00    +0.000 A 
ATOM      5  C   UNL     1       6.881   4.623  16.643  0.00  0.00    +0.000 A 
ATOM      6  C   UNL     1       5.850   4.162  15.715  0.00  0.00    +0.000 A 
ATOM      7  C   UNL     1       4.554   4.234  16.082  0.00  0.00    +0.000 A 
ATOM      8  C   UNL     1       4.187   4.792  17.341  0.00  0.00    +0.000 A 
ATOM      9  C   UNL     1       2.996   4.959  18.005  0.00  0.00    +0.000 A 
ATOM     10 CL   UNL     1       1.453   4.485  17.472  0.00  0.00    +0.000 Cl
ENDROOT
BRANCH   1  18
ATOM     11  C   UNL     1      -1.723  12.229  19.380  0.00  0.00    +0.000 C 
ATOM     12  N   UNL     1      -0.545  11.533  19.838  0.00  0.00    +0.000 N 
ATOM     13  C   UNL     1      -0.528  10.122  20.068  0.00  0.00    +0.000 C 
ATOM     14  C   UNL     1       0.865   9.904  20.658  0.00  0.00    +0.000 C 
ATOM     15  C   UNL     1       1.904   9.526  19.594  0.00  0.00    +0.000 C 
ATOM     16  C   UNL     1       1.710   8.103  19.082  0.00  0.00    +0.000 C 
ATOM     17  N   UNL     1       1.644   7.148  20.190  0.00  0.00    +0.000 N 
ATOM     18  C   UNL     1       2.396   5.961  20.310  0.00  0.00    +0.000 C 
ATOM     19  O   UNL     1       2.299   5.267  21.323  0.00  0.00    +0.000 OA
ATOM     20  C   UNL     1       0.639   7.447  21.225  0.00  0.00    +0.000 C 
ATOM     21  C   UNL     1       0.848   8.859  21.794  0.00  0.00    +0.000 C 
ATOM     22  O   UNL     1       1.216  11.205  21.179  0.00  0.00    +0.000 OA
ATOM     23  C   UNL     1       0.411  12.151  20.610  0.00  0.00    +0.000 C 
ATOM     24  O   UNL     1       0.521  13.349  20.805  0.00  0.00    +0.000 OA
BRANCH  21  25
ATOM     25  O   UNL     1       2.077   8.885  22.536  0.00  0.00    +0.000 OA
ATOM     26  H   UNL     1       2.807   8.683  21.924  0.00  0.00    +0.000 HD
ENDBRANCH  21  25
ENDBRANCH   1  18
BRANCH   4  27
ATOM     27  C   UNL     1       7.579   5.644  18.790  0.00  0.00    +0.000 C 
ATOM     28  F   UNL     1       7.214   5.696  20.093  0.00  0.00    +0.000 F 
ATOM     29  F   UNL     1       8.677   4.837  18.745  0.00  0.00    +0.000 F 
ATOM     30  F   UNL     1       8.019   6.888  18.460  0.00  0.00    +0.000 F 
ENDBRANCH   4  27
BRANCH   6  31
ATOM     31  C   UNL     1       6.315   3.591  14.440  0.00  0.00    +0.000 C 
ATOM     32  C   UNL     1       5.590   3.945  13.163  0.00  0.00    +0.000 C 
ATOM     33  C   UNL     1       6.967   4.481  13.410  0.00  0.00    +0.000 C 
ENDBRANCH   6  31
TORSDOF 4
ENDMDL
MODEL 2
REMARK VINA RESULT:      -8.6      0.789      1.006
REMARK  Name = 
REMARK  5 active torsions:
REMARK  status: ('A' for Active; 'I' for Inactive)
REMARK    1  A    between atoms: C_1  and  N_2
REMARK    2  A    between atoms: C_8  and  C_10
REMARK    3  A    between atoms: C_13  and  C_14
REMARK    4  A    between atoms: C_19  and  C_20
REMARK    5  A    between atoms: C_28  and  O_29
REMARK                            x       y       z     vdW  Elec       q    Type
REMARK                         _______ _______ _______ _____ _____    ______ ____
ROOT
ATOM      1  C   UNL     1       3.387   5.745  18.856  0.00  0.00    +0.000 A 
ATOM      2  N   UNL     1       4.502   6.448  18.584  0.00  0.00    +0.000 NA
ATOM      3  N   UNL     1       5.089   5.845  17.523  0.00  0.00    +0.000 N 
ATOM      4  C   UNL     1       6.327   6.134  16.943  0.00  0.00    +0.000 A 
ATOM      5  C   UNL     1       6.728   5.428  15.863  0.00  0.00    +0.000 A 
ATOM      6  C   UNL     1       5.872   4.391  15.289  0.00  0.00    +0.000 A 
ATOM      7  C   UNL     1       4.699   4.100  15.888  0.00  0.00    +0.000 A 
ATOM      8  C   UNL     1       4.275   4.822  17.041  0.00  0.00    +0.000 A 
ATOM      9  C   UNL     1       3.191   4.737  17.880  0.00  0.00    +0.000 A 
ATOM     10 CL   UNL     1       1.914   3.618  17.791  0.00  0.00    +0.000 Cl
ENDROOT
BRANCH   1  18
ATOM     11  C   UNL     1      -1.812  12.265  19.513  0.00  0.00    +0.000 C 
ATOM     12  N   UNL     1      -0.600  11.579  19.890  0.00  0.00    +0.000 N 
ATOM     13  C   UNL     1      -0.540  10.160  20.053  0.00  0.00    +0.000 C 
ATOM     14  C   UNL     1       0.881   9.951  20.574  0.00  0.00    +0.000 C 
ATOM     15  C   UNL     1       1.883   9.648  19.451  0.00  0.00    +0.000 C 
ATOM     16  C   UNL     1       1.701   8.244  18.882  0.00  0.00    +0.000 C 
ATOM     17  N   UNL     1       1.704   7.239  19.948  0.00  0.00    +0.000 N 
ATOM     18  C   UNL     1       2.488   6.068  19.982  0.00  0.00    +0.000 C 
ATOM     19  O   UNL     1       2.449   5.326  20.964  0.00  0.00    +0.000 OA
ATOM     20  C   UNL     1       0.737   7.465  21.036  0.00  0.00    +0.000 C 
ATOM     21  C   UNL     1       0.937   8.855  21.660  0.00  0.00    +0.000 C 
ATOM     22  O   UNL     1       1.224  11.235  21.140  0.00  0.00    +0.000 OA
ATOM     23  C   UNL     1       0.374  12.185  20.649  0.00  0.00    +0.000 C 
ATOM     24  O   UNL     1       0.464  13.375  20.895  0.00  0.00    +0.000 OA
BRANCH  21  25
ATOM     25  O   UNL     1       2.196   8.878  22.351  0.00  0.00    +0.000 OA
ATOM     26  H   UNL     1       2.017   8.940  23.306  0.00  0.00    +0.000 HD
ENDBRANCH  21  25
ENDBRANCH   1  18
BRANCH   4  27
ATOM     27  C   UNL     1       7.186   7.189  17.544  0.00  0.00    +0.000 C 
ATOM     28  F   UNL     1       6.584   8.368  17.829  0.00  0.00    +0.000 F 
ATOM     29  F   UNL     1       7.727   6.757  18.718  0.00  0.00    +0.000 F 
ATOM     30  F   UNL     1       8.241   7.478  16.734  0.00  0.00    +0.000 F 
ENDBRANCH   4  27
BRANCH   6  31
ATOM     31  C   UNL     1       6.390   3.688  14.104  0.00  0.00    +0.000 C 
ATOM     32  C   UNL     1       5.609   3.744  12.811  0.00  0.00    +0.000 C 
ATOM     33  C   UNL     1       6.911   4.477  12.927  0.00  0.00    +0.000 C 
ENDBRANCH   6  31
TORSDOF 4
ENDMDL
MODEL 3
REMARK VINA RESULT:      -7.6      3.207      5.502
REMARK  Name = 
REMARK  5 active torsions:
REMARK  status: ('A' for Active; 'I' for Inactive)
REMARK    1  A    between atoms: C_1  and  N_2
REMARK    2  A    between atoms: C_8  and  C_10
REMARK    3  A    between atoms: C_13  and  C_14
REMARK    4  A    between atoms: C_19  and  C_20
REMARK    5  A    between atoms: C_28  and  O_29
REMARK                            x       y       z     vdW  Elec       q    Type
REMARK                         _______ _______ _______ _____ _____    ______ ____
ROOT
ATOM      1  C   UNL     1       1.464   9.260  19.541  0.00  0.00    +0.000 A 
ATOM      2  N   UNL     1       2.208   8.660  18.594  0.00  0.00    +0.000 NA
ATOM      3  N   UNL     1       2.447   7.401  19.032  0.00  0.00    +0.000 N 
ATOM      4  C   UNL     1       3.269   6.429  18.456  0.00  0.00    +0.000 A 
ATOM      5  C   UNL     1       3.355   5.212  19.037  0.00  0.00    +0.000 A 
ATOM      6  C   UNL     1       2.582   4.903  20.239  0.00  0.00    +0.000 A 
ATOM      7  C   UNL     1       1.826   5.867  20.802  0.00  0.00    +0.000 A 
ATOM      8  C   UNL     1       1.745   7.162  20.212  0.00  0.00    +0.000 A 
ATOM      9  C   UNL     1       1.119   8.335  20.557  0.00  0.00    +0.000 A 
ATOM     10 CL   UNL     1       0.176   8.622  21.941  0.00  0.00    +0.000 Cl
ENDROOT
BRANCH   1  18
ATOM     11  C   UNL     1      -6.359  12.207  19.850  0.00  0.00    +0.000 C 
ATOM     12  N   UNL     1      -5.158  11.900  19.112  0.00  0.00    +0.000 N 
ATOM     13  C   UNL     1      -3.850  12.105  19.652  0.00  0.00    +0.000 C 
ATOM     14  C   UNL     1      -2.950  11.767  18.464  0.00  0.00    +0.000 C 
ATOM     15  C   UNL     1      -2.488  10.303  18.472  0.00  0.00    +0.000 C 
ATOM     16  C   UNL     1      -1.451  10.034  19.557  0.00  0.00    +0.000 C 
ATOM     17  N   UNL     1      -0.343  10.989  19.476  0.00  0.00    +0.000 N 
ATOM     18  C   UNL     1       1.030  10.669  19.449  0.00  0.00    +0.000 C 
ATOM     19  O   UNL     1       1.870  11.559  19.317  0.00  0.00    +0.000 OA
ATOM     20  C   UNL     1      -0.729  12.410  19.498  0.00  0.00    +0.000 C 
ATOM     21  C   UNL     1      -1.736  12.717  18.378  0.00  0.00    +0.000 C 
ATOM     22  O   UNL     1      -3.815  11.953  17.323  0.00  0.00    +0.000 OA
ATOM     23  C   UNL     1      -5.117  11.947  17.737  0.00  0.00    +0.000 C 
ATOM     24  O   UNL     1      -6.073  12.015  16.986  0.00  0.00    +0.000 OA
BRANCH  21  25
ATOM     25  O   UNL     1      -1.074  12.593  17.110  0.00  0.00    +0.000 OA
ATOM     26  H   UNL     1      -0.450  11.847  17.163  0.00  0.00    +0.000 HD
ENDBRANCH  21  25
ENDBRANCH   1  18
BRANCH   4  27
ATOM     27  C   UNL     1       4.051   6.764  17.236  0.00  0.00    +0.000 C 
ATOM     28  F   UNL     1       3.480   7.640  16.376  0.00  0.00    +0.000 F 
ATOM     29  F   UNL     1       5.255   7.306  17.572  0.00  0.00    +0.000 F 
ATOM     30  F   UNL     1       4.335   5.643  16.518  0.00  0.00    +0.000 F 
ENDBRANCH   4  27
BRANCH   6  31
ATOM     31  C   UNL     1       2.731   3.545  20.790  0.00  0.00    +0.000 C 
ATOM     32  C   UNL     1       1.495   2.739  21.115  0.00  0.00    +0.000 C 
ATOM     33  C   UNL     1       2.356   2.347  19.952  0.00  0.00    +0.000 C 
ENDBRANCH   6  31
TORSDOF 4
ENDMDL
MODEL 4
REMARK VINA RESULT:      -7.2      4.367      6.380
REMARK  Name = 
REMARK  5 active torsions:
REMARK  status: ('A' for Active; 'I' for Inactive)
REMARK    1  A    between atoms: C_1  and  N_2
REMARK    2  A    between atoms: C_8  and  C_10
REMARK    3  A    between atoms: C_13  and  C_14
REMARK    4  A    between atoms: C_19  and  C_20
REMARK    5  A    between atoms: C_28  and  O_29
REMARK                            x       y       z     vdW  Elec       q    Type
REMARK                         _______ _______ _______ _____ _____    ______ ____
ROOT
ATOM      1  C   UNL     1       0.664  10.437  21.127  0.00  0.00    +0.000 A 
ATOM      2  N   UNL     1       1.112  10.073  19.911  0.00  0.00    +0.000 NA
ATOM      3  N   UNL     1       1.412   8.755  19.991  0.00  0.00    +0.000 N 
ATOM      4  C   UNL     1       2.019   7.948  19.024  0.00  0.00    +0.000 A 
ATOM      5  C   UNL     1       2.211   6.637  19.287  0.00  0.00    +0.000 A 
ATOM      6  C   UNL     1       1.770   6.058  20.555  0.00  0.00    +0.000 A 
ATOM      7  C   UNL     1       1.224   6.861  21.491  0.00  0.00    +0.000 A 
ATOM      8  C   UNL     1       1.036   8.250  21.235  0.00  0.00    +0.000 A 
ATOM      9  C   UNL     1       0.566   9.307  21.975  0.00  0.00    +0.000 A 
ATOM     10 CL   UNL     1       0.030   9.267  23.588  0.00  0.00    +0.000 Cl
ENDROOT
BRANCH   1  18
ATOM     11  C   UNL     1       2.624  17.417  16.954  0.00  0.00    +0.000 C 
ATOM     12  N   UNL     1       2.778  16.548  18.095  0.00  0.00    +0.000 N 
ATOM     13  C   UNL     1       1.676  15.857  18.689  0.00  0.00    +0.000 C 
ATOM     14  C   UNL     1       2.320  15.201  19.909  0.00  0.00    +0.000 C 
ATOM     15  C   UNL     1       2.789  13.767  19.629  0.00  0.00    +0.000 C 
ATOM     16  C   UNL     1       1.621  12.794  19.508  0.00  0.00    +0.000 C 
ATOM     17  N   UNL     1       0.728  12.895  20.665  0.00  0.00    +0.000 N 
ATOM     18  C   UNL     1       0.272  11.822  21.457  0.00  0.00    +0.000 C 
ATOM     19  O   UNL     1      -0.430  12.039  22.447  0.00  0.00    +0.000 OA
ATOM     20  C   UNL     1       0.223  14.247  20.959  0.00  0.00    +0.000 C 
ATOM     21  C   UNL     1       1.386  15.235  21.138  0.00  0.00    +0.000 C 
ATOM     22  O   UNL     1       3.492  16.012  20.147  0.00  0.00    +0.000 OA
ATOM     23  C   UNL     1       3.776  16.735  19.023  0.00  0.00    +0.000 C 
ATOM     24  O   UNL     1       4.749  17.458  18.904  0.00  0.00    +0.000 OA
BRANCH  21  25
ATOM     25  O   UNL     1       2.101  14.901  22.338  0.00  0.00    +0.000 OA
ATOM     26  H   UNL     1       2.998  15.273  22.271  0.00  0.00    +0.000 HD
ENDBRANCH  21  25
ENDBRANCH   1  18
BRANCH   4  27
ATOM     27  C   UNL     1       2.464   8.557  17.742  0.00  0.00    +0.000 C 
ATOM     28  F   UNL     1       3.261   9.648  17.836  0.00  0.00    +0.000 F 
ATOM     29  F   UNL     1       3.162   7.653  16.998  0.00  0.00    +0.000 F 
ATOM     30  F   UNL     1       1.397   8.920  16.979  0.00  0.00    +0.000 F 
ENDBRANCH   4  27
BRANCH   6  31
ATOM     31  C   UNL     1       2.010   4.618  20.742  0.00  0.00    +0.000 C 
ATOM     32  C   UNL     1       0.954   3.629  20.307  0.00  0.00    +0.000 C 
ATOM     33  C   UNL     1       2.239   3.730  19.543  0.00  0.00    +0.000 C 
ENDBRANCH   6  31
TORSDOF 4
ENDMDL
MODEL 5
REMARK VINA RESULT:      -7.1      6.975      9.135
REMARK  Name = 
REMARK  5 active torsions:
REMARK  status: ('A' for Active; 'I' for Inactive)
REMARK    1  A    between atoms: C_1  and  N_2
REMARK    2  A    between atoms: C_8  and  C_10
REMARK    3  A    between atoms: C_13  and  C_14
REMARK    4  A    between atoms: C_19  and  C_20
REMARK    5  A    between atoms: C_28  and  O_29
REMARK                            x       y       z     vdW  Elec       q    Type
REMARK                         _______ _______ _______ _____ _____    ______ ____
ROOT
ATOM      1  C   UNL     1       0.717  13.698  21.096  0.00  0.00    +0.000 A 
ATOM      2  N   UNL     1       0.775  12.412  21.488  0.00  0.00    +0.000 NA
ATOM      3  N   UNL     1       0.137  11.690  20.536  0.00  0.00    +0.000 N 
ATOM      4  C   UNL     1      -0.167  10.326  20.548  0.00  0.00    +0.000 A 
ATOM      5  C   UNL     1      -0.792   9.782  19.480  0.00  0.00    +0.000 A 
ATOM      6  C   UNL     1      -1.126  10.600  18.315  0.00  0.00    +0.000 A 
ATOM      7  C   UNL     1      -0.861  11.922  18.340  0.00  0.00    +0.000 A 
ATOM      8  C   UNL     1      -0.223  12.512  19.470  0.00  0.00    +0.000 A 
ATOM      9  C   UNL     1       0.130  13.795  19.810  0.00  0.00    +0.000 A 
ATOM     10 CL   UNL     1      -0.134  15.204  18.897  0.00  0.00    +0.000 Cl
ENDROOT
BRANCH   1  18
ATOM     11  C   UNL     1       7.934  17.749  19.883  0.00  0.00    +0.000 C 
ATOM     12  N   UNL     1       7.124  16.816  20.628  0.00  0.00    +0.000 N 
ATOM     13  C   UNL     1       5.734  17.034  20.877  0.00  0.00    +0.000 C 
ATOM     14  C   UNL     1       5.379  15.865  21.795  0.00  0.00    +0.000 C 
ATOM     15  C   UNL     1       4.831  14.656  21.025  0.00  0.00    +0.000 C 
ATOM     16  C   UNL     1       3.418  14.899  20.504  0.00  0.00    +0.000 C 
ATOM     17  N   UNL     1       2.530  15.352  21.577  0.00  0.00    +0.000 N 
ATOM     18  C   UNL     1       1.270  14.809  21.897  0.00  0.00    +0.000 C 
ATOM     19  O   UNL     1       0.639  15.236  22.865  0.00  0.00    +0.000 OA
ATOM     20  C   UNL     1       2.995  16.532  22.327  0.00  0.00    +0.000 C 
ATOM     21  C   UNL     1       4.396  16.289  22.908  0.00  0.00    +0.000 C 
ATOM     22  O   UNL     1       6.651  15.489  22.366  0.00  0.00    +0.000 OA
ATOM     23  C   UNL     1       7.659  16.005  21.602  0.00  0.00    +0.000 C 
ATOM     24  O   UNL     1       8.843  15.794  21.799  0.00  0.00    +0.000 OA
BRANCH  21  25
ATOM     25  O   UNL     1       4.310  15.284  23.930  0.00  0.00    +0.000 OA
ATOM     26  H   UNL     1       4.436  15.715  24.793  0.00  0.00    +0.000 HD
ENDBRANCH  21  25
ENDBRANCH   1  18
BRANCH   4  27
ATOM     27  C   UNL     1       0.177   9.512  21.744  0.00  0.00    +0.000 C 
ATOM     28  F   UNL     1      -0.293   9.958  22.933  0.00  0.00    +0.000 F 
ATOM     29  F   UNL     1      -0.298   8.241  21.612  0.00  0.00    +0.000 F 
ATOM     30  F   UNL     1       1.525   9.393  21.880  0.00  0.00    +0.000 F 
ENDBRANCH   4  27
BRANCH   6  31
ATOM     31  C   UNL     1      -1.792   9.914  17.195  0.00  0.00    +0.000 C 
ATOM     32  C   UNL     1      -3.301   9.876  17.143  0.00  0.00    +0.000 C 
ATOM     33  C   UNL     1      -2.543  10.716  16.160  0.00  0.00    +0.000 C 
ENDBRANCH   6  31
TORSDOF 4
ENDMDL
MODEL 6
REMARK VINA RESULT:      -7.0      6.125      8.718
REMARK  Name = 
REMARK  5 active torsions:
REMARK  status: ('A' for Active; 'I' for Inactive)
REMARK    1  A    between atoms: C_1  and  N_2
REMARK    2  A    between atoms: C_8  and  C_10
REMARK    3  A    between atoms: C_13  and  C_14
REMARK    4  A    between atoms: C_19  and  C_20
REMARK    5  A    between atoms: C_28  and  O_29
REMARK                            x       y       z     vdW  Elec       q    Type
REMARK                         _______ _______ _______ _____ _____    ______ ____
ROOT
ATOM      1  C   UNL     1       0.240  13.180  20.554  0.00  0.00    +0.000 A 
ATOM      2  N   UNL     1       0.853  12.162  19.923  0.00  0.00    +0.000 NA
ATOM      3  N   UNL     1      -0.086  11.568  19.148  0.00  0.00    +0.000 N 
ATOM      4  C   UNL     1       0.034  10.398  18.392  0.00  0.00    +0.000 A 
ATOM      5  C   UNL     1      -1.020   9.979  17.658  0.00  0.00    +0.000 A 
ATOM      6  C   UNL     1      -2.264  10.747  17.631  0.00  0.00    +0.000 A 
ATOM      7  C   UNL     1      -2.372  11.851  18.399  0.00  0.00    +0.000 A 
ATOM      8  C   UNL     1      -1.276  12.291  19.195  0.00  0.00    +0.000 A 
ATOM      9  C   UNL     1      -1.092  13.316  20.091  0.00  0.00    +0.000 A 
ATOM     10 CL   UNL     1      -2.243  14.469  20.575  0.00  0.00    +0.000 Cl
ENDROOT
BRANCH   1  18
ATOM     11  C   UNL     1       7.171  17.704  19.347  0.00  0.00    +0.000 C 
ATOM     12  N   UNL     1       6.493  16.570  19.927  0.00  0.00    +0.000 N 
ATOM     13  C   UNL     1       5.166  16.653  20.450  0.00  0.00    +0.000 C 
ATOM     14  C   UNL     1       4.964  15.264  21.054  0.00  0.00    +0.000 C 
ATOM     15  C   UNL     1       4.288  14.290  20.080  0.00  0.00    +0.000 C 
ATOM     16  C   UNL     1       2.810  14.608  19.884  0.00  0.00    +0.000 C 
ATOM     17  N   UNL     1       2.117  14.713  21.171  0.00  0.00    +0.000 N 
ATOM     18  C   UNL     1       0.926  14.051  21.529  0.00  0.00    +0.000 C 
ATOM     19  O   UNL     1       0.470  14.170  22.667  0.00  0.00    +0.000 OA
ATOM     20  C   UNL     1       2.708  15.660  22.132  0.00  0.00    +0.000 C 
ATOM     21  C   UNL     1       4.186  15.327  22.385  0.00  0.00    +0.000 C 
ATOM     22  O   UNL     1       6.313  14.799  21.283  0.00  0.00    +0.000 OA
ATOM     23  C   UNL     1       7.180  15.546  20.537  0.00  0.00    +0.000 C 
ATOM     24  O   UNL     1       8.379  15.339  20.473  0.00  0.00    +0.000 OA
BRANCH  21  25
ATOM     25  O   UNL     1       4.267  14.077  23.089  0.00  0.00    +0.000 OA
ATOM     26  H   UNL     1       5.086  14.077  23.615  0.00  0.00    +0.000 HD
ENDBRANCH  21  25
ENDBRANCH   1  18
BRANCH   4  27
ATOM     27  C   UNL     1       1.305   9.628  18.436  0.00  0.00    +0.000 C 
ATOM     28  F   UNL     1       1.384   8.546  17.624  0.00  0.00    +0.000 F 
ATOM     29  F   UNL     1       2.360  10.422  18.097  0.00  0.00    +0.000 F 
ATOM     30  F   UNL     1       1.563   9.186  19.697  0.00  0.00    +0.000 F 
ENDBRANCH   4  27
BRANCH   6  31
ATOM     31  C   UNL     1      -3.350  10.217  16.790  0.00  0.00    +0.000 C 
ATOM     32  C   UNL     1      -3.762  10.976  15.550  0.00  0.00    +0.000 C 
ATOM     33  C   UNL     1      -3.040   9.669  15.417  0.00  0.00    +0.000 C 
ENDBRANCH   6  31
TORSDOF 4
ENDMDL
MODEL 7
REMARK VINA RESULT:      -7.0      4.533      6.655
REMARK  Name = 
REMARK  5 active torsions:
REMARK  status: ('A' for Active; 'I' for Inactive)
REMARK    1  A    between atoms: C_1  and  N_2
REMARK    2  A    between atoms: C_8  and  C_10
REMARK    3  A    between atoms: C_13  and  C_14
REMARK    4  A    between atoms: C_19  and  C_20
REMARK    5  A    between atoms: C_28  and  O_29
REMARK                            x       y       z     vdW  Elec       q    Type
REMARK                         _______ _______ _______ _____ _____    ______ ____
ROOT
ATOM      1  C   UNL     1       0.196  10.703  21.530  0.00  0.00    +0.000 A 
ATOM      2  N   UNL     1       0.558  10.517  20.247  0.00  0.00    +0.000 NA
ATOM      3  N   UNL     1       1.041   9.254  20.163  0.00  0.00    +0.000 N 
ATOM      4  C   UNL     1       1.646   8.633  19.067  0.00  0.00    +0.000 A 
ATOM      5  C   UNL     1       2.040   7.345  19.175  0.00  0.00    +0.000 A 
ATOM      6  C   UNL     1       1.818   6.598  20.412  0.00  0.00    +0.000 A 
ATOM      7  C   UNL     1       1.270   7.228  21.472  0.00  0.00    +0.000 A 
ATOM      8  C   UNL     1       0.870   8.592  21.378  0.00  0.00    +0.000 A 
ATOM      9  C   UNL     1       0.341   9.500  22.263  0.00  0.00    +0.000 A 
ATOM     10 CL   UNL     1      -0.011   9.239  23.905  0.00  0.00    +0.000 Cl
ENDROOT
BRANCH   1  18
ATOM     11  C   UNL     1      -0.550  17.916  17.361  0.00  0.00    +0.000 C 
ATOM     12  N   UNL     1       0.098  17.101  18.360  0.00  0.00    +0.000 N 
ATOM     13  C   UNL     1      -0.625  16.205  19.207  0.00  0.00    +0.000 C 
ATOM     14  C   UNL     1       0.464  15.698  20.151  0.00  0.00    +0.000 C 
ATOM     15  C   UNL     1       1.099  14.386  19.668  0.00  0.00    +0.000 C 
ATOM     16  C   UNL     1       0.159  13.197  19.836  0.00  0.00    +0.000 C 
ATOM     17  N   UNL     1      -0.357  13.121  21.205  0.00  0.00    +0.000 N 
ATOM     18  C   UNL     1      -0.343  11.981  22.035  0.00  0.00    +0.000 C 
ATOM     19  O   UNL     1      -0.752  12.056  23.195  0.00  0.00    +0.000 OA
ATOM     20  C   UNL     1      -1.006  14.344  21.707  0.00  0.00    +0.000 C 
ATOM     21  C   UNL     1      -0.057  15.547  21.596  0.00  0.00    +0.000 C 
ATOM     22  O   UNL     1       1.472  16.730  20.085  0.00  0.00    +0.000 OA
ATOM     23  C   UNL     1       1.268  17.490  18.969  0.00  0.00    +0.000 C 
ATOM     24  O   UNL     1       2.004  18.394  18.614  0.00  0.00    +0.000 OA
BRANCH  21  25
ATOM     25  O   UNL     1       1.029  15.370  22.519  0.00  0.00    +0.000 OA
ATOM     26  H   UNL     1       0.706  14.844  23.272  0.00  0.00    +0.000 HD
ENDBRANCH  21  25
ENDBRANCH   1  18
BRANCH   4  27
ATOM     27  C   UNL     1       1.867   9.410  17.819  0.00  0.00    +0.000 C 
ATOM     28  F   UNL     1       2.509  10.596  17.952  0.00  0.00    +0.000 F 
ATOM     29  F   UNL     1       2.604   8.689  16.928  0.00  0.00    +0.000 F 
ATOM     30  F   UNL     1       0.687   9.677  17.196  0.00  0.00    +0.000 F 
ENDBRANCH   4  27
BRANCH   6  31
ATOM     31  C   UNL     1       2.269   5.197  20.428  0.00  0.00    +0.000 C 
ATOM     32  C   UNL     1       1.243   4.089  20.387  0.00  0.00    +0.000 C 
ATOM     33  C   UNL     1       2.114   4.342  19.194  0.00  0.00    +0.000 C 
ENDBRANCH   6  31
TORSDOF 4
ENDMDL
MODEL 8
REMARK VINA RESULT:      -6.8      4.541      6.857
REMARK  Name = 
REMARK  5 active torsions:
REMARK  status: ('A' for Active; 'I' for Inactive)
REMARK    1  A    between atoms: C_1  and  N_2
REMARK    2  A    between atoms: C_8  and  C_10
REMARK    3  A    between atoms: C_13  and  C_14
REMARK    4  A    between atoms: C_19  and  C_20
REMARK    5  A    between atoms: C_28  and  O_29
REMARK                            x       y       z     vdW  Elec       q    Type
REMARK                         _______ _______ _______ _____ _____    ______ ____
ROOT
ATOM      1  C   UNL     1       0.549  10.912  21.218  0.00  0.00    +0.000 A 
ATOM      2  N   UNL     1       0.956  10.555  19.986  0.00  0.00    +0.000 NA
ATOM      3  N   UNL     1       1.255   9.235  20.048  0.00  0.00    +0.000 N 
ATOM      4  C   UNL     1       1.828   8.433  19.056  0.00  0.00    +0.000 A 
ATOM      5  C   UNL     1       2.024   7.120  19.305  0.00  0.00    +0.000 A 
ATOM      6  C   UNL     1       1.623   6.534  20.583  0.00  0.00    +0.000 A 
ATOM      7  C   UNL     1       1.110   7.332  21.541  0.00  0.00    +0.000 A 
ATOM      8  C   UNL     1       0.918   8.724  21.300  0.00  0.00    +0.000 A 
ATOM      9  C   UNL     1       0.475   9.777  22.062  0.00  0.00    +0.000 A 
ATOM     10 CL   UNL     1      -0.008   9.728  23.690  0.00  0.00    +0.000 Cl
ENDROOT
BRANCH   1  18
ATOM     11  C   UNL     1      -7.100  13.821  22.951  0.00  0.00    +0.000 C 
ATOM     12  N   UNL     1      -5.964  13.713  22.067  0.00  0.00    +0.000 N 
ATOM     13  C   UNL     1      -4.617  13.723  22.544  0.00  0.00    +0.000 C 
ATOM     14  C   UNL     1      -3.811  13.724  21.245  0.00  0.00    +0.000 C 
ATOM     15  C   UNL     1      -3.415  12.311  20.796  0.00  0.00    +0.000 C 
ATOM     16  C   UNL     1      -2.321  11.714  21.675  0.00  0.00    +0.000 C 
ATOM     17  N   UNL     1      -1.180  12.626  21.791  0.00  0.00    +0.000 N 
ATOM     18  C   UNL     1       0.172  12.296  21.569  0.00  0.00    +0.000 C 
ATOM     19  O   UNL     1       1.041  13.167  21.637  0.00  0.00    +0.000 OA
ATOM     20  C   UNL     1      -1.502  13.988  22.250  0.00  0.00    +0.000 C 
ATOM     21  C   UNL     1      -2.565  14.630  21.345  0.00  0.00    +0.000 C 
ATOM     22  O   UNL     1      -4.740  14.254  20.274  0.00  0.00    +0.000 OA
ATOM     23  C   UNL     1      -6.011  14.158  20.766  0.00  0.00    +0.000 C 
ATOM     24  O   UNL     1      -7.011  14.462  20.141  0.00  0.00    +0.000 OA
BRANCH  21  25
ATOM     25  O   UNL     1      -1.993  14.865  20.049  0.00  0.00    +0.000 OA
ATOM     26  H   UNL     1      -1.736  14.006  19.669  0.00  0.00    +0.000 HD
ENDBRANCH  21  25
ENDBRANCH   1  18
BRANCH   4  27
ATOM     27  C   UNL     1       2.233   9.048  17.765  0.00  0.00    +0.000 C 
ATOM     28  F   UNL     1       2.950  10.195  17.841  0.00  0.00    +0.000 F 
ATOM     29  F   UNL     1       2.997   8.183  17.039  0.00  0.00    +0.000 F 
ATOM     30  F   UNL     1       1.146   9.321  16.993  0.00  0.00    +0.000 F 
ENDBRANCH   4  27
BRANCH   6  31
ATOM     31  C   UNL     1       1.864   5.091  20.754  0.00  0.00    +0.000 C 
ATOM     32  C   UNL     1       0.789   4.109  20.352  0.00  0.00    +0.000 C 
ATOM     33  C   UNL     1       2.046   4.209  19.542  0.00  0.00    +0.000 C 
ENDBRANCH   6  31
TORSDOF 4
ENDMDL
MODEL 9
REMARK VINA RESULT:      -6.8      7.954     11.369
REMARK  Name = 
REMARK  5 active torsions:
REMARK  status: ('A' for Active; 'I' for Inactive)
REMARK    1  A    between atoms: C_1  and  N_2
REMARK    2  A    between atoms: C_8  and  C_10
REMARK    3  A    between atoms: C_13  and  C_14
REMARK    4  A    between atoms: C_19  and  C_20
REMARK    5  A    between atoms: C_28  and  O_29
REMARK                            x       y       z     vdW  Elec       q    Type
REMARK                         _______ _______ _______ _____ _____    ______ ____
ROOT
ATOM      1  C   UNL     1      -2.114  11.935  20.162  0.00  0.00    +0.000 A 
ATOM      2  N   UNL     1      -3.088  11.911  19.234  0.00  0.00    +0.000 NA
ATOM      3  N   UNL     1      -4.234  12.256  19.869  0.00  0.00    +0.000 N 
ATOM      4  C   UNL     1      -5.535  12.261  19.359  0.00  0.00    +0.000 A 
ATOM      5  C   UNL     1      -6.551  12.668  20.151  0.00  0.00    +0.000 A 
ATOM      6  C   UNL     1      -6.296  13.120  21.518  0.00  0.00    +0.000 A 
ATOM      7  C   UNL     1      -5.039  13.069  22.005  0.00  0.00    +0.000 A 
ATOM      8  C   UNL     1      -3.962  12.621  21.186  0.00  0.00    +0.000 A 
ATOM      9  C   UNL     1      -2.620  12.416  21.395  0.00  0.00    +0.000 A 
ATOM     10 CL   UNL     1      -1.765  12.644  22.846  0.00  0.00    +0.000 Cl
ENDROOT
BRANCH   1  18
ATOM     11  C   UNL     1       4.647  16.819  20.795  0.00  0.00    +0.000 C 
ATOM     12  N   UNL     1       3.666  16.125  19.996  0.00  0.00    +0.000 N 
ATOM     13  C   UNL     1       3.171  14.829  20.343  0.00  0.00    +0.000 C 
ATOM     14  C   UNL     1       2.288  14.485  19.144  0.00  0.00    +0.000 C 
ATOM     15  C   UNL     1       0.819  14.870  19.365  0.00  0.00    +0.000 C 
ATOM     16  C   UNL     1       0.126  13.944  20.359  0.00  0.00    +0.000 C 
ATOM     17  N   UNL     1       0.307  12.539  19.986  0.00  0.00    +0.000 N 
ATOM     18  C   UNL     1      -0.713  11.573  19.866  0.00  0.00    +0.000 C 
ATOM     19  O   UNL     1      -0.445  10.433  19.484  0.00  0.00    +0.000 OA
ATOM     20  C   UNL     1       1.703  12.109  19.794  0.00  0.00    +0.000 C 
ATOM     21  C   UNL     1       2.406  12.996  18.755  0.00  0.00    +0.000 C 
ATOM     22  O   UNL     1       2.812  15.323  18.090  0.00  0.00    +0.000 OA
ATOM     23  C   UNL     1       3.557  16.327  18.640  0.00  0.00    +0.000 C 
ATOM     24  O   UNL     1       4.068  17.228  17.999  0.00  0.00    +0.000 OA
BRANCH  21  25
ATOM     25  O   UNL     1       1.824  12.754  17.464  0.00  0.00    +0.000 OA
ATOM     26  H   UNL     1       1.058  12.164  17.582  0.00  0.00    +0.000 HD
ENDBRANCH  21  25
ENDBRANCH   1  18
BRANCH   4  27
ATOM     27  C   UNL     1      -5.775  11.793  17.968  0.00  0.00    +0.000 C 
ATOM     28  F   UNL     1      -7.069  11.699  17.577  0.00  0.00    +0.000 F 
ATOM     29  F   UNL     1      -5.177  12.626  17.071  0.00  0.00    +0.000 F 
ATOM     30  F   UNL     1      -5.219  10.567  17.764  0.00  0.00    +0.000 F 
ENDBRANCH   4  27
BRANCH   6  31
ATOM     31  C   UNL     1      -7.465  13.558  22.299  0.00  0.00    +0.000 C 
ATOM     32  C   UNL     1      -7.914  12.735  23.483  0.00  0.00    +0.000 C 
ATOM     33  C   UNL     1      -7.281  14.075  23.705  0.00  0.00    +0.000 C 
ENDBRANCH   6  31
TORSDOF 4
ENDMDL
