MODEL 1
REMARK VINA RESULT:      -7.5      0.000      0.000
REMARK  Name = 
REMARK  6 active torsions:
REMARK  status: ('A' for Active; 'I' for Inactive)
REMARK    1  A    between atoms: C_1  and  O_2
REMARK    2  A    between atoms: O_2  and  C_3
REMARK    3  A    between atoms: C_3  and  C_5
REMARK    4  A    between atoms: C_6  and  N_7
REMARK    5  A    between atoms: N_10  and  C_11
REMARK    6  A    between atoms: C_14  and  C_15
REMARK                            x       y       z     vdW  Elec       q    Type
REMARK                         _______ _______ _______ _____ _____    ______ ____
ROOT
ATOM      1  N   UNL     1       3.178   6.011  19.683  0.00  0.00    +0.000 N 
ATOM      2  C   UNL     1       2.378   7.143  19.616  0.00  0.00    +0.000 C 
ATOM      3  O   UNL     1       2.129   7.739  18.571  0.00  0.00    +0.000 OA
ATOM      4  N   UNL     1       1.910   7.496  20.872  0.00  0.00    +0.000 N 
ATOM      5  H   UNL     1       2.786   5.263  20.240  0.00  0.00    +0.000 HD
ATOM      6  H   UNL     1       2.475   7.176  21.645  0.00  0.00    +0.000 HD
ENDROOT
BRANCH   1   8
ATOM      7  C   UNL     1       3.572   4.619  17.581  0.00  0.00    +0.000 A 
ATOM      8  C   UNL     1       3.831   5.605  18.531  0.00  0.00    +0.000 A 
ATOM      9  S   UNL     1       5.266   6.504  18.230  0.00  0.00    +0.000 S 
ATOM     10  C   UNL     1       5.649   5.489  16.962  0.00  0.00    +0.000 A 
ATOM     11  C   UNL     1       4.688   4.556  16.690  0.00  0.00    +0.000 A 
ATOM     12  C   UNL     1       5.058   3.740  15.503  0.00  0.00    +0.000 C 
ATOM     13  C   UNL     1       6.567   4.090  15.313  0.00  0.00    +0.000 C 
ATOM     14  C   UNL     1       6.815   5.443  16.050  0.00  0.00    +0.000 C 
BRANCH   7  15
ATOM     15  C   UNL     1       2.377   3.784  17.460  0.00  0.00    +0.000 C 
ATOM     16  O   UNL     1       1.242   4.251  17.448  0.00  0.00    +0.000 OA
BRANCH  15  18
ATOM     17  C   UNL     1       3.085   1.919  18.706  0.00  0.00    +0.000 C 
ATOM     18  O   UNL     1       2.636   2.443  17.458  0.00  0.00    +0.000 OA
ENDBRANCH  15  18
ENDBRANCH   7  15
ENDBRANCH   1   8
BRANCH   4  19
ATOM     19  C   UNL     1       1.037   8.574  21.129  0.00  0.00    +0.000 A 
ATOM     20  C   UNL     1       0.883   9.649  20.247  0.00  0.00    +0.000 A 
ATOM     21  C   UNL     1       0.088  10.748  20.583  0.00  0.00    +0.000 A 
ATOM     22  C   UNL     1      -0.582  10.787  21.808  0.00  0.00    +0.000 A 
ATOM     23  C   UNL     1      -1.363  12.001  22.211  0.00  0.00    +0.000 C 
ATOM     24  C   UNL     1      -0.488   9.685  22.665  0.00  0.00    +0.000 A 
ATOM     25  C   UNL     1       0.307   8.580  22.322  0.00  0.00    +0.000 A 
ENDBRANCH   4  19
TORSDOF 4
ENDMDL
MODEL 2
REMARK VINA RESULT:      -7.5      4.996      7.245
REMARK  Name = 
REMARK  6 active torsions:
REMARK  status: ('A' for Active; 'I' for Inactive)
REMARK    1  A    between atoms: C_1  and  O_2
REMARK    2  A    between atoms: O_2  and  C_3
REMARK    3  A    between atoms: C_3  and  C_5
REMARK    4  A    between atoms: C_6  and  N_7
REMARK    5  A    between atoms: N_10  and  C_11
REMARK    6  A    between atoms: C_14  and  C_15
REMARK                            x       y       z     vdW  Elec       q    Type
REMARK                         _______ _______ _______ _____ _____    ______ ____
ROOT
ATOM      1  N   UNL     1       6.410   7.956  16.823  0.00  0.00    +0.000 N 
ATOM      2  C   UNL     1       7.443   8.274  17.695  0.00  0.00    +0.000 C 
ATOM      3  O   UNL     1       7.857   7.513  18.565  0.00  0.00    +0.000 OA
ATOM      4  N   UNL     1       7.928   9.548  17.445  0.00  0.00    +0.000 N 
ATOM      5  H   UNL     1       6.605   8.178  15.856  0.00  0.00    +0.000 HD
ATOM      6  H   UNL     1       7.278  10.174  16.995  0.00  0.00    +0.000 HD
ENDROOT
BRANCH   1   8
ATOM      7  C   UNL     1       6.037   5.432  16.777  0.00  0.00    +0.000 A 
ATOM      8  C   UNL     1       5.729   6.768  17.027  0.00  0.00    +0.000 A 
ATOM      9  S   UNL     1       4.172   7.006  17.719  0.00  0.00    +0.000 S 
ATOM     10  C   UNL     1       3.826   5.385  17.526  0.00  0.00    +0.000 A 
ATOM     11  C   UNL     1       4.874   4.649  17.051  0.00  0.00    +0.000 A 
ATOM     12  C   UNL     1       4.522   3.205  16.977  0.00  0.00    +0.000 C 
ATOM     13  C   UNL     1       2.971   3.230  17.146  0.00  0.00    +0.000 C 
ATOM     14  C   UNL     1       2.609   4.593  17.817  0.00  0.00    +0.000 C 
BRANCH   7  15
ATOM     15  C   UNL     1       7.317   4.877  16.335  0.00  0.00    +0.000 C 
ATOM     16  O   UNL     1       8.083   4.293  17.094  0.00  0.00    +0.000 OA
BRANCH  15  18
ATOM     17  C   UNL     1       6.671   4.660  14.083  0.00  0.00    +0.000 C 
ATOM     18  O   UNL     1       7.617   5.151  15.030  0.00  0.00    +0.000 OA
ENDBRANCH  15  18
ENDBRANCH   7  15
ENDBRANCH   1   8
BRANCH   4  19
ATOM     19  C   UNL     1       9.008  10.143  18.133  0.00  0.00    +0.000 A 
ATOM     20  C   UNL     1       9.156  10.065  19.521  0.00  0.00    +0.000 A 
ATOM     21  C   UNL     1      10.181  10.753  20.176  0.00  0.00    +0.000 A 
ATOM     22  C   UNL     1      11.089  11.527  19.450  0.00  0.00    +0.000 A 
ATOM     23  C   UNL     1      12.134  12.338  20.154  0.00  0.00    +0.000 C 
ATOM     24  C   UNL     1      10.988  11.554  18.054  0.00  0.00    +0.000 A 
ATOM     25  C   UNL     1       9.961  10.857  17.399  0.00  0.00    +0.000 A 
ENDBRANCH   4  19
TORSDOF 4
ENDMDL
MODEL 3
REMARK VINA RESULT:      -7.4      1.274      1.307
REMARK  Name = 
REMARK  6 active torsions:
REMARK  status: ('A' for Active; 'I' for Inactive)
REMARK    1  A    between atoms: C_1  and  O_2
REMARK    2  A    between atoms: O_2  and  C_3
REMARK    3  A    between atoms: C_3  and  C_5
REMARK    4  A    between atoms: C_6  and  N_7
REMARK    5  A    between atoms: N_10  and  C_11
REMARK    6  A    between atoms: C_14  and  C_15
REMARK                            x       y       z     vdW  Elec       q    Type
REMARK                         _______ _______ _______ _____ _____    ______ ____
ROOT
ATOM      1  N   UNL     1       2.785   6.573  20.120  0.00  0.00    +0.000 N 
ATOM      2  C   UNL     1       1.954   7.684  20.076  0.00  0.00    +0.000 C 
ATOM      3  O   UNL     1       1.516   8.166  19.034  0.00  0.00    +0.000 OA
ATOM      4  N   UNL     1       1.695   8.162  21.351  0.00  0.00    +0.000 N 
ATOM      5  H   UNL     1       2.513   5.884  20.807  0.00  0.00    +0.000 HD
ATOM      6  H   UNL     1       2.390   7.930  22.045  0.00  0.00    +0.000 HD
ENDROOT
BRANCH   1   8
ATOM      7  C   UNL     1       3.112   4.817  18.297  0.00  0.00    +0.000 A 
ATOM      8  C   UNL     1       3.245   6.056  18.919  0.00  0.00    +0.000 A 
ATOM      9  S   UNL     1       4.188   7.186  18.029  0.00  0.00    +0.000 S 
ATOM     10  C   UNL     1       4.575   6.002  16.918  0.00  0.00    +0.000 A 
ATOM     11  C   UNL     1       3.942   4.811  17.135  0.00  0.00    +0.000 A 
ATOM     12  C   UNL     1       4.272   3.830  16.067  0.00  0.00    +0.000 C 
ATOM     13  C   UNL     1       5.490   4.501  15.360  0.00  0.00    +0.000 C 
ATOM     14  C   UNL     1       5.442   6.019  15.717  0.00  0.00    +0.000 C 
BRANCH   7  15
ATOM     15  C   UNL     1       2.267   3.695  18.709  0.00  0.00    +0.000 C 
ATOM     16  O   UNL     1       1.465   3.158  17.952  0.00  0.00    +0.000 OA
BRANCH  15  18
ATOM     17  C   UNL     1       1.153   3.315  20.746  0.00  0.00    +0.000 C 
ATOM     18  O   UNL     1       2.386   3.368  20.030  0.00  0.00    +0.000 OA
ENDBRANCH  15  18
ENDBRANCH   7  15
ENDBRANCH   1   8
BRANCH   4  19
ATOM     19  C   UNL     1       0.849   9.252  21.643  0.00  0.00    +0.000 A 
ATOM     20  C   UNL     1       0.897  10.458  20.936  0.00  0.00    +0.000 A 
ATOM     21  C   UNL     1       0.115  11.550  21.320  0.00  0.00    +0.000 A 
ATOM     22  C   UNL     1      -0.744  11.453  22.416  0.00  0.00    +0.000 A 
ATOM     23  C   UNL     1      -1.518  12.647  22.888  0.00  0.00    +0.000 C 
ATOM     24  C   UNL     1      -0.849  10.228  23.086  0.00  0.00    +0.000 A 
ATOM     25  C   UNL     1      -0.067   9.132  22.694  0.00  0.00    +0.000 A 
ENDBRANCH   4  19
TORSDOF 4
ENDMDL
MODEL 4
REMARK VINA RESULT:      -7.3      0.230      1.014
REMARK  Name = 
REMARK  6 active torsions:
REMARK  status: ('A' for Active; 'I' for Inactive)
REMARK    1  A    between atoms: C_1  and  O_2
REMARK    2  A    between atoms: O_2  and  C_3
REMARK    3  A    between atoms: C_3  and  C_5
REMARK    4  A    between atoms: C_6  and  N_7
REMARK    5  A    between atoms: N_10  and  C_11
REMARK    6  A    between atoms: C_14  and  C_15
REMARK                            x       y       z     vdW  Elec       q    Type
REMARK                         _______ _______ _______ _____ _____    ______ ____
ROOT
ATOM      1  N   UNL     1       3.174   6.032  19.662  0.00  0.00    +0.000 N 
ATOM      2  C   UNL     1       2.429   7.201  19.592  0.00  0.00    +0.000 C 
ATOM      3  O   UNL     1       2.218   7.813  18.548  0.00  0.00    +0.000 OA
ATOM      4  N   UNL     1       1.967   7.571  20.846  0.00  0.00    +0.000 N 
ATOM      5  H   UNL     1       2.742   5.301  20.211  0.00  0.00    +0.000 HD
ATOM      6  H   UNL     1       2.509   7.222  21.622  0.00  0.00    +0.000 HD
ENDROOT
BRANCH   1   8
ATOM      7  C   UNL     1       3.541   4.605  17.578  0.00  0.00    +0.000 A 
ATOM      8  C   UNL     1       3.817   5.600  18.513  0.00  0.00    +0.000 A 
ATOM      9  S   UNL     1       5.265   6.473  18.196  0.00  0.00    +0.000 S 
ATOM     10  C   UNL     1       5.628   5.435  16.941  0.00  0.00    +0.000 A 
ATOM     11  C   UNL     1       4.653   4.513  16.686  0.00  0.00    +0.000 A 
ATOM     12  C   UNL     1       5.007   3.674  15.509  0.00  0.00    +0.000 C 
ATOM     13  C   UNL     1       6.521   3.999  15.310  0.00  0.00    +0.000 C 
ATOM     14  C   UNL     1       6.791   5.358  16.027  0.00  0.00    +0.000 C 
BRANCH   7  15
ATOM     15  C   UNL     1       2.332   3.787  17.472  0.00  0.00    +0.000 C 
ATOM     16  O   UNL     1       1.204   4.269  17.478  0.00  0.00    +0.000 OA
BRANCH  15  18
ATOM     17  C   UNL     1       3.029   1.907  18.704  0.00  0.00    +0.000 C 
ATOM     18  O   UNL     1       2.574   2.442  17.463  0.00  0.00    +0.000 OA
ENDBRANCH  15  18
ENDBRANCH   7  15
ENDBRANCH   1   8
BRANCH   4  19
ATOM     19  C   UNL     1       1.144   8.688  21.099  0.00  0.00    +0.000 A 
ATOM     20  C   UNL     1       0.584   8.947  22.354  0.00  0.00    +0.000 A 
ATOM     21  C   UNL     1      -0.308  10.006  22.541  0.00  0.00    +0.000 A 
ATOM     22  C   UNL     1      -0.650  10.838  21.473  0.00  0.00    +0.000 A 
ATOM     23  C   UNL     1      -1.674  11.919  21.645  0.00  0.00    +0.000 C 
ATOM     24  C   UNL     1      -0.040  10.628  20.231  0.00  0.00    +0.000 A 
ATOM     25  C   UNL     1       0.861   9.567  20.049  0.00  0.00    +0.000 A 
ENDBRANCH   4  19
TORSDOF 4
ENDMDL
MODEL 5
REMARK VINA RESULT:      -7.3      1.410      1.941
REMARK  Name = 
REMARK  6 active torsions:
REMARK  status: ('A' for Active; 'I' for Inactive)
REMARK    1  A    between atoms: C_1  and  O_2
REMARK    2  A    between atoms: O_2  and  C_3
REMARK    3  A    between atoms: C_3  and  C_5
REMARK    4  A    between atoms: C_6  and  N_7
REMARK    5  A    between atoms: N_10  and  C_11
REMARK    6  A    between atoms: C_14  and  C_15
REMARK                            x       y       z     vdW  Elec       q    Type
REMARK                         _______ _______ _______ _____ _____    ______ ____
ROOT
ATOM      1  N   UNL     1       2.437   6.609  20.540  0.00  0.00    +0.000 N 
ATOM      2  C   UNL     1       1.692   7.777  20.452  0.00  0.00    +0.000 C 
ATOM      3  O   UNL     1       1.299   8.257  19.392  0.00  0.00    +0.000 OA
ATOM      4  N   UNL     1       1.460   8.313  21.709  0.00  0.00    +0.000 N 
ATOM      5  H   UNL     1       2.109   5.964  21.246  0.00  0.00    +0.000 HD
ATOM      6  H   UNL     1       2.130   8.053  22.417  0.00  0.00    +0.000 HD
ENDROOT
BRANCH   1   8
ATOM      7  C   UNL     1       2.514   4.851  18.692  0.00  0.00    +0.000 A 
ATOM      8  C   UNL     1       2.866   6.021  19.361  0.00  0.00    +0.000 A 
ATOM      9  S   UNL     1       4.101   6.927  18.579  0.00  0.00    +0.000 S 
ATOM     10  C   UNL     1       4.306   5.703  17.463  0.00  0.00    +0.000 A 
ATOM     11  C   UNL     1       3.413   4.678  17.595  0.00  0.00    +0.000 A 
ATOM     12  C   UNL     1       3.603   3.664  16.524  0.00  0.00    +0.000 C 
ATOM     13  C   UNL     1       4.991   4.060  15.930  0.00  0.00    +0.000 C 
ATOM     14  C   UNL     1       5.248   5.546  16.331  0.00  0.00    +0.000 C 
BRANCH   7  15
ATOM     15  C   UNL     1       1.414   3.937  19.005  0.00  0.00    +0.000 C 
ATOM     16  O   UNL     1       0.900   3.207  18.163  0.00  0.00    +0.000 OA
BRANCH  15  18
ATOM     17  C   UNL     1       1.469   3.062  21.188  0.00  0.00    +0.000 C 
ATOM     18  O   UNL     1       0.955   4.042  20.287  0.00  0.00    +0.000 OA
ENDBRANCH  15  18
ENDBRANCH   7  15
ENDBRANCH   1   8
BRANCH   4  19
ATOM     19  C   UNL     1       0.695   9.473  21.958  0.00  0.00    +0.000 A 
ATOM     20  C   UNL     1      -0.289   9.532  22.949  0.00  0.00    +0.000 A 
ATOM     21  C   UNL     1      -1.096  10.664  23.096  0.00  0.00    +0.000 A 
ATOM     22  C   UNL     1      -0.925  11.767  22.259  0.00  0.00    +0.000 A 
ATOM     23  C   UNL     1      -1.845  12.947  22.352  0.00  0.00    +0.000 C 
ATOM     24  C   UNL     1       0.104  11.742  21.310  0.00  0.00    +0.000 A 
ATOM     25  C   UNL     1       0.916  10.607  21.169  0.00  0.00    +0.000 A 
ENDBRANCH   4  19
TORSDOF 4
ENDMDL
MODEL 6
REMARK VINA RESULT:      -7.2      0.742      1.041
REMARK  Name = 
REMARK  6 active torsions:
REMARK  status: ('A' for Active; 'I' for Inactive)
REMARK    1  A    between atoms: C_1  and  O_2
REMARK    2  A    between atoms: O_2  and  C_3
REMARK    3  A    between atoms: C_3  and  C_5
REMARK    4  A    between atoms: C_6  and  N_7
REMARK    5  A    between atoms: N_10  and  C_11
REMARK    6  A    between atoms: C_14  and  C_15
REMARK                            x       y       z     vdW  Elec       q    Type
REMARK                         _______ _______ _______ _____ _____    ______ ____
ROOT
ATOM      1  N   UNL     1       3.456   5.937  19.256  0.00  0.00    +0.000 N 
ATOM      2  C   UNL     1       2.554   6.991  19.191  0.00  0.00    +0.000 C 
ATOM      3  O   UNL     1       2.147   7.475  18.138  0.00  0.00    +0.000 OA
ATOM      4  N   UNL     1       2.187   7.409  20.461  0.00  0.00    +0.000 N 
ATOM      5  H   UNL     1       3.192   5.209  19.906  0.00  0.00    +0.000 HD
ATOM      6  H   UNL     1       2.854   7.202  21.189  0.00  0.00    +0.000 HD
ENDROOT
BRANCH   1   8
ATOM      7  C   UNL     1       3.916   4.305  17.349  0.00  0.00    +0.000 A 
ATOM      8  C   UNL     1       4.021   5.491  18.073  0.00  0.00    +0.000 A 
ATOM      9  S   UNL     1       5.085   6.645  17.369  0.00  0.00    +0.000 S 
ATOM     10  C   UNL     1       5.550   5.531  16.217  0.00  0.00    +0.000 A 
ATOM     11  C   UNL     1       4.862   4.352  16.279  0.00  0.00    +0.000 A 
ATOM     12  C   UNL     1       5.271   3.438  15.178  0.00  0.00    +0.000 C 
ATOM     13  C   UNL     1       6.575   4.112  14.651  0.00  0.00    +0.000 C 
ATOM     14  C   UNL     1       6.536   5.601  15.115  0.00  0.00    +0.000 C 
BRANCH   7  15
ATOM     15  C   UNL     1       3.000   3.189  17.587  0.00  0.00    +0.000 C 
ATOM     16  O   UNL     1       3.383   2.027  17.683  0.00  0.00    +0.000 OA
BRANCH  15  18
ATOM     17  C   UNL     1       0.976   3.192  18.786  0.00  0.00    +0.000 C 
ATOM     18  O   UNL     1       1.682   3.548  17.599  0.00  0.00    +0.000 OA
ENDBRANCH  15  18
ENDBRANCH   7  15
ENDBRANCH   1   8
BRANCH   4  19
ATOM     19  C   UNL     1       1.251   8.430  20.729  0.00  0.00    +0.000 A 
ATOM     20  C   UNL     1       0.996   9.476  19.837  0.00  0.00    +0.000 A 
ATOM     21  C   UNL     1       0.138  10.524  20.182  0.00  0.00    +0.000 A 
ATOM     22  C   UNL     1      -0.493  10.539  21.427  0.00  0.00    +0.000 A 
ATOM     23  C   UNL     1      -1.342  11.704  21.837  0.00  0.00    +0.000 C 
ATOM     24  C   UNL     1      -0.296   9.461  22.297  0.00  0.00    +0.000 A 
ATOM     25  C   UNL     1       0.561   8.408  21.946  0.00  0.00    +0.000 A 
ENDBRANCH   4  19
TORSDOF 4
ENDMDL
MODEL 7
REMARK VINA RESULT:      -7.1      2.247      3.453
REMARK  Name = 
REMARK  6 active torsions:
REMARK  status: ('A' for Active; 'I' for Inactive)
REMARK    1  A    between atoms: C_1  and  O_2
REMARK    2  A    between atoms: O_2  and  C_3
REMARK    3  A    between atoms: C_3  and  C_5
REMARK    4  A    between atoms: C_6  and  N_7
REMARK    5  A    between atoms: N_10  and  C_11
REMARK    6  A    between atoms: C_14  and  C_15
REMARK                            x       y       z     vdW  Elec       q    Type
REMARK                         _______ _______ _______ _____ _____    ______ ____
ROOT
ATOM      1  N   UNL     1       4.245   5.556  18.715  0.00  0.00    +0.000 N 
ATOM      2  C   UNL     1       3.371   6.629  18.611  0.00  0.00    +0.000 C 
ATOM      3  O   UNL     1       3.148   7.227  17.561  0.00  0.00    +0.000 OA
ATOM      4  N   UNL     1       2.798   6.924  19.838  0.00  0.00    +0.000 N 
ATOM      5  H   UNL     1       3.873   4.772  19.233  0.00  0.00    +0.000 HD
ATOM      6  H   UNL     1       3.332   6.630  20.642  0.00  0.00    +0.000 HD
ENDROOT
BRANCH   1   8
ATOM      7  C   UNL     1       6.232   5.652  17.117  0.00  0.00    +0.000 A 
ATOM      8  C   UNL     1       5.000   5.221  17.603  0.00  0.00    +0.000 A 
ATOM      9  S   UNL     1       4.238   4.034  16.618  0.00  0.00    +0.000 S 
ATOM     10  C   UNL     1       5.429   4.214  15.462  0.00  0.00    +0.000 A 
ATOM     11  C   UNL     1       6.435   5.063  15.831  0.00  0.00    +0.000 A 
ATOM     12  C   UNL     1       7.497   5.115  14.791  0.00  0.00    +0.000 C 
ATOM     13  C   UNL     1       6.802   4.437  13.569  0.00  0.00    +0.000 C 
ATOM     14  C   UNL     1       5.618   3.591  14.132  0.00  0.00    +0.000 C 
BRANCH   7  15
ATOM     15  C   UNL     1       7.196   6.534  17.777  0.00  0.00    +0.000 C 
ATOM     16  O   UNL     1       7.609   6.330  18.914  0.00  0.00    +0.000 OA
BRANCH  15  18
ATOM     17  C   UNL     1       8.013   8.740  17.821  0.00  0.00    +0.000 C 
ATOM     18  O   UNL     1       7.516   7.647  17.051  0.00  0.00    +0.000 OA
ENDBRANCH  15  18
ENDBRANCH   7  15
ENDBRANCH   1   8
BRANCH   4  19
ATOM     19  C   UNL     1       1.833   7.932  20.051  0.00  0.00    +0.000 A 
ATOM     20  C   UNL     1       1.565   8.932  19.112  0.00  0.00    +0.000 A 
ATOM     21  C   UNL     1       0.677   9.972  19.401  0.00  0.00    +0.000 A 
ATOM     22  C   UNL     1       0.029  10.025  20.637  0.00  0.00    +0.000 A 
ATOM     23  C   UNL     1      -0.853  11.185  20.987  0.00  0.00    +0.000 C 
ATOM     24  C   UNL     1       0.241   8.990  21.555  0.00  0.00    +0.000 A 
ATOM     25  C   UNL     1       1.128   7.944  21.259  0.00  0.00    +0.000 A 
ENDBRANCH   4  19
TORSDOF 4
ENDMDL
MODEL 8
REMARK VINA RESULT:      -7.1      5.257      7.154
REMARK  Name = 
REMARK  6 active torsions:
REMARK  status: ('A' for Active; 'I' for Inactive)
REMARK    1  A    between atoms: C_1  and  O_2
REMARK    2  A    between atoms: O_2  and  C_3
REMARK    3  A    between atoms: C_3  and  C_5
REMARK    4  A    between atoms: C_6  and  N_7
REMARK    5  A    between atoms: N_10  and  C_11
REMARK    6  A    between atoms: C_14  and  C_15
REMARK                            x       y       z     vdW  Elec       q    Type
REMARK                         _______ _______ _______ _____ _____    ______ ____
ROOT
ATOM      1  N   UNL     1       6.475   7.618  17.084  0.00  0.00    +0.000 N 
ATOM      2  C   UNL     1       7.569   8.017  17.838  0.00  0.00    +0.000 C 
ATOM      3  O   UNL     1       8.208   7.260  18.565  0.00  0.00    +0.000 OA
ATOM      4  N   UNL     1       7.832   9.366  17.657  0.00  0.00    +0.000 N 
ATOM      5  H   UNL     1       6.495   7.943  16.127  0.00  0.00    +0.000 HD
ATOM      6  H   UNL     1       7.043   9.920  17.361  0.00  0.00    +0.000 HD
ENDROOT
BRANCH   1   8
ATOM      7  C   UNL     1       5.932   5.214  16.420  0.00  0.00    +0.000 A 
ATOM      8  C   UNL     1       6.002   6.327  17.255  0.00  0.00    +0.000 A 
ATOM      9  S   UNL     1       5.354   6.061  18.827  0.00  0.00    +0.000 S 
ATOM     10  C   UNL     1       4.817   4.551  18.361  0.00  0.00    +0.000 A 
ATOM     11  C   UNL     1       5.192   4.196  17.096  0.00  0.00    +0.000 A 
ATOM     12  C   UNL     1       4.748   2.813  16.777  0.00  0.00    +0.000 C 
ATOM     13  C   UNL     1       3.730   2.515  17.922  0.00  0.00    +0.000 C 
ATOM     14  C   UNL     1       4.049   3.510  19.082  0.00  0.00    +0.000 C 
BRANCH   7  15
ATOM     15  C   UNL     1       6.515   5.058  15.087  0.00  0.00    +0.000 C 
ATOM     16  O   UNL     1       7.635   5.472  14.801  0.00  0.00    +0.000 OA
BRANCH  15  18
ATOM     17  C   UNL     1       6.311   3.794  13.113  0.00  0.00    +0.000 C 
ATOM     18  O   UNL     1       5.667   4.498  14.174  0.00  0.00    +0.000 OA
ENDBRANCH  15  18
ENDBRANCH   7  15
ENDBRANCH   1   8
BRANCH   4  19
ATOM     19  C   UNL     1       8.907  10.060  18.251  0.00  0.00    +0.000 A 
ATOM     20  C   UNL     1       9.112  10.097  19.634  0.00  0.00    +0.000 A 
ATOM     21  C   UNL     1      10.127  10.879  20.192  0.00  0.00    +0.000 A 
ATOM     22  C   UNL     1      10.969  11.633  19.372  0.00  0.00    +0.000 A 
ATOM     23  C   UNL     1      12.000  12.543  19.968  0.00  0.00    +0.000 C 
ATOM     24  C   UNL     1      10.814  11.547  17.984  0.00  0.00    +0.000 A 
ATOM     25  C   UNL     1       9.797  10.756  17.427  0.00  0.00    +0.000 A 
ENDBRANCH   4  19
TORSDOF 4
ENDMDL
MODEL 9
REMARK VINA RESULT:      -7.0      2.152      3.235
REMARK  Name = 
REMARK  6 active torsions:
REMARK  status: ('A' for Active; 'I' for Inactive)
REMARK    1  A    between atoms: C_1  and  O_2
REMARK    2  A    between atoms: O_2  and  C_3
REMARK    3  A    between atoms: C_3  and  C_5
REMARK    4  A    between atoms: C_6  and  N_7
REMARK    5  A    between atoms: N_10  and  C_11
REMARK    6  A    between atoms: C_14  and  C_15
REMARK                            x       y       z     vdW  Elec       q    Type
REMARK                         _______ _______ _______ _____ _____    ______ ____
ROOT
ATOM      1  N   UNL     1       3.752   5.404  19.103  0.00  0.00    +0.000 N 
ATOM      2  C   UNL     1       3.126   6.641  19.043  0.00  0.00    +0.000 C 
ATOM      3  O   UNL     1       3.178   7.384  18.067  0.00  0.00    +0.000 OA
ATOM      4  N   UNL     1       2.446   6.910  20.221  0.00  0.00    +0.000 N 
ATOM      5  H   UNL     1       3.164   4.662  19.458  0.00  0.00    +0.000 HD
ATOM      6  H   UNL     1       2.790   6.424  21.035  0.00  0.00    +0.000 HD
ENDROOT
BRANCH   1   8
ATOM      7  C   UNL     1       5.944   5.210  17.811  0.00  0.00    +0.000 A 
ATOM      8  C   UNL     1       4.583   5.043  18.054  0.00  0.00    +0.000 A 
ATOM      9  S   UNL     1       3.742   4.236  16.789  0.00  0.00    +0.000 S 
ATOM     10  C   UNL     1       5.117   4.264  15.843  0.00  0.00    +0.000 A 
ATOM     11  C   UNL     1       6.215   4.771  16.479  0.00  0.00    +0.000 A 
ATOM     12  C   UNL     1       7.418   4.694  15.607  0.00  0.00    +0.000 C 
ATOM     13  C   UNL     1       6.798   4.389  14.207  0.00  0.00    +0.000 C 
ATOM     14  C   UNL     1       5.375   3.802  14.460  0.00  0.00    +0.000 C 
BRANCH   7  15
ATOM     15  C   UNL     1       6.962   5.719  18.731  0.00  0.00    +0.000 C 
ATOM     16  O   UNL     1       6.896   5.558  19.946  0.00  0.00    +0.000 OA
BRANCH  15  18
ATOM     17  C   UNL     1       7.534   7.789  17.769  0.00  0.00    +0.000 C 
ATOM     18  O   UNL     1       7.933   6.466  18.125  0.00  0.00    +0.000 OA
ENDBRANCH  15  18
ENDBRANCH   7  15
ENDBRANCH   1   8
BRANCH   4  19
ATOM     19  C   UNL     1       1.673   8.068  20.454  0.00  0.00    +0.000 A 
ATOM     20  C   UNL     1       1.173   8.402  21.716  0.00  0.00    +0.000 A 
ATOM     21  C   UNL     1       0.326   9.500  21.887  0.00  0.00    +0.000 A 
ATOM     22  C   UNL     1      -0.028  10.296  20.796  0.00  0.00    +0.000 A 
ATOM     23  C   UNL     1      -1.006  11.421  20.957  0.00  0.00    +0.000 C 
ATOM     24  C   UNL     1       0.524  10.009  19.543  0.00  0.00    +0.000 A 
ATOM     25  C   UNL     1       1.379   8.908  19.375  0.00  0.00    +0.000 A 
ENDBRANCH   4  19
TORSDOF 4
ENDMDL
