MODEL 1
REMARK VINA RESULT:      -6.9      0.000      0.000
REMARK  Name = 
REMARK  3 active torsions:
REMARK  status: ('A' for Active; 'I' for Inactive)
REMARK    1  A    between atoms: C_1  and  O_2
REMARK    2  A    between atoms: O_2  and  C_3
REMARK    3  A    between atoms: C_3  and  C_5
REMARK                            x       y       z     vdW  Elec       q    Type
REMARK                         _______ _______ _______ _____ _____    ______ ____
ROOT
ATOM      1  C   UNL     1       3.945   4.547  18.939  0.00  0.00    +0.000 C 
ATOM      2  C   UNL     1       3.497   5.904  19.523  0.00  0.00    +0.000 C 
ATOM      3  C   UNL     1       2.054   5.998  20.013  0.00  0.00    +0.000 C 
ATOM      4  C   UNL     1       1.416   4.716  20.545  0.00  0.00    +0.000 C 
ATOM      5  C   UNL     1       1.954   3.410  19.953  0.00  0.00    +0.000 C 
ATOM      6  C   UNL     1       1.372   3.120  18.550  0.00  0.00    +0.000 C 
ATOM      7  C   UNL     1       2.510   2.966  17.534  0.00  0.00    +0.000 C 
ATOM      8  C   UNL     1       3.410   1.796  17.963  0.00  0.00    +0.000 C 
ATOM      9  C   UNL     1       3.965   2.040  19.367  0.00  0.00    +0.000 C 
ATOM     10  C   UNL     1       3.500   3.409  19.897  0.00  0.00    +0.000 C 
ATOM     11  C   UNL     1       3.320   4.275  17.535  0.00  0.00    +0.000 C 
ENDROOT
BRANCH   1  12
ATOM     12  C   UNL     1       5.472   4.675  18.787  0.00  0.00    +0.000 C 
ATOM     13  O   UNL     1       6.230   4.952  19.715  0.00  0.00    +0.000 OA
BRANCH  12  15
ATOM     14  C   UNL     1       7.277   4.632  17.312  0.00  0.00    +0.000 C 
ATOM     15  O   UNL     1       5.900   4.342  17.541  0.00  0.00    +0.000 OA
ENDBRANCH  12  15
ENDBRANCH   1  12
TORSDOF 2
ENDMDL
MODEL 2
REMARK VINA RESULT:      -6.7      0.620      1.039
REMARK  Name = 
REMARK  3 active torsions:
REMARK  status: ('A' for Active; 'I' for Inactive)
REMARK    1  A    between atoms: C_1  and  O_2
REMARK    2  A    between atoms: O_2  and  C_3
REMARK    3  A    between atoms: C_3  and  C_5
REMARK                            x       y       z     vdW  Elec       q    Type
REMARK                         _______ _______ _______ _____ _____    ______ ____
ROOT
ATOM      1  C   UNL     1       4.035   4.552  18.804  0.00  0.00    +0.000 C 
ATOM      2  C   UNL     1       3.682   5.958  19.332  0.00  0.00    +0.000 C 
ATOM      3  C   UNL     1       2.270   6.150  19.881  0.00  0.00    +0.000 C 
ATOM      4  C   UNL     1       1.596   4.932  20.509  0.00  0.00    +0.000 C 
ATOM      5  C   UNL     1       2.042   3.571  19.966  0.00  0.00    +0.000 C 
ATOM      6  C   UNL     1       1.381   3.238  18.608  0.00  0.00    +0.000 C 
ATOM      7  C   UNL     1       2.462   2.973  17.553  0.00  0.00    +0.000 C 
ATOM      8  C   UNL     1       3.323   1.784  18.004  0.00  0.00    +0.000 C 
ATOM      9  C   UNL     1       3.955   2.072  19.367  0.00  0.00    +0.000 C 
ATOM     10  C   UNL     1       3.582   3.489  19.842  0.00  0.00    +0.000 C 
ATOM     11  C   UNL     1       3.333   4.238  17.446  0.00  0.00    +0.000 C 
ENDROOT
BRANCH   1  12
ATOM     12  C   UNL     1       5.558   4.593  18.578  0.00  0.00    +0.000 C 
ATOM     13  O   UNL     1       6.095   4.347  17.499  0.00  0.00    +0.000 OA
BRANCH  12  15
ATOM     14  C   UNL     1       7.456   5.700  19.356  0.00  0.00    +0.000 C 
ATOM     15  O   UNL     1       6.235   5.035  19.669  0.00  0.00    +0.000 OA
ENDBRANCH  12  15
ENDBRANCH   1  12
TORSDOF 2
ENDMDL
MODEL 3
REMARK VINA RESULT:      -6.6      2.532      4.685
REMARK  Name = 
REMARK  3 active torsions:
REMARK  status: ('A' for Active; 'I' for Inactive)
REMARK    1  A    between atoms: C_1  and  O_2
REMARK    2  A    between atoms: O_2  and  C_3
REMARK    3  A    between atoms: C_3  and  C_5
REMARK                            x       y       z     vdW  Elec       q    Type
REMARK                         _______ _______ _______ _____ _____    ______ ____
ROOT
ATOM      1  C   UNL     1       6.121   4.811  16.443  0.00  0.00    +0.000 C 
ATOM      2  C   UNL     1       5.092   3.663  16.389  0.00  0.00    +0.000 C 
ATOM      3  C   UNL     1       4.257   3.430  17.647  0.00  0.00    +0.000 C 
ATOM      4  C   UNL     1       3.964   4.648  18.522  0.00  0.00    +0.000 C 
ATOM      5  C   UNL     1       5.010   5.767  18.477  0.00  0.00    +0.000 C 
ATOM      6  C   UNL     1       6.251   5.443  19.340  0.00  0.00    +0.000 C 
ATOM      7  C   UNL     1       7.516   5.491  18.475  0.00  0.00    +0.000 C 
ATOM      8  C   UNL     1       7.663   6.900  17.880  0.00  0.00    +0.000 C 
ATOM      9  C   UNL     1       6.427   7.261  17.055  0.00  0.00    +0.000 C 
ATOM     10  C   UNL     1       5.440   6.080  17.023  0.00  0.00    +0.000 C 
ATOM     11  C   UNL     1       7.348   4.462  17.341  0.00  0.00    +0.000 C 
ENDROOT
BRANCH   1  12
ATOM     12  C   UNL     1       6.601   4.971  14.988  0.00  0.00    +0.000 C 
ATOM     13  O   UNL     1       7.710   5.401  14.678  0.00  0.00    +0.000 OA
BRANCH  12  15
ATOM     14  C   UNL     1       6.308   3.776  13.008  0.00  0.00    +0.000 C 
ATOM     15  O   UNL     1       5.706   4.484  14.089  0.00  0.00    +0.000 OA
ENDBRANCH  12  15
ENDBRANCH   1  12
TORSDOF 2
ENDMDL
MODEL 4
REMARK VINA RESULT:      -6.6      1.511      2.972
REMARK  Name = 
REMARK  3 active torsions:
REMARK  status: ('A' for Active; 'I' for Inactive)
REMARK    1  A    between atoms: C_1  and  O_2
REMARK    2  A    between atoms: O_2  and  C_3
REMARK    3  A    between atoms: C_3  and  C_5
REMARK                            x       y       z     vdW  Elec       q    Type
REMARK                         _______ _______ _______ _____ _____    ______ ____
ROOT
ATOM      1  C   UNL     1       3.357   3.554  19.210  0.00  0.00    +0.000 C 
ATOM      2  C   UNL     1       3.549   2.488  20.309  0.00  0.00    +0.000 C 
ATOM      3  C   UNL     1       2.662   2.611  21.546  0.00  0.00    +0.000 C 
ATOM      4  C   UNL     1       1.282   3.236  21.353  0.00  0.00    +0.000 C 
ATOM      5  C   UNL     1       1.163   4.245  20.206  0.00  0.00    +0.000 C 
ATOM      6  C   UNL     1       1.739   5.629  20.582  0.00  0.00    +0.000 C 
ATOM      7  C   UNL     1       2.834   6.028  19.585  0.00  0.00    +0.000 C 
ATOM      8  C   UNL     1       2.227   6.096  18.175  0.00  0.00    +0.000 C 
ATOM      9  C   UNL     1       1.612   4.748  17.796  0.00  0.00    +0.000 C 
ATOM     10  C   UNL     1       1.841   3.719  18.918  0.00  0.00    +0.000 C 
ATOM     11  C   UNL     1       3.927   4.944  19.631  0.00  0.00    +0.000 C 
ENDROOT
BRANCH   1  12
ATOM     12  C   UNL     1       4.170   3.027  18.012  0.00  0.00    +0.000 C 
ATOM     13  O   UNL     1       3.953   1.949  17.461  0.00  0.00    +0.000 OA
BRANCH  12  15
ATOM     14  C   UNL     1       5.000   4.174  16.160  0.00  0.00    +0.000 C 
ATOM     15  O   UNL     1       5.079   3.931  17.563  0.00  0.00    +0.000 OA
ENDBRANCH  12  15
ENDBRANCH   1  12
TORSDOF 2
ENDMDL
MODEL 5
REMARK VINA RESULT:      -6.5      1.079      1.237
REMARK  Name = 
REMARK  3 active torsions:
REMARK  status: ('A' for Active; 'I' for Inactive)
REMARK    1  A    between atoms: C_1  and  O_2
REMARK    2  A    between atoms: O_2  and  C_3
REMARK    3  A    between atoms: C_3  and  C_5
REMARK                            x       y       z     vdW  Elec       q    Type
REMARK                         _______ _______ _______ _____ _____    ______ ____
ROOT
ATOM      1  C   UNL     1       4.386   4.609  17.993  0.00  0.00    +0.000 C 
ATOM      2  C   UNL     1       4.242   6.146  17.968  0.00  0.00    +0.000 C 
ATOM      3  C   UNL     1       2.942   6.722  18.524  0.00  0.00    +0.000 C 
ATOM      4  C   UNL     1       2.247   5.930  19.631  0.00  0.00    +0.000 C 
ATOM      5  C   UNL     1       2.485   4.417  19.616  0.00  0.00    +0.000 C 
ATOM      6  C   UNL     1       1.618   3.698  18.556  0.00  0.00    +0.000 C 
ATOM      7  C   UNL     1       2.516   2.914  17.591  0.00  0.00    +0.000 C 
ATOM      8  C   UNL     1       3.315   1.870  18.386  0.00  0.00    +0.000 C 
ATOM      9  C   UNL     1       4.150   2.553  19.470  0.00  0.00    +0.000 C 
ATOM     10  C   UNL     1       3.980   4.082  19.395  0.00  0.00    +0.000 C 
ATOM     11  C   UNL     1       3.480   3.915  16.928  0.00  0.00    +0.000 C 
ENDROOT
BRANCH   1  12
ATOM     12  C   UNL     1       5.862   4.352  17.632  0.00  0.00    +0.000 C 
ATOM     13  O   UNL     1       6.788   4.457  18.433  0.00  0.00    +0.000 OA
BRANCH  12  15
ATOM     14  C   UNL     1       6.920   4.665  15.579  0.00  0.00    +0.000 C 
ATOM     15  O   UNL     1       6.013   3.893  16.363  0.00  0.00    +0.000 OA
ENDBRANCH  12  15
ENDBRANCH   1  12
TORSDOF 2
ENDMDL
MODEL 6
REMARK VINA RESULT:      -6.4      1.405      1.928
REMARK  Name = 
REMARK  3 active torsions:
REMARK  status: ('A' for Active; 'I' for Inactive)
REMARK    1  A    between atoms: C_1  and  O_2
REMARK    2  A    between atoms: O_2  and  C_3
REMARK    3  A    between atoms: C_3  and  C_5
REMARK                            x       y       z     vdW  Elec       q    Type
REMARK                         _______ _______ _______ _____ _____    ______ ____
ROOT
ATOM      1  C   UNL     1       4.744   5.025  17.945  0.00  0.00    +0.000 C 
ATOM      2  C   UNL     1       4.733   6.538  17.639  0.00  0.00    +0.000 C 
ATOM      3  C   UNL     1       3.372   7.232  17.662  0.00  0.00    +0.000 C 
ATOM      4  C   UNL     1       2.315   6.658  18.603  0.00  0.00    +0.000 C 
ATOM      5  C   UNL     1       2.429   5.159  18.897  0.00  0.00    +0.000 C 
ATOM      6  C   UNL     1       1.876   4.292  17.742  0.00  0.00    +0.000 C 
ATOM      7  C   UNL     1       2.962   3.333  17.242  0.00  0.00    +0.000 C 
ATOM      8  C   UNL     1       3.397   2.421  18.400  0.00  0.00    +0.000 C 
ATOM      9  C   UNL     1       3.910   3.258  19.572  0.00  0.00    +0.000 C 
ATOM     10  C   UNL     1       3.889   4.755  19.212  0.00  0.00    +0.000 C 
ATOM     11  C   UNL     1       4.157   4.182  16.770  0.00  0.00    +0.000 C 
ENDROOT
BRANCH   1  12
ATOM     12  C   UNL     1       6.235   4.674  18.111  0.00  0.00    +0.000 C 
ATOM     13  O   UNL     1       6.936   4.230  17.204  0.00  0.00    +0.000 OA
BRANCH  12  15
ATOM     14  C   UNL     1       7.915   5.777  19.291  0.00  0.00    +0.000 C 
ATOM     15  O   UNL     1       6.715   5.009  19.336  0.00  0.00    +0.000 OA
ENDBRANCH  12  15
ENDBRANCH   1  12
TORSDOF 2
ENDMDL
MODEL 7
REMARK VINA RESULT:      -6.4      1.029      1.412
REMARK  Name = 
REMARK  3 active torsions:
REMARK  status: ('A' for Active; 'I' for Inactive)
REMARK    1  A    between atoms: C_1  and  O_2
REMARK    2  A    between atoms: O_2  and  C_3
REMARK    3  A    between atoms: C_3  and  C_5
REMARK                            x       y       z     vdW  Elec       q    Type
REMARK                         _______ _______ _______ _____ _____    ______ ____
ROOT
ATOM      1  C   UNL     1       3.465   4.681  18.247  0.00  0.00    +0.000 C 
ATOM      2  C   UNL     1       3.299   6.204  18.427  0.00  0.00    +0.000 C 
ATOM      3  C   UNL     1       2.270   6.665  19.458  0.00  0.00    +0.000 C 
ATOM      4  C   UNL     1       2.022   5.746  20.652  0.00  0.00    +0.000 C 
ATOM      5  C   UNL     1       2.261   4.253  20.403  0.00  0.00    +0.000 C 
ATOM      6  C   UNL     1       1.086   3.590  19.647  0.00  0.00    +0.000 C 
ATOM      7  C   UNL     1       1.597   2.939  18.356  0.00  0.00    +0.000 C 
ATOM      8  C   UNL     1       2.640   1.869  18.714  0.00  0.00    +0.000 C 
ATOM      9  C   UNL     1       3.793   2.492  19.500  0.00  0.00    +0.000 C 
ATOM     10  C   UNL     1       3.587   4.012  19.642  0.00  0.00    +0.000 C 
ATOM     11  C   UNL     1       2.252   4.041  17.502  0.00  0.00    +0.000 C 
ENDROOT
BRANCH   1  12
ATOM     12  C   UNL     1       4.722   4.528  17.369  0.00  0.00    +0.000 C 
ATOM     13  O   UNL     1       4.751   3.879  16.326  0.00  0.00    +0.000 OA
BRANCH  12  15
ATOM     14  C   UNL     1       7.036   4.675  17.600  0.00  0.00    +0.000 C 
ATOM     15  O   UNL     1       5.763   5.277  17.818  0.00  0.00    +0.000 OA
ENDBRANCH  12  15
ENDBRANCH   1  12
TORSDOF 2
ENDMDL
MODEL 8
REMARK VINA RESULT:      -6.4      1.100      3.074
REMARK  Name = 
REMARK  3 active torsions:
REMARK  status: ('A' for Active; 'I' for Inactive)
REMARK    1  A    between atoms: C_1  and  O_2
REMARK    2  A    between atoms: O_2  and  C_3
REMARK    3  A    between atoms: C_3  and  C_5
REMARK                            x       y       z     vdW  Elec       q    Type
REMARK                         _______ _______ _______ _____ _____    ______ ____
ROOT
ATOM      1  C   UNL     1       3.750   3.978  18.120  0.00  0.00    +0.000 C 
ATOM      2  C   UNL     1       3.724   2.451  17.900  0.00  0.00    +0.000 C 
ATOM      3  C   UNL     1       2.534   1.693  18.487  0.00  0.00    +0.000 C 
ATOM      4  C   UNL     1       1.212   2.450  18.593  0.00  0.00    +0.000 C 
ATOM      5  C   UNL     1       1.325   3.969  18.756  0.00  0.00    +0.000 C 
ATOM      6  C   UNL     1       1.676   4.377  20.205  0.00  0.00    +0.000 C 
ATOM      7  C   UNL     1       2.963   5.211  20.216  0.00  0.00    +0.000 C 
ATOM      8  C   UNL     1       2.747   6.476  19.370  0.00  0.00    +0.000 C 
ATOM      9  C   UNL     1       2.357   6.098  17.940  0.00  0.00    +0.000 C 
ATOM     10  C   UNL     1       2.357   4.568  17.770  0.00  0.00    +0.000 C 
ATOM     11  C   UNL     1       4.083   4.355  19.597  0.00  0.00    +0.000 C 
ENDROOT
BRANCH   1  12
ATOM     12  C   UNL     1       4.887   4.482  17.211  0.00  0.00    +0.000 C 
ATOM     13  O   UNL     1       4.843   4.453  15.983  0.00  0.00    +0.000 OA
BRANCH  12  15
ATOM     14  C   UNL     1       7.195   4.659  17.485  0.00  0.00    +0.000 C 
ATOM     15  O   UNL     1       5.896   5.060  17.914  0.00  0.00    +0.000 OA
ENDBRANCH  12  15
ENDBRANCH   1  12
TORSDOF 2
ENDMDL
MODEL 9
REMARK VINA RESULT:      -6.4      2.343      4.691
REMARK  Name = 
REMARK  3 active torsions:
REMARK  status: ('A' for Active; 'I' for Inactive)
REMARK    1  A    between atoms: C_1  and  O_2
REMARK    2  A    between atoms: O_2  and  C_3
REMARK    3  A    between atoms: C_3  and  C_5
REMARK                            x       y       z     vdW  Elec       q    Type
REMARK                         _______ _______ _______ _____ _____    ______ ____
ROOT
ATOM      1  C   UNL     1       4.845   5.278  17.751  0.00  0.00    +0.000 C 
ATOM      2  C   UNL     1       5.283   5.342  19.229  0.00  0.00    +0.000 C 
ATOM      3  C   UNL     1       6.785   5.432  19.496  0.00  0.00    +0.000 C 
ATOM      4  C   UNL     1       7.639   6.128  18.439  0.00  0.00    +0.000 C 
ATOM      5  C   UNL     1       7.106   6.063  17.004  0.00  0.00    +0.000 C 
ATOM      6  C   UNL     1       7.389   4.698  16.336  0.00  0.00    +0.000 C 
ATOM      7  C   UNL     1       6.074   4.063  15.867  0.00  0.00    +0.000 C 
ATOM      8  C   UNL     1       5.402   4.998  14.849  0.00  0.00    +0.000 C 
ATOM      9  C   UNL     1       5.149   6.371  15.474  0.00  0.00    +0.000 C 
ATOM     10  C   UNL     1       5.592   6.378  16.949  0.00  0.00    +0.000 C 
ATOM     11  C   UNL     1       5.168   3.896  17.100  0.00  0.00    +0.000 C 
ENDROOT
BRANCH   1  12
ATOM     12  C   UNL     1       3.316   5.463  17.790  0.00  0.00    +0.000 C 
ATOM     13  O   UNL     1       2.765   6.522  18.081  0.00  0.00    +0.000 OA
BRANCH  12  15
ATOM     14  C   UNL     1       1.522   4.025  18.172  0.00  0.00    +0.000 C 
ATOM     15  O   UNL     1       2.648   4.360  17.364  0.00  0.00    +0.000 OA
ENDBRANCH  12  15
ENDBRANCH   1  12
TORSDOF 2
ENDMDL
