MODEL 1
REMARK VINA RESULT:      -5.5      0.000      0.000
REMARK  Name = 
REMARK  5 active torsions:
REMARK  status: ('A' for Active; 'I' for Inactive)
REMARK    1  A    between atoms: N_3  and  C_4
REMARK    2  A    between atoms: C_4  and  C_5
REMARK    3  A    between atoms: C_5  and  C_6
REMARK    4  A    between atoms: C_6  and  C_7
REMARK    5  A    between atoms: C_7  and  N_8
REMARK                            x       y       z     vdW  Elec       q    Type
REMARK                         _______ _______ _______ _____ _____    ______ ____
ROOT
ATOM      1  C   UNL     1       4.020   3.529  17.758  0.00  0.00    +0.000 C 
ENDROOT
BRANCH   1   2
ATOM      2  C   UNL     1       4.876   4.803  17.709  0.00  0.00    +0.000 C 
BRANCH   2   5
ATOM      3  C   UNL     1       6.745   4.451  14.615  0.00  0.00    +0.000 A 
ATOM      4  C   UNL     1       5.675   4.124  15.419  0.00  0.00    +0.000 A 
ATOM      5  N   UNL     1       5.770   4.848  16.548  0.00  0.00    +0.000 N 
ATOM      6  C   UNL     1       6.884   5.593  16.416  0.00  0.00    +0.000 A 
ATOM      7  N   UNL     1       7.504   5.374  15.241  0.00  0.00    +0.000 NA
ENDBRANCH   2   5
ENDBRANCH   1   2
BRANCH   1   8
ATOM      8  C   UNL     1       2.538   3.745  17.423  0.00  0.00    +0.000 C 
BRANCH   8   9
ATOM      9  C   UNL     1       1.892   4.637  18.501  0.00  0.00    +0.000 C 
BRANCH   9  10
ATOM     10  N   UNL     1       1.852   3.974  19.804  0.00  0.00    +0.000 N 
ATOM     11  C   UNL     1       1.160   2.869  20.127  0.00  0.00    +0.000 A 
ATOM     12  C   UNL     1       1.382   2.605  21.461  0.00  0.00    +0.000 A 
ATOM     13  N   UNL     1       2.209   3.542  21.967  0.00  0.00    +0.000 NA
ATOM     14  C   UNL     1       2.479   4.363  20.931  0.00  0.00    +0.000 A 
ENDBRANCH   9  10
ENDBRANCH   8   9
ENDBRANCH   1   8
TORSDOF 5
ENDMDL
MODEL 2
REMARK VINA RESULT:      -5.4      1.293      1.794
REMARK  Name = 
REMARK  5 active torsions:
REMARK  status: ('A' for Active; 'I' for Inactive)
REMARK    1  A    between atoms: N_3  and  C_4
REMARK    2  A    between atoms: C_4  and  C_5
REMARK    3  A    between atoms: C_5  and  C_6
REMARK    4  A    between atoms: C_6  and  C_7
REMARK    5  A    between atoms: C_7  and  N_8
REMARK                            x       y       z     vdW  Elec       q    Type
REMARK                         _______ _______ _______ _____ _____    ______ ____
ROOT
ATOM      1  C   UNL     1       3.564   4.259  17.483  0.00  0.00    +0.000 C 
ENDROOT
BRANCH   1   2
ATOM      2  C   UNL     1       4.759   4.129  16.526  0.00  0.00    +0.000 C 
BRANCH   2   5
ATOM      3  C   UNL     1       6.807   7.013  17.354  0.00  0.00    +0.000 A 
ATOM      4  C   UNL     1       5.690   6.231  17.556  0.00  0.00    +0.000 A 
ATOM      5  N   UNL     1       5.750   5.196  16.700  0.00  0.00    +0.000 N 
ATOM      6  C   UNL     1       6.885   5.364  15.996  0.00  0.00    +0.000 A 
ATOM      7  N   UNL     1       7.558   6.469  16.374  0.00  0.00    +0.000 NA
ENDBRANCH   2   5
ENDBRANCH   1   2
BRANCH   1   8
ATOM      8  C   UNL     1       2.508   3.155  17.334  0.00  0.00    +0.000 C 
BRANCH   8   9
ATOM      9  C   UNL     1       2.821   2.009  18.316  0.00  0.00    +0.000 C 
BRANCH   9  10
ATOM     10  N   UNL     1       2.453   2.354  19.689  0.00  0.00    +0.000 N 
ATOM     11  C   UNL     1       1.231   2.685  20.139  0.00  0.00    +0.000 A 
ATOM     12  C   UNL     1       1.337   2.962  21.485  0.00  0.00    +0.000 A 
ATOM     13  N   UNL     1       2.619   2.805  21.871  0.00  0.00    +0.000 NA
ATOM     14  C   UNL     1       3.275   2.434  20.753  0.00  0.00    +0.000 A 
ENDBRANCH   9  10
ENDBRANCH   8   9
ENDBRANCH   1   8
TORSDOF 5
ENDMDL
MODEL 3
REMARK VINA RESULT:      -5.3      1.414      1.876
REMARK  Name = 
REMARK  5 active torsions:
REMARK  status: ('A' for Active; 'I' for Inactive)
REMARK    1  A    between atoms: N_3  and  C_4
REMARK    2  A    between atoms: C_4  and  C_5
REMARK    3  A    between atoms: C_5  and  C_6
REMARK    4  A    between atoms: C_6  and  C_7
REMARK    5  A    between atoms: C_7  and  N_8
REMARK                            x       y       z     vdW  Elec       q    Type
REMARK                         _______ _______ _______ _____ _____    ______ ____
ROOT
ATOM      1  C   UNL     1       3.711   3.819  16.811  0.00  0.00    +0.000 C 
ENDROOT
BRANCH   1   2
ATOM      2  C   UNL     1       4.220   5.201  17.251  0.00  0.00    +0.000 C 
BRANCH   2   5
ATOM      3  C   UNL     1       7.715   4.916  18.198  0.00  0.00    +0.000 A 
ATOM      4  C   UNL     1       6.722   4.913  17.243  0.00  0.00    +0.000 A 
ATOM      5  N   UNL     1       5.552   5.153  17.860  0.00  0.00    +0.000 N 
ATOM      6  C   UNL     1       5.847   5.293  19.167  0.00  0.00    +0.000 A 
ATOM      7  N   UNL     1       7.166   5.155  19.407  0.00  0.00    +0.000 NA
ENDBRANCH   2   5
ENDBRANCH   1   2
BRANCH   1   8
ATOM      8  C   UNL     1       2.340   3.436  17.384  0.00  0.00    +0.000 C 
BRANCH   8   9
ATOM      9  C   UNL     1       1.924   4.465  18.454  0.00  0.00    +0.000 C 
BRANCH   9  10
ATOM     10  N   UNL     1       1.888   3.874  19.791  0.00  0.00    +0.000 N 
ATOM     11  C   UNL     1       1.248   2.754  20.163  0.00  0.00    +0.000 A 
ATOM     12  C   UNL     1       1.453   2.577  21.515  0.00  0.00    +0.000 A 
ATOM     13  N   UNL     1       2.218   3.584  21.982  0.00  0.00    +0.000 NA
ATOM     14  C   UNL     1       2.467   4.359  20.907  0.00  0.00    +0.000 A 
ENDBRANCH   9  10
ENDBRANCH   8   9
ENDBRANCH   1   8
TORSDOF 5
ENDMDL
MODEL 4
REMARK VINA RESULT:      -5.3      0.715      6.387
REMARK  Name = 
REMARK  5 active torsions:
REMARK  status: ('A' for Active; 'I' for Inactive)
REMARK    1  A    between atoms: N_3  and  C_4
REMARK    2  A    between atoms: C_4  and  C_5
REMARK    3  A    between atoms: C_5  and  C_6
REMARK    4  A    between atoms: C_6  and  C_7
REMARK    5  A    between atoms: C_7  and  N_8
REMARK                            x       y       z     vdW  Elec       q    Type
REMARK                         _______ _______ _______ _____ _____    ______ ____
ROOT
ATOM      1  C   UNL     1       2.864   4.642  17.537  0.00  0.00    +0.000 C 
ENDROOT
BRANCH   1   2
ATOM      2  C   UNL     1       1.519   4.214  18.145  0.00  0.00    +0.000 C 
BRANCH   2   5
ATOM      3  C   UNL     1       2.140   3.653  21.680  0.00  0.00    +0.000 A 
ATOM      4  C   UNL     1       2.222   4.442  20.553  0.00  0.00    +0.000 A 
ATOM      5  N   UNL     1       1.634   3.781  19.541  0.00  0.00    +0.000 N 
ATOM      6  C   UNL     1       1.211   2.612  20.060  0.00  0.00    +0.000 A 
ATOM      7  N   UNL     1       1.505   2.503  21.370  0.00  0.00    +0.000 NA
ENDBRANCH   2   5
ENDBRANCH   1   2
BRANCH   1   8
ATOM      8  C   UNL     1       3.910   3.521  17.456  0.00  0.00    +0.000 C 
BRANCH   8   9
ATOM      9  C   UNL     1       5.285   4.070  17.883  0.00  0.00    +0.000 C 
BRANCH   9  10
ATOM     10  N   UNL     1       6.063   4.539  16.735  0.00  0.00    +0.000 N 
ATOM     11  C   UNL     1       6.113   3.986  15.513  0.00  0.00    +0.000 A 
ATOM     12  C   UNL     1       6.987   4.728  14.748  0.00  0.00    +0.000 A 
ATOM     13  N   UNL     1       7.479   5.739  15.492  0.00  0.00    +0.000 NA
ATOM     14  C   UNL     1       6.897   5.597  16.700  0.00  0.00    +0.000 A 
ENDBRANCH   9  10
ENDBRANCH   8   9
ENDBRANCH   1   8
TORSDOF 5
ENDMDL
MODEL 5
REMARK VINA RESULT:      -5.3      0.594      1.006
REMARK  Name = 
REMARK  5 active torsions:
REMARK  status: ('A' for Active; 'I' for Inactive)
REMARK    1  A    between atoms: N_3  and  C_4
REMARK    2  A    between atoms: C_4  and  C_5
REMARK    3  A    between atoms: C_5  and  C_6
REMARK    4  A    between atoms: C_6  and  C_7
REMARK    5  A    between atoms: C_7  and  N_8
REMARK                            x       y       z     vdW  Elec       q    Type
REMARK                         _______ _______ _______ _____ _____    ______ ____
ROOT
ATOM      1  C   UNL     1       4.029   3.261  17.691  0.00  0.00    +0.000 C 
ENDROOT
BRANCH   1   2
ATOM      2  C   UNL     1       4.976   4.455  17.893  0.00  0.00    +0.000 C 
BRANCH   2   5
ATOM      3  C   UNL     1       6.947   4.509  14.843  0.00  0.00    +0.000 A 
ATOM      4  C   UNL     1       6.026   3.905  15.671  0.00  0.00    +0.000 A 
ATOM      5  N   UNL     1       5.836   4.707  16.734  0.00  0.00    +0.000 N 
ATOM      6  C   UNL     1       6.637   5.772  16.540  0.00  0.00    +0.000 A 
ATOM      7  N   UNL     1       7.331   5.682  15.388  0.00  0.00    +0.000 NA
ENDBRANCH   2   5
ENDBRANCH   1   2
BRANCH   1   8
ATOM      8  C   UNL     1       2.614   3.643  17.239  0.00  0.00    +0.000 C 
BRANCH   8   9
ATOM      9  C   UNL     1       1.996   4.623  18.256  0.00  0.00    +0.000 C 
BRANCH   9  10
ATOM     10  N   UNL     1       1.873   4.022  19.584  0.00  0.00    +0.000 N 
ATOM     11  C   UNL     1       2.512   4.399  20.703  0.00  0.00    +0.000 A 
ATOM     12  C   UNL     1       2.128   3.548  21.717  0.00  0.00    +0.000 A 
ATOM     13  N   UNL     1       1.253   2.645  21.231  0.00  0.00    +0.000 NA
ATOM     14  C   UNL     1       1.118   2.960  19.926  0.00  0.00    +0.000 A 
ENDBRANCH   9  10
ENDBRANCH   8   9
ENDBRANCH   1   8
TORSDOF 5
ENDMDL
MODEL 6
REMARK VINA RESULT:      -5.2      1.216      1.410
REMARK  Name = 
REMARK  5 active torsions:
REMARK  status: ('A' for Active; 'I' for Inactive)
REMARK    1  A    between atoms: N_3  and  C_4
REMARK    2  A    between atoms: C_4  and  C_5
REMARK    3  A    between atoms: C_5  and  C_6
REMARK    4  A    between atoms: C_6  and  C_7
REMARK    5  A    between atoms: C_7  and  N_8
REMARK                            x       y       z     vdW  Elec       q    Type
REMARK                         _______ _______ _______ _____ _____    ______ ____
ROOT
ATOM      1  C   UNL     1       3.149   5.990  17.724  0.00  0.00    +0.000 C 
ENDROOT
BRANCH   1   2
ATOM      2  C   UNL     1       4.493   5.782  18.440  0.00  0.00    +0.000 C 
BRANCH   2   5
ATOM      3  C   UNL     1       7.138   4.642  16.228  0.00  0.00    +0.000 A 
ATOM      4  C   UNL     1       6.041   4.390  17.023  0.00  0.00    +0.000 A 
ATOM      5  N   UNL     1       5.608   5.565  17.514  0.00  0.00    +0.000 N 
ATOM      6  C   UNL     1       6.440   6.501  17.020  0.00  0.00    +0.000 A 
ATOM      7  N   UNL     1       7.389   5.968  16.226  0.00  0.00    +0.000 NA
ENDBRANCH   2   5
ENDBRANCH   1   2
BRANCH   1   8
ATOM      8  C   UNL     1       1.996   5.144  18.279  0.00  0.00    +0.000 C 
BRANCH   8   9
ATOM      9  C   UNL     1       2.460   3.684  18.441  0.00  0.00    +0.000 C 
BRANCH   9  10
ATOM     10  N   UNL     1       2.271   3.202  19.810  0.00  0.00    +0.000 N 
ATOM     11  C   UNL     1       1.107   3.065  20.464  0.00  0.00    +0.000 A 
ATOM     12  C   UNL     1       1.387   2.609  21.735  0.00  0.00    +0.000 A 
ATOM     13  N   UNL     1       2.720   2.464  21.870  0.00  0.00    +0.000 NA
ATOM     14  C   UNL     1       3.233   2.833  20.679  0.00  0.00    +0.000 A 
ENDBRANCH   9  10
ENDBRANCH   8   9
ENDBRANCH   1   8
TORSDOF 5
ENDMDL
MODEL 7
REMARK VINA RESULT:      -5.2      1.193      6.406
REMARK  Name = 
REMARK  5 active torsions:
REMARK  status: ('A' for Active; 'I' for Inactive)
REMARK    1  A    between atoms: N_3  and  C_4
REMARK    2  A    between atoms: C_4  and  C_5
REMARK    3  A    between atoms: C_5  and  C_6
REMARK    4  A    between atoms: C_6  and  C_7
REMARK    5  A    between atoms: C_7  and  N_8
REMARK                            x       y       z     vdW  Elec       q    Type
REMARK                         _______ _______ _______ _____ _____    ______ ____
ROOT
ATOM      1  C   UNL     1       4.995   4.612  19.262  0.00  0.00    +0.000 C 
ENDROOT
BRANCH   1   2
ATOM      2  C   UNL     1       4.365   3.211  19.292  0.00  0.00    +0.000 C 
BRANCH   2   5
ATOM      3  C   UNL     1       0.931   3.480  20.445  0.00  0.00    +0.000 A 
ATOM      4  C   UNL     1       1.897   3.678  19.483  0.00  0.00    +0.000 A 
ATOM      5  N   UNL     1       3.057   3.185  19.953  0.00  0.00    +0.000 N 
ATOM      6  C   UNL     1       2.782   2.703  21.180  0.00  0.00    +0.000 A 
ATOM      7  N   UNL     1       1.486   2.867  21.511  0.00  0.00    +0.000 NA
ENDBRANCH   2   5
ENDBRANCH   1   2
BRANCH   1   8
ATOM      8  C   UNL     1       4.643   5.439  18.018  0.00  0.00    +0.000 C 
BRANCH   8   9
ATOM      9  C   UNL     1       4.514   4.506  16.799  0.00  0.00    +0.000 C 
BRANCH   9  10
ATOM     10  N   UNL     1       5.610   4.698  15.849  0.00  0.00    +0.000 N 
ATOM     11  C   UNL     1       5.637   4.321  14.560  0.00  0.00    +0.000 A 
ATOM     12  C   UNL     1       6.866   4.670  14.043  0.00  0.00    +0.000 A 
ATOM     13  N   UNL     1       7.601   5.261  15.006  0.00  0.00    +0.000 NA
ATOM     14  C   UNL     1       6.807   5.264  16.096  0.00  0.00    +0.000 A 
ENDBRANCH   9  10
ENDBRANCH   8   9
ENDBRANCH   1   8
TORSDOF 5
ENDMDL
MODEL 8
REMARK VINA RESULT:      -5.2      1.358      1.768
REMARK  Name = 
REMARK  5 active torsions:
REMARK  status: ('A' for Active; 'I' for Inactive)
REMARK    1  A    between atoms: N_3  and  C_4
REMARK    2  A    between atoms: C_4  and  C_5
REMARK    3  A    between atoms: C_5  and  C_6
REMARK    4  A    between atoms: C_6  and  C_7
REMARK    5  A    between atoms: C_7  and  N_8
REMARK                            x       y       z     vdW  Elec       q    Type
REMARK                         _______ _______ _______ _____ _____    ______ ____
ROOT
ATOM      1  C   UNL     1       3.374   5.833  18.081  0.00  0.00    +0.000 C 
ENDROOT
BRANCH   1   2
ATOM      2  C   UNL     1       4.481   6.499  17.249  0.00  0.00    +0.000 C 
BRANCH   2   5
ATOM      3  C   UNL     1       7.588   4.701  17.806  0.00  0.00    +0.000 A 
ATOM      4  C   UNL     1       6.492   5.387  18.282  0.00  0.00    +0.000 A 
ATOM      5  N   UNL     1       5.726   5.725  17.230  0.00  0.00    +0.000 N 
ATOM      6  C   UNL     1       6.362   5.248  16.143  0.00  0.00    +0.000 A 
ATOM      7  N   UNL     1       7.507   4.613  16.463  0.00  0.00    +0.000 NA
ENDBRANCH   2   5
ENDBRANCH   1   2
BRANCH   1   8
ATOM      8  C   UNL     1       2.958   4.442  17.587  0.00  0.00    +0.000 C 
BRANCH   8   9
ATOM      9  C   UNL     1       1.688   3.990  18.334  0.00  0.00    +0.000 C 
BRANCH   9  10
ATOM     10  N   UNL     1       1.993   3.502  19.679  0.00  0.00    +0.000 N 
ATOM     11  C   UNL     1       3.020   2.716  20.040  0.00  0.00    +0.000 A 
ATOM     12  C   UNL     1       2.914   2.475  21.393  0.00  0.00    +0.000 A 
ATOM     13  N   UNL     1       1.824   3.109  21.872  0.00  0.00    +0.000 NA
ATOM     14  C   UNL     1       1.283   3.727  20.802  0.00  0.00    +0.000 A 
ENDBRANCH   9  10
ENDBRANCH   8   9
ENDBRANCH   1   8
TORSDOF 5
ENDMDL
MODEL 9
REMARK VINA RESULT:      -5.2      1.742      2.215
REMARK  Name = 
REMARK  5 active torsions:
REMARK  status: ('A' for Active; 'I' for Inactive)
REMARK    1  A    between atoms: N_3  and  C_4
REMARK    2  A    between atoms: C_4  and  C_5
REMARK    3  A    between atoms: C_5  and  C_6
REMARK    4  A    between atoms: C_6  and  C_7
REMARK    5  A    between atoms: C_7  and  N_8
REMARK                            x       y       z     vdW  Elec       q    Type
REMARK                         _______ _______ _______ _____ _____    ______ ____
ROOT
ATOM      1  C   UNL     1       3.716   4.616  17.559  0.00  0.00    +0.000 C 
ENDROOT
BRANCH   1   2
ATOM      2  C   UNL     1       5.198   4.273  17.768  0.00  0.00    +0.000 C 
BRANCH   2   5
ATOM      3  C   UNL     1       7.683   6.915  17.975  0.00  0.00    +0.000 A 
ATOM      4  C   UNL     1       7.198   5.685  18.364  0.00  0.00    +0.000 A 
ATOM      5  N   UNL     1       6.078   5.441  17.661  0.00  0.00    +0.000 N 
ATOM      6  C   UNL     1       5.899   6.514  16.868  0.00  0.00    +0.000 A 
ATOM      7  N   UNL     1       6.867   7.436  17.035  0.00  0.00    +0.000 NA
ENDBRANCH   2   5
ENDBRANCH   1   2
BRANCH   1   8
ATOM      8  C   UNL     1       2.835   3.421  17.172  0.00  0.00    +0.000 C 
BRANCH   8   9
ATOM      9  C   UNL     1       3.092   2.256  18.147  0.00  0.00    +0.000 C 
BRANCH   9  10
ATOM     10  N   UNL     1       2.545   2.529  19.476  0.00  0.00    +0.000 N 
ATOM     11  C   UNL     1       3.231   2.643  20.625  0.00  0.00    +0.000 A 
ATOM     12  C   UNL     1       2.325   2.872  21.638  0.00  0.00    +0.000 A 
ATOM     13  N   UNL     1       1.080   2.899  21.122  0.00  0.00    +0.000 NA
ATOM     14  C   UNL     1       1.247   2.687  19.801  0.00  0.00    +0.000 A 
ENDBRANCH   9  10
ENDBRANCH   8   9
ENDBRANCH   1   8
TORSDOF 5
ENDMDL
