MODEL 1
REMARK VINA RESULT:      -7.5      0.000      0.000
REMARK  Name = 
REMARK  9 active torsions:
REMARK  status: ('A' for Active; 'I' for Inactive)
REMARK    1  A    between atoms: C_1  and  O_2
REMARK    2  A    between atoms: O_2  and  C_3
REMARK    3  A    between atoms: C_5  and  N_6
REMARK    4  A    between atoms: C_7  and  C_9
REMARK    5  A    between atoms: C_9  and  O_10
REMARK    6  A    between atoms: O_10  and  C_11
REMARK    7  A    between atoms: C_14  and  N_15
REMARK    8  A    between atoms: C_22  and  N_23
REMARK    9  A    between atoms: C_24  and  C_26
REMARK                            x       y       z     vdW  Elec       q    Type
REMARK                         _______ _______ _______ _____ _____    ______ ____
ROOT
ATOM      1  C   UNL     1       5.401   4.398  18.368  0.00  0.00    +0.000 A 
ATOM      2  C   UNL     1       4.722   4.134  19.576  0.00  0.00    +0.000 A 
ATOM      3  C   UNL     1       3.779   3.115  19.658  0.00  0.00    +0.000 A 
ATOM      4  C   UNL     1       3.464   2.364  18.544  0.00  0.00    +0.000 A 
ATOM      5  C   UNL     1       4.153   2.594  17.355  0.00  0.00    +0.000 A 
ATOM      6  C   UNL     1       5.133   3.589  17.233  0.00  0.00    +0.000 A 
ENDROOT
BRANCH   3   7
ATOM      7  N   UNL     1       3.196   2.792  20.884  0.00  0.00    +0.000 N 
ATOM      8  C   UNL     1       2.053   3.380  21.384  0.00  0.00    +0.000 C 
ATOM      9  O   UNL     1       1.572   2.956  22.438  0.00  0.00    +0.000 OA
ATOM     10  H   UNL     1       3.506   1.964  21.379  0.00  0.00    +0.000 HD
BRANCH   8  11
ATOM     11  C   UNL     1       1.429   4.545  20.613  0.00  0.00    +0.000 C 
BRANCH  11  12
ATOM     12  O   UNL     1       2.044   5.731  21.095  0.00  0.00    +0.000 OA
BRANCH  12  13
ATOM     13  C   UNL     1       1.784   6.891  20.421  0.00  0.00    +0.000 A 
ATOM     14  C   UNL     1       1.097   7.849  21.175  0.00  0.00    +0.000 A 
ATOM     15  C   UNL     1       0.804   9.107  20.644  0.00  0.00    +0.000 A 
ATOM     16  C   UNL     1       1.226   9.414  19.346  0.00  0.00    +0.000 A 
ATOM     17  C   UNL     1       1.912   8.461  18.579  0.00  0.00    +0.000 A 
ATOM     18  C   UNL     1       2.189   7.197  19.121  0.00  0.00    +0.000 A 
BRANCH  16  19
ATOM     19  N   UNL     1       0.961  10.748  18.793  0.00  0.00    +0.000 N 
ATOM     20  O   UNL     1       1.818  11.626  18.967  0.00  0.00    +0.000 OA
ATOM     21  O   UNL     1      -0.104  10.918  18.183  0.00  0.00    +0.000 OA
ENDBRANCH  16  19
ENDBRANCH  12  13
ENDBRANCH  11  12
ENDBRANCH   8  11
ENDBRANCH   3   7
BRANCH   6  22
ATOM     22  N   UNL     1       5.839   3.724  16.000  0.00  0.00    +0.000 N 
ATOM     23  C   UNL     1       5.712   4.787  15.096  0.00  0.00    +0.000 C 
ATOM     24  O   UNL     1       5.074   5.828  15.307  0.00  0.00    +0.000 OA
ATOM     25  H   UNL     1       6.513   3.005  15.762  0.00  0.00    +0.000 HD
BRANCH  23  26
ATOM     26  C   UNL     1       6.422   4.623  13.842  0.00  0.00    +0.000 A 
ATOM     27  C   UNL     1       6.242   3.717  12.812  0.00  0.00    +0.000 A 
ATOM     28  C   UNL     1       7.203   4.031  11.817  0.00  0.00    +0.000 A 
ATOM     29  C   UNL     1       7.916   5.099  12.312  0.00  0.00    +0.000 A 
ATOM     30  O   UNL     1       7.458   5.469  13.537  0.00  0.00    +0.000 OA
ENDBRANCH  23  26
ENDBRANCH   6  22
BRANCH   1  32
ATOM     31  C   UNL     1       7.557   5.180  18.984  0.00  0.00    +0.000 C 
ATOM     32  O   UNL     1       6.320   5.426  18.286  0.00  0.00    +0.000 OA
ENDBRANCH   1  32
TORSDOF 8
ENDMDL
MODEL 2
REMARK VINA RESULT:      -7.4      0.930      1.083
REMARK  Name = 
REMARK  9 active torsions:
REMARK  status: ('A' for Active; 'I' for Inactive)
REMARK    1  A    between atoms: C_1  and  O_2
REMARK    2  A    between atoms: O_2  and  C_3
REMARK    3  A    between atoms: C_5  and  N_6
REMARK    4  A    between atoms: C_7  and  C_9
REMARK    5  A    between atoms: C_9  and  O_10
REMARK    6  A    between atoms: O_10  and  C_11
REMARK    7  A    between atoms: C_14  and  N_15
REMARK    8  A    between atoms: C_22  and  N_23
REMARK    9  A    between atoms: C_24  and  C_26
REMARK                            x       y       z     vdW  Elec       q    Type
REMARK                         _______ _______ _______ _____ _____    ______ ____
ROOT
ATOM      1  C   UNL     1       4.870   4.830  17.961  0.00  0.00    +0.000 A 
ATOM      2  C   UNL     1       4.307   4.506  19.213  0.00  0.00    +0.000 A 
ATOM      3  C   UNL     1       3.658   3.292  19.412  0.00  0.00    +0.000 A 
ATOM      4  C   UNL     1       3.522   2.394  18.372  0.00  0.00    +0.000 A 
ATOM      5  C   UNL     1       4.104   2.691  17.142  0.00  0.00    +0.000 A 
ATOM      6  C   UNL     1       4.794   3.887  16.903  0.00  0.00    +0.000 A 
ENDROOT
BRANCH   3   7
ATOM      7  N   UNL     1       3.203   2.936  20.683  0.00  0.00    +0.000 N 
ATOM      8  C   UNL     1       2.101   3.489  21.301  0.00  0.00    +0.000 C 
ATOM      9  O   UNL     1       1.734   3.038  22.388  0.00  0.00    +0.000 OA
ATOM     10  H   UNL     1       3.577   2.108  21.130  0.00  0.00    +0.000 HD
BRANCH   8  11
ATOM     11  C   UNL     1       1.381   4.652  20.615  0.00  0.00    +0.000 C 
BRANCH  11  12
ATOM     12  O   UNL     1       1.798   5.839  21.275  0.00  0.00    +0.000 OA
BRANCH  12  13
ATOM     13  C   UNL     1       1.555   7.027  20.644  0.00  0.00    +0.000 A 
ATOM     14  C   UNL     1       0.847   7.952  21.417  0.00  0.00    +0.000 A 
ATOM     15  C   UNL     1       0.569   9.231  20.931  0.00  0.00    +0.000 A 
ATOM     16  C   UNL     1       1.026   9.592  19.660  0.00  0.00    +0.000 A 
ATOM     17  C   UNL     1       1.734   8.672  18.873  0.00  0.00    +0.000 A 
ATOM     18  C   UNL     1       1.997   7.386  19.369  0.00  0.00    +0.000 A 
BRANCH  16  19
ATOM     19  N   UNL     1       0.776  10.948  19.156  0.00  0.00    +0.000 N 
ATOM     20  O   UNL     1       1.529  11.856  19.540  0.00  0.00    +0.000 OA
ATOM     21  O   UNL     1      -0.172  11.107  18.374  0.00  0.00    +0.000 OA
ENDBRANCH  16  19
ENDBRANCH  12  13
ENDBRANCH  11  12
ENDBRANCH   8  11
ENDBRANCH   3   7
BRANCH   6  22
ATOM     22  N   UNL     1       5.415   4.093  15.635  0.00  0.00    +0.000 N 
ATOM     23  C   UNL     1       6.787   4.270  15.413  0.00  0.00    +0.000 C 
ATOM     24  O   UNL     1       7.670   4.135  16.272  0.00  0.00    +0.000 OA
ATOM     25  H   UNL     1       4.821   4.083  14.813  0.00  0.00    +0.000 HD
BRANCH  23  26
ATOM     26  C   UNL     1       7.156   4.612  14.053  0.00  0.00    +0.000 A 
ATOM     27  C   UNL     1       6.690   4.133  12.841  0.00  0.00    +0.000 A 
ATOM     28  C   UNL     1       7.386   4.839  11.827  0.00  0.00    +0.000 A 
ATOM     29  C   UNL     1       8.241   5.692  12.486  0.00  0.00    +0.000 A 
ATOM     30  O   UNL     1       8.116   5.566  13.834  0.00  0.00    +0.000 OA
ENDBRANCH  23  26
ENDBRANCH   6  22
BRANCH   1  32
ATOM     31  C   UNL     1       4.656   7.061  17.175  0.00  0.00    +0.000 C 
ATOM     32  O   UNL     1       5.494   6.047  17.763  0.00  0.00    +0.000 OA
ENDBRANCH   1  32
TORSDOF 8
ENDMDL
MODEL 3
REMARK VINA RESULT:      -7.4      0.709      1.130
REMARK  Name = 
REMARK  9 active torsions:
REMARK  status: ('A' for Active; 'I' for Inactive)
REMARK    1  A    between atoms: C_1  and  O_2
REMARK    2  A    between atoms: O_2  and  C_3
REMARK    3  A    between atoms: C_5  and  N_6
REMARK    4  A    between atoms: C_7  and  C_9
REMARK    5  A    between atoms: C_9  and  O_10
REMARK    6  A    between atoms: O_10  and  C_11
REMARK    7  A    between atoms: C_14  and  N_15
REMARK    8  A    between atoms: C_22  and  N_23
REMARK    9  A    between atoms: C_24  and  C_26
REMARK                            x       y       z     vdW  Elec       q    Type
REMARK                         _______ _______ _______ _____ _____    ______ ____
ROOT
ATOM      1  C   UNL     1       5.386   3.680  18.496  0.00  0.00    +0.000 A 
ATOM      2  C   UNL     1       4.552   3.356  19.586  0.00  0.00    +0.000 A 
ATOM      3  C   UNL     1       3.268   2.860  19.382  0.00  0.00    +0.000 A 
ATOM      4  C   UNL     1       2.773   2.710  18.102  0.00  0.00    +0.000 A 
ATOM      5  C   UNL     1       3.601   2.996  17.018  0.00  0.00    +0.000 A 
ATOM      6  C   UNL     1       4.912   3.468  17.175  0.00  0.00    +0.000 A 
ENDROOT
BRANCH   3   7
ATOM      7  N   UNL     1       2.494   2.439  20.464  0.00  0.00    +0.000 N 
ATOM      8  C   UNL     1       1.942   3.283  21.404  0.00  0.00    +0.000 C 
ATOM      9  O   UNL     1       1.199   2.814  22.270  0.00  0.00    +0.000 OA
ATOM     10  H   UNL     1       2.158   1.484  20.493  0.00  0.00    +0.000 HD
BRANCH   8  11
ATOM     11  C   UNL     1       2.279   4.775  21.340  0.00  0.00    +0.000 C 
BRANCH  11  12
ATOM     12  O   UNL     1       2.084   5.181  19.993  0.00  0.00    +0.000 OA
BRANCH  12  13
ATOM     13  C   UNL     1       1.931   6.519  19.757  0.00  0.00    +0.000 A 
ATOM     14  C   UNL     1       2.222   6.906  18.445  0.00  0.00    +0.000 A 
ATOM     15  C   UNL     1       2.062   8.231  18.034  0.00  0.00    +0.000 A 
ATOM     16  C   UNL     1       1.582   9.174  18.948  0.00  0.00    +0.000 A 
ATOM     17  C   UNL     1       1.290   8.799  20.268  0.00  0.00    +0.000 A 
ATOM     18  C   UNL     1       1.467   7.468  20.670  0.00  0.00    +0.000 A 
BRANCH  16  19
ATOM     19  N   UNL     1       1.369  10.561  18.515  0.00  0.00    +0.000 N 
ATOM     20  O   UNL     1       2.350  11.193  18.098  0.00  0.00    +0.000 OA
ATOM     21  O   UNL     1       0.220  11.019  18.590  0.00  0.00    +0.000 OA
ENDBRANCH  16  19
ENDBRANCH  12  13
ENDBRANCH  11  12
ENDBRANCH   8  11
ENDBRANCH   3   7
BRANCH   6  22
ATOM     22  N   UNL     1       5.719   3.681  16.018  0.00  0.00    +0.000 N 
ATOM     23  C   UNL     1       5.765   4.855  15.255  0.00  0.00    +0.000 C 
ATOM     24  O   UNL     1       5.216   5.923  15.560  0.00  0.00    +0.000 OA
ATOM     25  H   UNL     1       6.338   2.930  15.730  0.00  0.00    +0.000 HD
BRANCH  23  26
ATOM     26  C   UNL     1       6.550   4.774  14.038  0.00  0.00    +0.000 A 
ATOM     27  C   UNL     1       6.405   3.972  12.919  0.00  0.00    +0.000 A 
ATOM     28  C   UNL     1       7.440   4.332  12.020  0.00  0.00    +0.000 A 
ATOM     29  C   UNL     1       8.157   5.322  12.654  0.00  0.00    +0.000 A 
ATOM     30  O   UNL     1       7.633   5.599  13.877  0.00  0.00    +0.000 OA
ENDBRANCH  23  26
ENDBRANCH   6  22
BRANCH   1  32
ATOM     31  C   UNL     1       6.689   5.612  18.952  0.00  0.00    +0.000 C 
ATOM     32  O   UNL     1       6.651   4.193  18.705  0.00  0.00    +0.000 OA
ENDBRANCH   1  32
TORSDOF 8
ENDMDL
MODEL 4
REMARK VINA RESULT:      -7.3      2.297      8.382
REMARK  Name = 
REMARK  9 active torsions:
REMARK  status: ('A' for Active; 'I' for Inactive)
REMARK    1  A    between atoms: C_1  and  O_2
REMARK    2  A    between atoms: O_2  and  C_3
REMARK    3  A    between atoms: C_5  and  N_6
REMARK    4  A    between atoms: C_7  and  C_9
REMARK    5  A    between atoms: C_9  and  O_10
REMARK    6  A    between atoms: O_10  and  C_11
REMARK    7  A    between atoms: C_14  and  N_15
REMARK    8  A    between atoms: C_22  and  N_23
REMARK    9  A    between atoms: C_24  and  C_26
REMARK                            x       y       z     vdW  Elec       q    Type
REMARK                         _______ _______ _______ _____ _____    ______ ____
ROOT
ATOM      1  C   UNL     1       2.876   5.964  19.535  0.00  0.00    +0.000 A 
ATOM      2  C   UNL     1       4.015   5.140  19.427  0.00  0.00    +0.000 A 
ATOM      3  C   UNL     1       4.939   5.329  18.404  0.00  0.00    +0.000 A 
ATOM      4  C   UNL     1       4.736   6.308  17.452  0.00  0.00    +0.000 A 
ATOM      5  C   UNL     1       3.631   7.149  17.570  0.00  0.00    +0.000 A 
ATOM      6  C   UNL     1       2.691   7.016  18.601  0.00  0.00    +0.000 A 
ENDROOT
BRANCH   3   7
ATOM      7  N   UNL     1       6.116   4.581  18.371  0.00  0.00    +0.000 N 
ATOM      8  C   UNL     1       7.223   4.900  17.613  0.00  0.00    +0.000 C 
ATOM      9  O   UNL     1       8.245   4.219  17.727  0.00  0.00    +0.000 OA
ATOM     10  H   UNL     1       6.262   3.853  19.061  0.00  0.00    +0.000 HD
BRANCH   8  11
ATOM     11  C   UNL     1       7.137   6.086  16.651  0.00  0.00    +0.000 C 
BRANCH  11  12
ATOM     12  O   UNL     1       7.752   5.676  15.437  0.00  0.00    +0.000 OA
BRANCH  12  13
ATOM     13  C   UNL     1       6.980   4.989  14.543  0.00  0.00    +0.000 A 
ATOM     14  C   UNL     1       7.609   4.735  13.320  0.00  0.00    +0.000 A 
ATOM     15  C   UNL     1       6.968   3.998  12.323  0.00  0.00    +0.000 A 
ATOM     16  C   UNL     1       5.688   3.490  12.566  0.00  0.00    +0.000 A 
ATOM     17  C   UNL     1       5.046   3.741  13.787  0.00  0.00    +0.000 A 
ATOM     18  C   UNL     1       5.696   4.493  14.776  0.00  0.00    +0.000 A 
BRANCH  16  19
ATOM     19  N   UNL     1       5.023   2.676  11.540  0.00  0.00    +0.000 N 
ATOM     20  O   UNL     1       5.591   1.641  11.165  0.00  0.00    +0.000 OA
ATOM     21  O   UNL     1       3.930   3.071  11.110  0.00  0.00    +0.000 OA
ENDBRANCH  16  19
ENDBRANCH  12  13
ENDBRANCH  11  12
ENDBRANCH   8  11
ENDBRANCH   3   7
BRANCH   6  22
ATOM     22  N   UNL     1       1.618   7.954  18.690  0.00  0.00    +0.000 N 
ATOM     23  C   UNL     1       1.655   9.284  18.253  0.00  0.00    +0.000 C 
ATOM     24  O   UNL     1       2.576   9.794  17.600  0.00  0.00    +0.000 OA
ATOM     25  H   UNL     1       0.739   7.629  19.078  0.00  0.00    +0.000 HD
BRANCH  23  26
ATOM     26  C   UNL     1       0.490  10.080  18.590  0.00  0.00    +0.000 A 
ATOM     27  C   UNL     1      -0.805  10.039  18.105  0.00  0.00    +0.000 A 
ATOM     28  C   UNL     1      -1.538  11.029  18.809  0.00  0.00    +0.000 A 
ATOM     29  C   UNL     1      -0.638  11.617  19.668  0.00  0.00    +0.000 A 
ATOM     30  O   UNL     1       0.595  11.057  19.547  0.00  0.00    +0.000 OA
ENDBRANCH  23  26
ENDBRANCH   6  22
BRANCH   1  32
ATOM     31  C   UNL     1       2.046   4.474  21.188  0.00  0.00    +0.000 C 
ATOM     32  O   UNL     1       1.950   5.758  20.540  0.00  0.00    +0.000 OA
ENDBRANCH   1  32
TORSDOF 8
ENDMDL
MODEL 5
REMARK VINA RESULT:      -7.3      2.665      3.930
REMARK  Name = 
REMARK  9 active torsions:
REMARK  status: ('A' for Active; 'I' for Inactive)
REMARK    1  A    between atoms: C_1  and  O_2
REMARK    2  A    between atoms: O_2  and  C_3
REMARK    3  A    between atoms: C_5  and  N_6
REMARK    4  A    between atoms: C_7  and  C_9
REMARK    5  A    between atoms: C_9  and  O_10
REMARK    6  A    between atoms: O_10  and  C_11
REMARK    7  A    between atoms: C_14  and  N_15
REMARK    8  A    between atoms: C_22  and  N_23
REMARK    9  A    between atoms: C_24  and  C_26
REMARK                            x       y       z     vdW  Elec       q    Type
REMARK                         _______ _______ _______ _____ _____    ______ ____
ROOT
ATOM      1  C   UNL     1       2.854   4.442  17.703  0.00  0.00    +0.000 A 
ATOM      2  C   UNL     1       2.257   5.038  18.833  0.00  0.00    +0.000 A 
ATOM      3  C   UNL     1       2.902   6.055  19.529  0.00  0.00    +0.000 A 
ATOM      4  C   UNL     1       4.160   6.475  19.146  0.00  0.00    +0.000 A 
ATOM      5  C   UNL     1       4.744   5.915  18.012  0.00  0.00    +0.000 A 
ATOM      6  C   UNL     1       4.119   4.910  17.261  0.00  0.00    +0.000 A 
ENDROOT
BRANCH   3   7
ATOM      7  N   UNL     1       2.255   6.712  20.577  0.00  0.00    +0.000 N 
ATOM      8  C   UNL     1       1.559   7.895  20.445  0.00  0.00    +0.000 C 
ATOM      9  O   UNL     1       0.948   8.344  21.418  0.00  0.00    +0.000 OA
ATOM     10  H   UNL     1       2.124   6.232  21.459  0.00  0.00    +0.000 HD
BRANCH   8  11
ATOM     11  C   UNL     1       1.578   8.612  19.093  0.00  0.00    +0.000 C 
BRANCH  11  12
ATOM     12  O   UNL     1       1.275   9.977  19.349  0.00  0.00    +0.000 OA
BRANCH  12  13
ATOM     13  C   UNL     1       0.036  10.423  18.981  0.00  0.00    +0.000 A 
ATOM     14  C   UNL     1      -0.472   9.817  17.827  0.00  0.00    +0.000 A 
ATOM     15  C   UNL     1      -1.748  10.127  17.355  0.00  0.00    +0.000 A 
ATOM     16  C   UNL     1      -2.533  11.043  18.063  0.00  0.00    +0.000 A 
ATOM     17  C   UNL     1      -2.034  11.660  19.219  0.00  0.00    +0.000 A 
ATOM     18  C   UNL     1      -0.745  11.348  19.676  0.00  0.00    +0.000 A 
BRANCH  16  19
ATOM     19  N   UNL     1      -3.893  11.345  17.599  0.00  0.00    +0.000 N 
ATOM     20  O   UNL     1      -4.246  10.881  16.505  0.00  0.00    +0.000 OA
ATOM     21  O   UNL     1      -4.610  12.044  18.329  0.00  0.00    +0.000 OA
ENDBRANCH  16  19
ENDBRANCH  12  13
ENDBRANCH  11  12
ENDBRANCH   8  11
ENDBRANCH   3   7
BRANCH   6  22
ATOM     22  N   UNL     1       4.753   4.429  16.076  0.00  0.00    +0.000 N 
ATOM     23  C   UNL     1       5.367   5.221  15.096  0.00  0.00    +0.000 C 
ATOM     24  O   UNL     1       5.568   6.440  15.190  0.00  0.00    +0.000 OA
ATOM     25  H   UNL     1       4.792   3.425  15.937  0.00  0.00    +0.000 HD
BRANCH  23  26
ATOM     26  C   UNL     1       5.808   4.510  13.912  0.00  0.00    +0.000 A 
ATOM     27  C   UNL     1       7.059   4.416  13.326  0.00  0.00    +0.000 A 
ATOM     28  C   UNL     1       6.920   3.567  12.199  0.00  0.00    +0.000 A 
ATOM     29  C   UNL     1       5.592   3.209  12.162  0.00  0.00    +0.000 A 
ATOM     30  O   UNL     1       4.904   3.774  13.191  0.00  0.00    +0.000 OA
ENDBRANCH  23  26
ENDBRANCH   6  22
BRANCH   1  32
ATOM     31  C   UNL     1       2.402   2.112  17.612  0.00  0.00    +0.000 C 
ATOM     32  O   UNL     1       2.219   3.417  17.029  0.00  0.00    +0.000 OA
ENDBRANCH   1  32
TORSDOF 8
ENDMDL
MODEL 6
REMARK VINA RESULT:      -7.3      2.913      7.975
REMARK  Name = 
REMARK  9 active torsions:
REMARK  status: ('A' for Active; 'I' for Inactive)
REMARK    1  A    between atoms: C_1  and  O_2
REMARK    2  A    between atoms: O_2  and  C_3
REMARK    3  A    between atoms: C_5  and  N_6
REMARK    4  A    between atoms: C_7  and  C_9
REMARK    5  A    between atoms: C_9  and  O_10
REMARK    6  A    between atoms: O_10  and  C_11
REMARK    7  A    between atoms: C_14  and  N_15
REMARK    8  A    between atoms: C_22  and  N_23
REMARK    9  A    between atoms: C_24  and  C_26
REMARK                            x       y       z     vdW  Elec       q    Type
REMARK                         _______ _______ _______ _____ _____    ______ ____
ROOT
ATOM      1  C   UNL     1       2.267   7.414  18.916  0.00  0.00    +0.000 A 
ATOM      2  C   UNL     1       2.575   6.156  18.357  0.00  0.00    +0.000 A 
ATOM      3  C   UNL     1       2.344   4.982  19.067  0.00  0.00    +0.000 A 
ATOM      4  C   UNL     1       1.841   5.031  20.352  0.00  0.00    +0.000 A 
ATOM      5  C   UNL     1       1.502   6.267  20.900  0.00  0.00    +0.000 A 
ATOM      6  C   UNL     1       1.687   7.473  20.210  0.00  0.00    +0.000 A 
ENDROOT
BRANCH   3   7
ATOM      7  N   UNL     1       2.550   3.741  18.464  0.00  0.00    +0.000 N 
ATOM      8  C   UNL     1       3.765   3.092  18.406  0.00  0.00    +0.000 C 
ATOM      9  O   UNL     1       3.817   1.957  17.927  0.00  0.00    +0.000 OA
ATOM     10  H   UNL     1       1.749   3.181  18.195  0.00  0.00    +0.000 HD
BRANCH   8  11
ATOM     11  C   UNL     1       5.008   3.813  18.933  0.00  0.00    +0.000 C 
BRANCH  11  12
ATOM     12  O   UNL     1       5.742   4.249  17.797  0.00  0.00    +0.000 OA
BRANCH  12  13
ATOM     13  C   UNL     1       6.493   5.383  17.933  0.00  0.00    +0.000 A 
ATOM     14  C   UNL     1       6.056   6.456  17.150  0.00  0.00    +0.000 A 
ATOM     15  C   UNL     1       6.687   7.699  17.218  0.00  0.00    +0.000 A 
ATOM     16  C   UNL     1       7.758   7.873  18.102  0.00  0.00    +0.000 A 
ATOM     17  C   UNL     1       8.207   6.803  18.890  0.00  0.00    +0.000 A 
ATOM     18  C   UNL     1       7.571   5.556  18.803  0.00  0.00    +0.000 A 
BRANCH  16  19
ATOM     19  N   UNL     1       8.402   9.188  18.213  0.00  0.00    +0.000 N 
ATOM     20  O   UNL     1       8.051  10.072  17.418  0.00  0.00    +0.000 OA
ATOM     21  O   UNL     1       9.256   9.338  19.097  0.00  0.00    +0.000 OA
ENDBRANCH  16  19
ENDBRANCH  12  13
ENDBRANCH  11  12
ENDBRANCH   8  11
ENDBRANCH   3   7
BRANCH   6  22
ATOM     22  N   UNL     1       1.259   8.693  20.814  0.00  0.00    +0.000 N 
ATOM     23  C   UNL     1       0.032   8.904  21.455  0.00  0.00    +0.000 C 
ATOM     24  O   UNL     1      -0.798   8.019  21.711  0.00  0.00    +0.000 OA
ATOM     25  H   UNL     1       1.906   9.475  20.806  0.00  0.00    +0.000 HD
BRANCH  23  26
ATOM     26  C   UNL     1      -0.233  10.272  21.855  0.00  0.00    +0.000 A 
ATOM     27  C   UNL     1      -0.985  10.780  22.900  0.00  0.00    +0.000 A 
ATOM     28  C   UNL     1      -0.875  12.193  22.834  0.00  0.00    +0.000 A 
ATOM     29  C   UNL     1      -0.074  12.454  21.746  0.00  0.00    +0.000 A 
ATOM     30  O   UNL     1       0.321  11.303  21.141  0.00  0.00    +0.000 OA
ENDBRANCH  23  26
ENDBRANCH   6  22
BRANCH   1  32
ATOM     31  C   UNL     1       1.346   9.216  17.673  0.00  0.00    +0.000 C 
ATOM     32  O   UNL     1       2.519   8.577  18.215  0.00  0.00    +0.000 OA
ENDBRANCH   1  32
TORSDOF 8
ENDMDL
MODEL 7
REMARK VINA RESULT:      -7.2      2.650      3.715
REMARK  Name = 
REMARK  9 active torsions:
REMARK  status: ('A' for Active; 'I' for Inactive)
REMARK    1  A    between atoms: C_1  and  O_2
REMARK    2  A    between atoms: O_2  and  C_3
REMARK    3  A    between atoms: C_5  and  N_6
REMARK    4  A    between atoms: C_7  and  C_9
REMARK    5  A    between atoms: C_9  and  O_10
REMARK    6  A    between atoms: O_10  and  C_11
REMARK    7  A    between atoms: C_14  and  N_15
REMARK    8  A    between atoms: C_22  and  N_23
REMARK    9  A    between atoms: C_24  and  C_26
REMARK                            x       y       z     vdW  Elec       q    Type
REMARK                         _______ _______ _______ _____ _____    ______ ____
ROOT
ATOM      1  C   UNL     1       4.512   5.313  18.867  0.00  0.00    +0.000 A 
ATOM      2  C   UNL     1       3.735   5.806  19.936  0.00  0.00    +0.000 A 
ATOM      3  C   UNL     1       2.610   6.590  19.700  0.00  0.00    +0.000 A 
ATOM      4  C   UNL     1       2.255   6.931  18.411  0.00  0.00    +0.000 A 
ATOM      5  C   UNL     1       2.996   6.421  17.347  0.00  0.00    +0.000 A 
ATOM      6  C   UNL     1       4.118   5.602  17.535  0.00  0.00    +0.000 A 
ENDROOT
BRANCH   3   7
ATOM      7  N   UNL     1       1.788   6.979  20.759  0.00  0.00    +0.000 N 
ATOM      8  C   UNL     1       1.163   8.205  20.853  0.00  0.00    +0.000 C 
ATOM      9  O   UNL     1       0.386   8.412  21.787  0.00  0.00    +0.000 OA
ATOM     10  H   UNL     1       1.474   6.283  21.425  0.00  0.00    +0.000 HD
BRANCH   8  11
ATOM     11  C   UNL     1       1.468   9.267  19.794  0.00  0.00    +0.000 C 
BRANCH  11  12
ATOM     12  O   UNL     1       0.548  10.330  20.003  0.00  0.00    +0.000 OA
BRANCH  12  13
ATOM     13  C   UNL     1      -0.496  10.438  19.128  0.00  0.00    +0.000 A 
ATOM     14  C   UNL     1      -1.457  11.384  19.498  0.00  0.00    +0.000 A 
ATOM     15  C   UNL     1      -2.557  11.649  18.680  0.00  0.00    +0.000 A 
ATOM     16  C   UNL     1      -2.681  10.969  17.463  0.00  0.00    +0.000 A 
ATOM     17  C   UNL     1      -1.726  10.015  17.084  0.00  0.00    +0.000 A 
ATOM     18  C   UNL     1      -0.632   9.751  17.920  0.00  0.00    +0.000 A 
BRANCH  16  19
ATOM     19  N   UNL     1      -3.811  11.271  16.575  0.00  0.00    +0.000 N 
ATOM     20  O   UNL     1      -4.765  11.905  17.049  0.00  0.00    +0.000 OA
ATOM     21  O   UNL     1      -3.744  10.876  15.403  0.00  0.00    +0.000 OA
ENDBRANCH  16  19
ENDBRANCH  12  13
ENDBRANCH  11  12
ENDBRANCH   8  11
ENDBRANCH   3   7
BRANCH   6  22
ATOM     22  N   UNL     1       4.790   5.069  16.394  0.00  0.00    +0.000 N 
ATOM     23  C   UNL     1       5.896   5.641  15.753  0.00  0.00    +0.000 C 
ATOM     24  O   UNL     1       6.534   6.618  16.171  0.00  0.00    +0.000 OA
ATOM     25  H   UNL     1       4.461   4.183  16.025  0.00  0.00    +0.000 HD
BRANCH  23  26
ATOM     26  C   UNL     1       6.307   4.990  14.524  0.00  0.00    +0.000 A 
ATOM     27  C   UNL     1       5.756   3.921  13.839  0.00  0.00    +0.000 A 
ATOM     28  C   UNL     1       6.553   3.722  12.683  0.00  0.00    +0.000 A 
ATOM     29  C   UNL     1       7.544   4.674  12.745  0.00  0.00    +0.000 A 
ATOM     30  O   UNL     1       7.412   5.448  13.854  0.00  0.00    +0.000 OA
ENDBRANCH  23  26
ENDBRANCH   6  22
BRANCH   1  32
ATOM     31  C   UNL     1       6.824   5.318  19.408  0.00  0.00    +0.000 C 
ATOM     32  O   UNL     1       5.640   4.553  19.108  0.00  0.00    +0.000 OA
ENDBRANCH   1  32
TORSDOF 8
ENDMDL
MODEL 8
REMARK VINA RESULT:      -7.1      2.308      8.478
REMARK  Name = 
REMARK  9 active torsions:
REMARK  status: ('A' for Active; 'I' for Inactive)
REMARK    1  A    between atoms: C_1  and  O_2
REMARK    2  A    between atoms: O_2  and  C_3
REMARK    3  A    between atoms: C_5  and  N_6
REMARK    4  A    between atoms: C_7  and  C_9
REMARK    5  A    between atoms: C_9  and  O_10
REMARK    6  A    between atoms: O_10  and  C_11
REMARK    7  A    between atoms: C_14  and  N_15
REMARK    8  A    between atoms: C_22  and  N_23
REMARK    9  A    between atoms: C_24  and  C_26
REMARK                            x       y       z     vdW  Elec       q    Type
REMARK                         _______ _______ _______ _____ _____    ______ ____
ROOT
ATOM      1  C   UNL     1       2.845   5.843  19.562  0.00  0.00    +0.000 A 
ATOM      2  C   UNL     1       3.971   5.025  19.333  0.00  0.00    +0.000 A 
ATOM      3  C   UNL     1       4.923   5.370  18.379  0.00  0.00    +0.000 A 
ATOM      4  C   UNL     1       4.761   6.505  17.610  0.00  0.00    +0.000 A 
ATOM      5  C   UNL     1       3.670   7.337  17.853  0.00  0.00    +0.000 A 
ATOM      6  C   UNL     1       2.702   7.047  18.825  0.00  0.00    +0.000 A 
ENDROOT
BRANCH   3   7
ATOM      7  N   UNL     1       6.086   4.613  18.238  0.00  0.00    +0.000 N 
ATOM      8  C   UNL     1       7.109   4.907  17.360  0.00  0.00    +0.000 C 
ATOM      9  O   UNL     1       8.133   4.221  17.381  0.00  0.00    +0.000 OA
ATOM     10  H   UNL     1       6.300   3.899  18.925  0.00  0.00    +0.000 HD
BRANCH   8  11
ATOM     11  C   UNL     1       6.927   6.074  16.386  0.00  0.00    +0.000 C 
BRANCH  11  12
ATOM     12  O   UNL     1       7.724   5.784  15.247  0.00  0.00    +0.000 OA
BRANCH  12  13
ATOM     13  C   UNL     1       7.170   4.996  14.277  0.00  0.00    +0.000 A 
ATOM     14  C   UNL     1       5.920   4.467  14.615  0.00  0.00    +0.000 A 
ATOM     15  C   UNL     1       5.201   3.686  13.708  0.00  0.00    +0.000 A 
ATOM     16  C   UNL     1       5.736   3.452  12.437  0.00  0.00    +0.000 A 
ATOM     17  C   UNL     1       6.989   3.974  12.088  0.00  0.00    +0.000 A 
ATOM     18  C   UNL     1       7.706   4.747  13.012  0.00  0.00    +0.000 A 
BRANCH  16  19
ATOM     19  N   UNL     1       4.969   2.668  11.460  0.00  0.00    +0.000 N 
ATOM     20  O   UNL     1       3.908   3.150  11.037  0.00  0.00    +0.000 OA
ATOM     21  O   UNL     1       5.428   1.570  11.114  0.00  0.00    +0.000 OA
ENDBRANCH  16  19
ENDBRANCH  12  13
ENDBRANCH  11  12
ENDBRANCH   8  11
ENDBRANCH   3   7
BRANCH   6  22
ATOM     22  N   UNL     1       1.646   7.978  19.056  0.00  0.00    +0.000 N 
ATOM     23  C   UNL     1       1.442   9.176  18.359  0.00  0.00    +0.000 C 
ATOM     24  O   UNL     1       2.069   9.527  17.349  0.00  0.00    +0.000 OA
ATOM     25  H   UNL     1       0.962   7.747  19.769  0.00  0.00    +0.000 HD
BRANCH  23  26
ATOM     26  C   UNL     1       0.388  10.025  18.879  0.00  0.00    +0.000 A 
ATOM     27  C   UNL     1      -0.806  10.436  18.312  0.00  0.00    +0.000 A 
ATOM     28  C   UNL     1      -1.464  11.238  19.279  0.00  0.00    +0.000 A 
ATOM     29  C   UNL     1      -0.623  11.274  20.368  0.00  0.00    +0.000 A 
ATOM     30  O   UNL     1       0.504  10.547  20.142  0.00  0.00    +0.000 OA
ENDBRANCH  23  26
ENDBRANCH   6  22
BRANCH   1  32
ATOM     31  C   UNL     1       2.244   4.341  21.302  0.00  0.00    +0.000 C 
ATOM     32  O   UNL     1       1.892   5.483  20.496  0.00  0.00    +0.000 OA
ENDBRANCH   1  32
TORSDOF 8
ENDMDL
MODEL 9
REMARK VINA RESULT:      -7.1      2.703      3.932
REMARK  Name = 
REMARK  9 active torsions:
REMARK  status: ('A' for Active; 'I' for Inactive)
REMARK    1  A    between atoms: C_1  and  O_2
REMARK    2  A    between atoms: O_2  and  C_3
REMARK    3  A    between atoms: C_5  and  N_6
REMARK    4  A    between atoms: C_7  and  C_9
REMARK    5  A    between atoms: C_9  and  O_10
REMARK    6  A    between atoms: O_10  and  C_11
REMARK    7  A    between atoms: C_14  and  N_15
REMARK    8  A    between atoms: C_22  and  N_23
REMARK    9  A    between atoms: C_24  and  C_26
REMARK                            x       y       z     vdW  Elec       q    Type
REMARK                         _______ _______ _______ _____ _____    ______ ____
ROOT
ATOM      1  C   UNL     1       3.682   4.523  18.658  0.00  0.00    +0.000 A 
ATOM      2  C   UNL     1       2.945   5.067  19.730  0.00  0.00    +0.000 A 
ATOM      3  C   UNL     1       2.642   6.425  19.773  0.00  0.00    +0.000 A 
ATOM      4  C   UNL     1       3.092   7.272  18.781  0.00  0.00    +0.000 A 
ATOM      5  C   UNL     1       3.791   6.738  17.700  0.00  0.00    +0.000 A 
ATOM      6  C   UNL     1       4.093   5.373  17.598  0.00  0.00    +0.000 A 
ENDROOT
BRANCH   3   7
ATOM      7  N   UNL     1       1.819   6.931  20.780  0.00  0.00    +0.000 N 
ATOM      8  C   UNL     1       1.111   8.111  20.690  0.00  0.00    +0.000 C 
ATOM      9  O   UNL     1       0.343   8.421  21.604  0.00  0.00    +0.000 OA
ATOM     10  H   UNL     1       1.572   6.339  21.564  0.00  0.00    +0.000 HD
BRANCH   8  11
ATOM     11  C   UNL     1       1.312   8.996  19.458  0.00  0.00    +0.000 C 
BRANCH  11  12
ATOM     12  O   UNL     1       0.793  10.278  19.785  0.00  0.00    +0.000 OA
BRANCH  12  13
ATOM     13  C   UNL     1      -0.368  10.659  19.174  0.00  0.00    +0.000 A 
ATOM     14  C   UNL     1      -0.642   9.972  17.987  0.00  0.00    +0.000 A 
ATOM     15  C   UNL     1      -1.819  10.210  17.273  0.00  0.00    +0.000 A 
ATOM     16  C   UNL     1      -2.742  11.135  17.771  0.00  0.00    +0.000 A 
ATOM     17  C   UNL     1      -2.477  11.833  18.958  0.00  0.00    +0.000 A 
ATOM     18  C   UNL     1      -1.286  11.592  19.659  0.00  0.00    +0.000 A 
BRANCH  16  19
ATOM     19  N   UNL     1      -4.002  11.362  17.052  0.00  0.00    +0.000 N 
ATOM     20  O   UNL     1      -4.042  11.064  15.849  0.00  0.00    +0.000 OA
ATOM     21  O   UNL     1      -4.953  11.836  17.689  0.00  0.00    +0.000 OA
ENDBRANCH  16  19
ENDBRANCH  12  13
ENDBRANCH  11  12
ENDBRANCH   8  11
ENDBRANCH   3   7
BRANCH   6  22
ATOM     22  N   UNL     1       4.760   4.893  16.432  0.00  0.00    +0.000 N 
ATOM     23  C   UNL     1       5.822   5.528  15.775  0.00  0.00    +0.000 C 
ATOM     24  O   UNL     1       6.423   6.527  16.195  0.00  0.00    +0.000 OA
ATOM     25  H   UNL     1       4.465   3.999  16.055  0.00  0.00    +0.000 HD
BRANCH  23  26
ATOM     26  C   UNL     1       6.232   4.919  14.525  0.00  0.00    +0.000 A 
ATOM     27  C   UNL     1       5.664   3.893  13.789  0.00  0.00    +0.000 A 
ATOM     28  C   UNL     1       6.470   3.722  12.635  0.00  0.00    +0.000 A 
ATOM     29  C   UNL     1       7.484   4.646  12.748  0.00  0.00    +0.000 A 
ATOM     30  O   UNL     1       7.356   5.376  13.888  0.00  0.00    +0.000 OA
ENDBRANCH  23  26
ENDBRANCH   6  22
BRANCH   1  32
ATOM     31  C   UNL     1       4.217   2.590  19.929  0.00  0.00    +0.000 C 
ATOM     32  O   UNL     1       3.998   3.179  18.631  0.00  0.00    +0.000 OA
ENDBRANCH   1  32
TORSDOF 8
ENDMDL
