MODEL 1
REMARK VINA RESULT:      -6.1      0.000      0.000
REMARK  Name = 
REMARK  18 active torsions:
REMARK  status: ('A' for Active; 'I' for Inactive)
REMARK    1  A    between atoms: C_1  and  C_2
REMARK    2  A    between atoms: C_2  and  N_3
REMARK    3  A    between atoms: N_3  and  C_4
REMARK    4  A    between atoms: C_4  and  C_5
REMARK    5  A    between atoms: C_5  and  C_6
REMARK    6  A    between atoms: C_6  and  C_7
REMARK    7  A    between atoms: C_7  and  N_8
REMARK    8  A    between atoms: N_8  and  C_9
REMARK    9  A    between atoms: C_9  and  C_10
REMARK   10  A    between atoms: C_15  and  C_16
REMARK   11  A    between atoms: C_16  and  N_17
REMARK   12  A    between atoms: N_17  and  C_18
REMARK   13  A    between atoms: C_18  and  C_19
REMARK   14  A    between atoms: C_19  and  C_20
REMARK   15  A    between atoms: C_20  and  C_21
REMARK   16  A    between atoms: C_21  and  N_22
REMARK   17  A    between atoms: N_22  and  C_23
REMARK   18  A    between atoms: C_23  and  C_24
REMARK                            x       y       z     vdW  Elec       q    Type
REMARK                         _______ _______ _______ _____ _____    ______ ____
ROOT
ATOM      1  C   UNL     1       5.779   5.198  18.313  0.00  0.00    +0.000 A 
ATOM      2  C   UNL     1       6.717   5.060  19.360  0.00  0.00    +0.000 A 
ATOM      3  C   UNL     1       7.833   5.888  19.451  0.00  0.00    +0.000 A 
ATOM      4  C   UNL     1       8.034   6.879  18.501  0.00  0.00    +0.000 A 
ATOM      5  C   UNL     1       7.112   7.045  17.467  0.00  0.00    +0.000 A 
ATOM      6  C   UNL     1       5.975   6.218  17.351  0.00  0.00    +0.000 A 
ENDROOT
BRANCH   1   7
ATOM      7  C   UNL     1       4.635   4.204  18.278  0.00  0.00    +0.000 C 
BRANCH   7   8
ATOM      8  N   UNL     1       4.783   3.074  19.199  0.00  0.00    +0.000 NA
ATOM      9  H   UNL     1       5.758   2.780  19.193  0.00  0.00    +0.000 HD
BRANCH   8  10
ATOM     10  C   UNL     1       3.941   1.937  18.816  0.00  0.00    +0.000 C 
BRANCH  10  11
ATOM     11  C   UNL     1       2.732   2.434  18.022  0.00  0.00    +0.000 C 
BRANCH  11  12
ATOM     12  C   UNL     1       1.428   2.022  18.710  0.00  0.00    +0.000 C 
BRANCH  12  13
ATOM     13  C   UNL     1       0.855   3.168  19.543  0.00  0.00    +0.000 C 
BRANCH  13  14
ATOM     14  N   UNL     1       1.003   2.857  20.965  0.00  0.00    +0.000 NA
ATOM     15  H   UNL     1       0.114   3.015  21.444  0.00  0.00    +0.000 HD
BRANCH  14  17
ATOM     16  C   UNL     1       2.117   5.027  20.874  0.00  0.00    +0.000 C 
ATOM     17  C   UNL     1       2.042   3.682  21.578  0.00  0.00    +0.000 C 
ENDBRANCH  14  17
ENDBRANCH  13  14
ENDBRANCH  12  13
ENDBRANCH  11  12
ENDBRANCH  10  11
ENDBRANCH   8  10
ENDBRANCH   7   8
ENDBRANCH   1   7
BRANCH   6  18
ATOM     18  C   UNL     1       5.068   6.449  16.156  0.00  0.00    +0.000 C 
BRANCH  18  19
ATOM     19  N   UNL     1       5.134   5.452  15.088  0.00  0.00    +0.000 NA
ATOM     20  H   UNL     1       4.576   5.773  14.303  0.00  0.00    +0.000 HD
BRANCH  19  21
ATOM     21  C   UNL     1       6.488   5.111  14.663  0.00  0.00    +0.000 C 
BRANCH  21  22
ATOM     22  C   UNL     1       6.443   3.738  13.985  0.00  0.00    +0.000 C 
BRANCH  22  23
ATOM     23  C   UNL     1       5.264   3.599  13.018  0.00  0.00    +0.000 C 
BRANCH  23  24
ATOM     24  C   UNL     1       5.764   3.186  11.630  0.00  0.00    +0.000 C 
BRANCH  24  25
ATOM     25  N   UNL     1       6.551   1.956  11.706  0.00  0.00    +0.000 NA
ATOM     26  H   UNL     1       6.580   1.630  12.672  0.00  0.00    +0.000 HD
BRANCH  25  27
ATOM     27  C   UNL     1       5.969   0.917  10.856  0.00  0.00    +0.000 C 
ATOM     28  C   UNL     1       6.189  -0.454  11.476  0.00  0.00    +0.000 C 
ENDBRANCH  25  27
ENDBRANCH  24  25
ENDBRANCH  23  24
ENDBRANCH  22  23
ENDBRANCH  21  22
ENDBRANCH  19  21
ENDBRANCH  18  19
ENDBRANCH   6  18
TORSDOF 16
ENDMDL
MODEL 2
REMARK VINA RESULT:      -5.9      3.278      8.422
REMARK  Name = 
REMARK  18 active torsions:
REMARK  status: ('A' for Active; 'I' for Inactive)
REMARK    1  A    between atoms: C_1  and  C_2
REMARK    2  A    between atoms: C_2  and  N_3
REMARK    3  A    between atoms: N_3  and  C_4
REMARK    4  A    between atoms: C_4  and  C_5
REMARK    5  A    between atoms: C_5  and  C_6
REMARK    6  A    between atoms: C_6  and  C_7
REMARK    7  A    between atoms: C_7  and  N_8
REMARK    8  A    between atoms: N_8  and  C_9
REMARK    9  A    between atoms: C_9  and  C_10
REMARK   10  A    between atoms: C_15  and  C_16
REMARK   11  A    between atoms: C_16  and  N_17
REMARK   12  A    between atoms: N_17  and  C_18
REMARK   13  A    between atoms: C_18  and  C_19
REMARK   14  A    between atoms: C_19  and  C_20
REMARK   15  A    between atoms: C_20  and  C_21
REMARK   16  A    between atoms: C_21  and  N_22
REMARK   17  A    between atoms: N_22  and  C_23
REMARK   18  A    between atoms: C_23  and  C_24
REMARK                            x       y       z     vdW  Elec       q    Type
REMARK                         _______ _______ _______ _____ _____    ______ ____
ROOT
ATOM      1  C   UNL     1       3.251   3.552  18.660  0.00  0.00    +0.000 A 
ATOM      2  C   UNL     1       2.673   2.342  18.218  0.00  0.00    +0.000 A 
ATOM      3  C   UNL     1       1.366   1.995  18.552  0.00  0.00    +0.000 A 
ATOM      4  C   UNL     1       0.603   2.855  19.329  0.00  0.00    +0.000 A 
ATOM      5  C   UNL     1       1.147   4.064  19.763  0.00  0.00    +0.000 A 
ATOM      6  C   UNL     1       2.469   4.437  19.441  0.00  0.00    +0.000 A 
ENDROOT
BRANCH   1   7
ATOM      7  C   UNL     1       4.699   3.801  18.288  0.00  0.00    +0.000 C 
BRANCH   7   8
ATOM      8  N   UNL     1       5.070   3.338  16.948  0.00  0.00    +0.000 NA
ATOM      9  H   UNL     1       5.951   2.831  17.015  0.00  0.00    +0.000 HD
BRANCH   8  10
ATOM     10  C   UNL     1       5.231   4.448  16.005  0.00  0.00    +0.000 C 
BRANCH  10  11
ATOM     11  C   UNL     1       6.718   4.701  15.754  0.00  0.00    +0.000 C 
BRANCH  11  12
ATOM     12  C   UNL     1       7.047   4.551  14.266  0.00  0.00    +0.000 C 
BRANCH  12  13
ATOM     13  C   UNL     1       5.927   3.824  13.522  0.00  0.00    +0.000 C 
BRANCH  13  14
ATOM     14  N   UNL     1       6.474   3.187  12.324  0.00  0.00    +0.000 NA
ATOM     15  H   UNL     1       6.822   3.903  11.683  0.00  0.00    +0.000 HD
BRANCH  14  17
ATOM     16  C   UNL     1       4.238   3.232  11.345  0.00  0.00    +0.000 C 
ATOM     17  C   UNL     1       5.460   2.379  11.649  0.00  0.00    +0.000 C 
ENDBRANCH  14  17
ENDBRANCH  13  14
ENDBRANCH  12  13
ENDBRANCH  11  12
ENDBRANCH  10  11
ENDBRANCH   8  10
ENDBRANCH   7   8
ENDBRANCH   1   7
BRANCH   6  18
ATOM     18  C   UNL     1       2.979   5.748  20.012  0.00  0.00    +0.000 C 
BRANCH  18  19
ATOM     19  N   UNL     1       2.012   6.548  20.764  0.00  0.00    +0.000 NA
ATOM     20  H   UNL     1       2.356   6.675  21.710  0.00  0.00    +0.000 HD
BRANCH  19  21
ATOM     21  C   UNL     1       1.681   7.831  20.151  0.00  0.00    +0.000 C 
BRANCH  21  22
ATOM     22  C   UNL     1       2.389   7.909  18.795  0.00  0.00    +0.000 C 
BRANCH  22  23
ATOM     23  C   UNL     1       1.633   8.779  17.787  0.00  0.00    +0.000 C 
BRANCH  23  24
ATOM     24  C   UNL     1       2.000  10.253  17.980  0.00  0.00    +0.000 C 
BRANCH  24  25
ATOM     25  N   UNL     1       0.828  11.032  18.380  0.00  0.00    +0.000 NA
ATOM     26  H   UNL     1      -0.011  10.463  18.274  0.00  0.00    +0.000 HD
BRANCH  25  27
ATOM     27  C   UNL     1       0.950  11.471  19.771  0.00  0.00    +0.000 C 
ATOM     28  C   UNL     1      -0.375  11.294  20.496  0.00  0.00    +0.000 C 
ENDBRANCH  25  27
ENDBRANCH  24  25
ENDBRANCH  23  24
ENDBRANCH  22  23
ENDBRANCH  21  22
ENDBRANCH  19  21
ENDBRANCH  18  19
ENDBRANCH   6  18
TORSDOF 16
ENDMDL
MODEL 3
REMARK VINA RESULT:      -5.8      3.890      6.518
REMARK  Name = 
REMARK  18 active torsions:
REMARK  status: ('A' for Active; 'I' for Inactive)
REMARK    1  A    between atoms: C_1  and  C_2
REMARK    2  A    between atoms: C_2  and  N_3
REMARK    3  A    between atoms: N_3  and  C_4
REMARK    4  A    between atoms: C_4  and  C_5
REMARK    5  A    between atoms: C_5  and  C_6
REMARK    6  A    between atoms: C_6  and  C_7
REMARK    7  A    between atoms: C_7  and  N_8
REMARK    8  A    between atoms: N_8  and  C_9
REMARK    9  A    between atoms: C_9  and  C_10
REMARK   10  A    between atoms: C_15  and  C_16
REMARK   11  A    between atoms: C_16  and  N_17
REMARK   12  A    between atoms: N_17  and  C_18
REMARK   13  A    between atoms: C_18  and  C_19
REMARK   14  A    between atoms: C_19  and  C_20
REMARK   15  A    between atoms: C_20  and  C_21
REMARK   16  A    between atoms: C_21  and  N_22
REMARK   17  A    between atoms: N_22  and  C_23
REMARK   18  A    between atoms: C_23  and  C_24
REMARK                            x       y       z     vdW  Elec       q    Type
REMARK                         _______ _______ _______ _____ _____    ______ ____
ROOT
ATOM      1  C   UNL     1       2.614   4.910  19.203  0.00  0.00    +0.000 A 
ATOM      2  C   UNL     1       1.837   4.955  20.381  0.00  0.00    +0.000 A 
ATOM      3  C   UNL     1       0.994   3.904  20.738  0.00  0.00    +0.000 A 
ATOM      4  C   UNL     1       0.915   2.781  19.927  0.00  0.00    +0.000 A 
ATOM      5  C   UNL     1       1.685   2.708  18.767  0.00  0.00    +0.000 A 
ATOM      6  C   UNL     1       2.545   3.758  18.383  0.00  0.00    +0.000 A 
ENDROOT
BRANCH   1   7
ATOM      7  C   UNL     1       3.450   6.133  18.882  0.00  0.00    +0.000 C 
BRANCH   7   8
ATOM      8  N   UNL     1       2.774   7.129  18.047  0.00  0.00    +0.000 NA
ATOM      9  H   UNL     1       3.462   7.544  17.420  0.00  0.00    +0.000 HD
BRANCH   8  10
ATOM     10  C   UNL     1       2.156   8.191  18.846  0.00  0.00    +0.000 C 
BRANCH  10  11
ATOM     11  C   UNL     1       1.560   9.253  17.921  0.00  0.00    +0.000 C 
BRANCH  11  12
ATOM     12  C   UNL     1       0.951  10.397  18.735  0.00  0.00    +0.000 C 
BRANCH  12  13
ATOM     13  C   UNL     1      -0.365   9.974  19.387  0.00  0.00    +0.000 C 
BRANCH  13  14
ATOM     14  N   UNL     1      -1.344  11.054  19.251  0.00  0.00    +0.000 NA
ATOM     15  H   UNL     1      -2.182  10.825  19.788  0.00  0.00    +0.000 HD
BRANCH  14  17
ATOM     16  C   UNL     1      -2.492  10.071  17.334  0.00  0.00    +0.000 C 
ATOM     17  C   UNL     1      -1.703  11.264  17.850  0.00  0.00    +0.000 C 
ENDBRANCH  14  17
ENDBRANCH  13  14
ENDBRANCH  12  13
ENDBRANCH  11  12
ENDBRANCH  10  11
ENDBRANCH   8  10
ENDBRANCH   7   8
ENDBRANCH   1   7
BRANCH   6  18
ATOM     18  C   UNL     1       3.295   3.598  17.073  0.00  0.00    +0.000 C 
BRANCH  18  19
ATOM     19  N   UNL     1       4.671   3.111  17.168  0.00  0.00    +0.000 NA
ATOM     20  H   UNL     1       4.667   2.099  17.093  0.00  0.00    +0.000 HD
BRANCH  19  21
ATOM     21  C   UNL     1       5.591   3.705  16.202  0.00  0.00    +0.000 C 
BRANCH  21  22
ATOM     22  C   UNL     1       4.910   4.931  15.586  0.00  0.00    +0.000 C 
BRANCH  22  23
ATOM     23  C   UNL     1       5.627   6.237  15.937  0.00  0.00    +0.000 C 
BRANCH  23  24
ATOM     24  C   UNL     1       7.012   5.941  16.521  0.00  0.00    +0.000 C 
BRANCH  24  25
ATOM     25  N   UNL     1       7.736   7.183  16.793  0.00  0.00    +0.000 NA
ATOM     26  H   UNL     1       7.210   7.973  16.422  0.00  0.00    +0.000 HD
BRANCH  25  27
ATOM     27  C   UNL     1       7.935   7.360  18.232  0.00  0.00    +0.000 C 
ATOM     28  C   UNL     1       7.818   6.023  18.947  0.00  0.00    +0.000 C 
ENDBRANCH  25  27
ENDBRANCH  24  25
ENDBRANCH  23  24
ENDBRANCH  22  23
ENDBRANCH  21  22
ENDBRANCH  19  21
ENDBRANCH  18  19
ENDBRANCH   6  18
TORSDOF 16
ENDMDL
MODEL 4
REMARK VINA RESULT:      -5.8      3.295      5.916
REMARK  Name = 
REMARK  18 active torsions:
REMARK  status: ('A' for Active; 'I' for Inactive)
REMARK    1  A    between atoms: C_1  and  C_2
REMARK    2  A    between atoms: C_2  and  N_3
REMARK    3  A    between atoms: N_3  and  C_4
REMARK    4  A    between atoms: C_4  and  C_5
REMARK    5  A    between atoms: C_5  and  C_6
REMARK    6  A    between atoms: C_6  and  C_7
REMARK    7  A    between atoms: C_7  and  N_8
REMARK    8  A    between atoms: N_8  and  C_9
REMARK    9  A    between atoms: C_9  and  C_10
REMARK   10  A    between atoms: C_15  and  C_16
REMARK   11  A    between atoms: C_16  and  N_17
REMARK   12  A    between atoms: N_17  and  C_18
REMARK   13  A    between atoms: C_18  and  C_19
REMARK   14  A    between atoms: C_19  and  C_20
REMARK   15  A    between atoms: C_20  and  C_21
REMARK   16  A    between atoms: C_21  and  N_22
REMARK   17  A    between atoms: N_22  and  C_23
REMARK   18  A    between atoms: C_23  and  C_24
REMARK                            x       y       z     vdW  Elec       q    Type
REMARK                         _______ _______ _______ _____ _____    ______ ____
ROOT
ATOM      1  C   UNL     1       4.225   5.305  18.741  0.00  0.00    +0.000 A 
ATOM      2  C   UNL     1       3.120   5.809  19.460  0.00  0.00    +0.000 A 
ATOM      3  C   UNL     1       2.508   7.010  19.106  0.00  0.00    +0.000 A 
ATOM      4  C   UNL     1       2.983   7.730  18.019  0.00  0.00    +0.000 A 
ATOM      5  C   UNL     1       4.063   7.242  17.284  0.00  0.00    +0.000 A 
ATOM      6  C   UNL     1       4.701   6.031  17.623  0.00  0.00    +0.000 A 
ENDROOT
BRANCH   1   7
ATOM      7  C   UNL     1       4.850   4.021  19.249  0.00  0.00    +0.000 C 
BRANCH   7   8
ATOM      8  N   UNL     1       4.902   2.938  18.262  0.00  0.00    +0.000 NA
ATOM      9  H   UNL     1       5.048   3.349  17.341  0.00  0.00    +0.000 HD
BRANCH   8  10
ATOM     10  C   UNL     1       3.666   2.151  18.242  0.00  0.00    +0.000 C 
BRANCH  10  11
ATOM     11  C   UNL     1       2.657   2.799  17.292  0.00  0.00    +0.000 C 
BRANCH  11  12
ATOM     12  C   UNL     1       1.343   3.094  18.019  0.00  0.00    +0.000 C 
BRANCH  12  13
ATOM     13  C   UNL     1       1.264   2.342  19.347  0.00  0.00    +0.000 C 
BRANCH  13  14
ATOM     14  N   UNL     1       0.648   3.203  20.358  0.00  0.00    +0.000 NA
ATOM     15  H   UNL     1       0.817   4.182  20.122  0.00  0.00    +0.000 HD
BRANCH  14  17
ATOM     16  C   UNL     1       2.661   2.565  21.583  0.00  0.00    +0.000 C 
ATOM     17  C   UNL     1       1.186   2.921  21.687  0.00  0.00    +0.000 C 
ENDBRANCH  14  17
ENDBRANCH  13  14
ENDBRANCH  12  13
ENDBRANCH  11  12
ENDBRANCH  10  11
ENDBRANCH   8  10
ENDBRANCH   7   8
ENDBRANCH   1   7
BRANCH   6  18
ATOM     18  C   UNL     1       5.902   5.622  16.788  0.00  0.00    +0.000 C 
BRANCH  18  19
ATOM     19  N   UNL     1       7.187   5.564  17.485  0.00  0.00    +0.000 NA
ATOM     20  H   UNL     1       7.910   5.305  16.821  0.00  0.00    +0.000 HD
BRANCH  19  21
ATOM     21  C   UNL     1       7.545   6.787  18.197  0.00  0.00    +0.000 C 
BRANCH  21  22
ATOM     22  C   UNL     1       7.620   7.928  17.178  0.00  0.00    +0.000 C 
BRANCH  22  23
ATOM     23  C   UNL     1       7.903   9.282  17.833  0.00  0.00    +0.000 C 
BRANCH  23  24
ATOM     24  C   UNL     1       8.926   9.121  18.962  0.00  0.00    +0.000 C 
BRANCH  24  25
ATOM     25  N   UNL     1       9.442  10.423  19.384  0.00  0.00    +0.000 NA
ATOM     26  H   UNL     1      10.388  10.313  19.749  0.00  0.00    +0.000 HD
BRANCH  25  27
ATOM     27  C   UNL     1       9.456  11.361  18.262  0.00  0.00    +0.000 C 
ATOM     28  C   UNL     1      10.886  11.629  17.819  0.00  0.00    +0.000 C 
ENDBRANCH  25  27
ENDBRANCH  24  25
ENDBRANCH  23  24
ENDBRANCH  22  23
ENDBRANCH  21  22
ENDBRANCH  19  21
ENDBRANCH  18  19
ENDBRANCH   6  18
TORSDOF 16
ENDMDL
MODEL 5
REMARK VINA RESULT:      -5.8      3.237      5.210
REMARK  Name = 
REMARK  18 active torsions:
REMARK  status: ('A' for Active; 'I' for Inactive)
REMARK    1  A    between atoms: C_1  and  C_2
REMARK    2  A    between atoms: C_2  and  N_3
REMARK    3  A    between atoms: N_3  and  C_4
REMARK    4  A    between atoms: C_4  and  C_5
REMARK    5  A    between atoms: C_5  and  C_6
REMARK    6  A    between atoms: C_6  and  C_7
REMARK    7  A    between atoms: C_7  and  N_8
REMARK    8  A    between atoms: N_8  and  C_9
REMARK    9  A    between atoms: C_9  and  C_10
REMARK   10  A    between atoms: C_15  and  C_16
REMARK   11  A    between atoms: C_16  and  N_17
REMARK   12  A    between atoms: N_17  and  C_18
REMARK   13  A    between atoms: C_18  and  C_19
REMARK   14  A    between atoms: C_19  and  C_20
REMARK   15  A    between atoms: C_20  and  C_21
REMARK   16  A    between atoms: C_21  and  N_22
REMARK   17  A    between atoms: N_22  and  C_23
REMARK   18  A    between atoms: C_23  and  C_24
REMARK                            x       y       z     vdW  Elec       q    Type
REMARK                         _______ _______ _______ _____ _____    ______ ____
ROOT
ATOM      1  C   UNL     1       2.712   4.809  19.557  0.00  0.00    +0.000 A 
ATOM      2  C   UNL     1       1.381   4.338  19.526  0.00  0.00    +0.000 A 
ATOM      3  C   UNL     1       1.089   2.997  19.287  0.00  0.00    +0.000 A 
ATOM      4  C   UNL     1       2.123   2.094  19.081  0.00  0.00    +0.000 A 
ATOM      5  C   UNL     1       3.446   2.534  19.124  0.00  0.00    +0.000 A 
ATOM      6  C   UNL     1       3.767   3.886  19.362  0.00  0.00    +0.000 A 
ENDROOT
BRANCH   1   7
ATOM      7  C   UNL     1       2.911   6.297  19.767  0.00  0.00    +0.000 C 
BRANCH   7   8
ATOM      8  N   UNL     1       2.029   7.147  18.962  0.00  0.00    +0.000 NA
ATOM      9  H   UNL     1       1.316   6.557  18.535  0.00  0.00    +0.000 HD
BRANCH   8  10
ATOM     10  C   UNL     1       2.757   7.853  17.905  0.00  0.00    +0.000 C 
BRANCH  10  11
ATOM     11  C   UNL     1       2.221   9.279  17.773  0.00  0.00    +0.000 C 
BRANCH  11  12
ATOM     12  C   UNL     1       0.829   9.393  18.401  0.00  0.00    +0.000 C 
BRANCH  12  13
ATOM     13  C   UNL     1       0.814  10.422  19.531  0.00  0.00    +0.000 C 
BRANCH  13  14
ATOM     14  N   UNL     1       0.899   9.731  20.818  0.00  0.00    +0.000 NA
ATOM     15  H   UNL     1       0.552   8.775  20.717  0.00  0.00    +0.000 HD
BRANCH  14  17
ATOM     16  C   UNL     1      -0.273   9.456  22.943  0.00  0.00    +0.000 C 
ATOM     17  C   UNL     1       0.120  10.427  21.841  0.00  0.00    +0.000 C 
ENDBRANCH  14  17
ENDBRANCH  13  14
ENDBRANCH  12  13
ENDBRANCH  11  12
ENDBRANCH  10  11
ENDBRANCH   8  10
ENDBRANCH   7   8
ENDBRANCH   1   7
BRANCH   6  18
ATOM     18  C   UNL     1       5.237   4.266  19.332  0.00  0.00    +0.000 C 
BRANCH  18  19
ATOM     19  N   UNL     1       6.007   3.790  18.183  0.00  0.00    +0.000 NA
ATOM     20  H   UNL     1       5.487   3.048  17.724  0.00  0.00    +0.000 HD
BRANCH  19  21
ATOM     21  C   UNL     1       6.383   4.831  17.232  0.00  0.00    +0.000 C 
BRANCH  21  22
ATOM     22  C   UNL     1       5.151   5.174  16.388  0.00  0.00    +0.000 C 
BRANCH  22  23
ATOM     23  C   UNL     1       5.518   5.615  14.969  0.00  0.00    +0.000 C 
BRANCH  23  24
ATOM     24  C   UNL     1       6.699   4.792  14.447  0.00  0.00    +0.000 C 
BRANCH  24  25
ATOM     25  N   UNL     1       6.250   3.485  13.968  0.00  0.00    +0.000 NA
ATOM     26  H   UNL     1       5.292   3.320  14.276  0.00  0.00    +0.000 HD
BRANCH  25  27
ATOM     27  C   UNL     1       6.312   3.421  12.507  0.00  0.00    +0.000 C 
ATOM     28  C   UNL     1       4.909   3.379  11.923  0.00  0.00    +0.000 C 
ENDBRANCH  25  27
ENDBRANCH  24  25
ENDBRANCH  23  24
ENDBRANCH  22  23
ENDBRANCH  21  22
ENDBRANCH  19  21
ENDBRANCH  18  19
ENDBRANCH   6  18
TORSDOF 16
ENDMDL
MODEL 6
REMARK VINA RESULT:      -5.8      3.878      6.196
REMARK  Name = 
REMARK  18 active torsions:
REMARK  status: ('A' for Active; 'I' for Inactive)
REMARK    1  A    between atoms: C_1  and  C_2
REMARK    2  A    between atoms: C_2  and  N_3
REMARK    3  A    between atoms: N_3  and  C_4
REMARK    4  A    between atoms: C_4  and  C_5
REMARK    5  A    between atoms: C_5  and  C_6
REMARK    6  A    between atoms: C_6  and  C_7
REMARK    7  A    between atoms: C_7  and  N_8
REMARK    8  A    between atoms: N_8  and  C_9
REMARK    9  A    between atoms: C_9  and  C_10
REMARK   10  A    between atoms: C_15  and  C_16
REMARK   11  A    between atoms: C_16  and  N_17
REMARK   12  A    between atoms: N_17  and  C_18
REMARK   13  A    between atoms: C_18  and  C_19
REMARK   14  A    between atoms: C_19  and  C_20
REMARK   15  A    between atoms: C_20  and  C_21
REMARK   16  A    between atoms: C_21  and  N_22
REMARK   17  A    between atoms: N_22  and  C_23
REMARK   18  A    between atoms: C_23  and  C_24
REMARK                            x       y       z     vdW  Elec       q    Type
REMARK                         _______ _______ _______ _____ _____    ______ ____
ROOT
ATOM      1  C   UNL     1       2.843   4.963  19.270  0.00  0.00    +0.000 A 
ATOM      2  C   UNL     1       1.795   4.941  20.215  0.00  0.00    +0.000 A 
ATOM      3  C   UNL     1       1.645   3.886  21.111  0.00  0.00    +0.000 A 
ATOM      4  C   UNL     1       2.546   2.831  21.088  0.00  0.00    +0.000 A 
ATOM      5  C   UNL     1       3.599   2.839  20.174  0.00  0.00    +0.000 A 
ATOM      6  C   UNL     1       3.771   3.895  19.255  0.00  0.00    +0.000 A 
ENDROOT
BRANCH   1   7
ATOM      7  C   UNL     1       2.876   6.131  18.304  0.00  0.00    +0.000 C 
BRANCH   7   8
ATOM      8  N   UNL     1       2.468   7.413  18.886  0.00  0.00    +0.000 NA
ATOM      9  H   UNL     1       1.532   7.306  19.276  0.00  0.00    +0.000 HD
BRANCH   8  10
ATOM     10  C   UNL     1       2.449   8.489  17.892  0.00  0.00    +0.000 C 
BRANCH  10  11
ATOM     11  C   UNL     1       1.185   9.332  18.067  0.00  0.00    +0.000 C 
BRANCH  11  12
ATOM     12  C   UNL     1       0.995   9.721  19.536  0.00  0.00    +0.000 C 
BRANCH  12  13
ATOM     13  C   UNL     1      -0.443  10.158  19.811  0.00  0.00    +0.000 C 
BRANCH  13  14
ATOM     14  N   UNL     1      -0.440  11.495  20.406  0.00  0.00    +0.000 NA
ATOM     15  H   UNL     1      -1.306  11.640  20.927  0.00  0.00    +0.000 HD
BRANCH  14  17
ATOM     16  C   UNL     1      -1.209  12.198  18.198  0.00  0.00    +0.000 C 
ATOM     17  C   UNL     1      -0.310  12.527  19.379  0.00  0.00    +0.000 C 
ENDBRANCH  14  17
ENDBRANCH  13  14
ENDBRANCH  12  13
ENDBRANCH  11  12
ENDBRANCH  10  11
ENDBRANCH   8  10
ENDBRANCH   7   8
ENDBRANCH   1   7
BRANCH   6  18
ATOM     18  C   UNL     1       4.919   3.775  18.267  0.00  0.00    +0.000 C 
BRANCH  18  19
ATOM     19  N   UNL     1       6.247   4.125  18.770  0.00  0.00    +0.000 NA
ATOM     20  H   UNL     1       6.928   3.973  18.033  0.00  0.00    +0.000 HD
BRANCH  19  21
ATOM     21  C   UNL     1       6.353   5.476  19.310  0.00  0.00    +0.000 C 
BRANCH  21  22
ATOM     22  C   UNL     1       7.625   6.117  18.746  0.00  0.00    +0.000 C 
BRANCH  22  23
ATOM     23  C   UNL     1       7.460   6.565  17.292  0.00  0.00    +0.000 C 
BRANCH  23  24
ATOM     24  C   UNL     1       6.009   6.978  17.026  0.00  0.00    +0.000 C 
BRANCH  24  25
ATOM     25  N   UNL     1       5.516   6.374  15.788  0.00  0.00    +0.000 NA
ATOM     26  H   UNL     1       5.411   7.095  15.075  0.00  0.00    +0.000 HD
BRANCH  25  27
ATOM     27  C   UNL     1       6.442   5.346  15.311  0.00  0.00    +0.000 C 
ATOM     28  C   UNL     1       5.722   4.377  14.386  0.00  0.00    +0.000 C 
ENDBRANCH  25  27
ENDBRANCH  24  25
ENDBRANCH  23  24
ENDBRANCH  22  23
ENDBRANCH  21  22
ENDBRANCH  19  21
ENDBRANCH  18  19
ENDBRANCH   6  18
TORSDOF 16
ENDMDL
MODEL 7
REMARK VINA RESULT:      -5.7      1.862      2.410
REMARK  Name = 
REMARK  18 active torsions:
REMARK  status: ('A' for Active; 'I' for Inactive)
REMARK    1  A    between atoms: C_1  and  C_2
REMARK    2  A    between atoms: C_2  and  N_3
REMARK    3  A    between atoms: N_3  and  C_4
REMARK    4  A    between atoms: C_4  and  C_5
REMARK    5  A    between atoms: C_5  and  C_6
REMARK    6  A    between atoms: C_6  and  C_7
REMARK    7  A    between atoms: C_7  and  N_8
REMARK    8  A    between atoms: N_8  and  C_9
REMARK    9  A    between atoms: C_9  and  C_10
REMARK   10  A    between atoms: C_15  and  C_16
REMARK   11  A    between atoms: C_16  and  N_17
REMARK   12  A    between atoms: N_17  and  C_18
REMARK   13  A    between atoms: C_18  and  C_19
REMARK   14  A    between atoms: C_19  and  C_20
REMARK   15  A    between atoms: C_20  and  C_21
REMARK   16  A    between atoms: C_21  and  N_22
REMARK   17  A    between atoms: N_22  and  C_23
REMARK   18  A    between atoms: C_23  and  C_24
REMARK                            x       y       z     vdW  Elec       q    Type
REMARK                         _______ _______ _______ _____ _____    ______ ____
ROOT
ATOM      1  C   UNL     1       5.512   5.168  17.773  0.00  0.00    +0.000 A 
ATOM      2  C   UNL     1       5.993   5.070  19.097  0.00  0.00    +0.000 A 
ATOM      3  C   UNL     1       7.165   5.711  19.495  0.00  0.00    +0.000 A 
ATOM      4  C   UNL     1       7.878   6.471  18.580  0.00  0.00    +0.000 A 
ATOM      5  C   UNL     1       7.413   6.596  17.270  0.00  0.00    +0.000 A 
ATOM      6  C   UNL     1       6.232   5.955  16.842  0.00  0.00    +0.000 A 
ENDROOT
BRANCH   1   7
ATOM      7  C   UNL     1       4.261   4.382  17.435  0.00  0.00    +0.000 C 
BRANCH   7   8
ATOM      8  N   UNL     1       4.421   2.927  17.506  0.00  0.00    +0.000 NA
ATOM      9  H   UNL     1       4.302   2.544  16.569  0.00  0.00    +0.000 HD
BRANCH   8  10
ATOM     10  C   UNL     1       3.439   2.308  18.400  0.00  0.00    +0.000 C 
BRANCH  10  11
ATOM     11  C   UNL     1       4.102   1.959  19.733  0.00  0.00    +0.000 C 
BRANCH  11  12
ATOM     12  C   UNL     1       3.498   2.788  20.869  0.00  0.00    +0.000 C 
BRANCH  12  13
ATOM     13  C   UNL     1       2.357   3.672  20.365  0.00  0.00    +0.000 C 
BRANCH  13  14
ATOM     14  N   UNL     1       2.694   5.077  20.592  0.00  0.00    +0.000 NA
ATOM     15  H   UNL     1       3.190   5.171  21.480  0.00  0.00    +0.000 HD
BRANCH  14  17
ATOM     16  C   UNL     1       1.873   7.374  20.484  0.00  0.00    +0.000 C 
ATOM     17  C   UNL     1       1.492   5.908  20.615  0.00  0.00    +0.000 C 
ENDBRANCH  14  17
ENDBRANCH  13  14
ENDBRANCH  12  13
ENDBRANCH  11  12
ENDBRANCH  10  11
ENDBRANCH   8  10
ENDBRANCH   7   8
ENDBRANCH   1   7
BRANCH   6  18
ATOM     18  C   UNL     1       5.847   6.113  15.382  0.00  0.00    +0.000 C 
BRANCH  18  19
ATOM     19  N   UNL     1       6.714   5.450  14.407  0.00  0.00    +0.000 NA
ATOM     20  H   UNL     1       7.683   5.643  14.645  0.00  0.00    +0.000 HD
BRANCH  19  21
ATOM     21  C   UNL     1       6.485   4.015  14.272  0.00  0.00    +0.000 C 
BRANCH  21  22
ATOM     22  C   UNL     1       5.268   3.810  13.365  0.00  0.00    +0.000 C 
BRANCH  22  23
ATOM     23  C   UNL     1       5.633   3.143  12.036  0.00  0.00    +0.000 C 
BRANCH  23  24
ATOM     24  C   UNL     1       4.366   2.845  11.227  0.00  0.00    +0.000 C 
BRANCH  24  25
ATOM     25  N   UNL     1       3.854   4.062  10.599  0.00  0.00    +0.000 NA
ATOM     26  H   UNL     1       4.610   4.534  10.103  0.00  0.00    +0.000 HD
BRANCH  25  27
ATOM     27  C   UNL     1       2.777   3.744   9.661  0.00  0.00    +0.000 C 
ATOM     28  C   UNL     1       2.250   5.016   9.015  0.00  0.00    +0.000 C 
ENDBRANCH  25  27
ENDBRANCH  24  25
ENDBRANCH  23  24
ENDBRANCH  22  23
ENDBRANCH  21  22
ENDBRANCH  19  21
ENDBRANCH  18  19
ENDBRANCH   6  18
TORSDOF 16
ENDMDL
MODEL 8
REMARK VINA RESULT:      -5.7      3.675      6.845
REMARK  Name = 
REMARK  18 active torsions:
REMARK  status: ('A' for Active; 'I' for Inactive)
REMARK    1  A    between atoms: C_1  and  C_2
REMARK    2  A    between atoms: C_2  and  N_3
REMARK    3  A    between atoms: N_3  and  C_4
REMARK    4  A    between atoms: C_4  and  C_5
REMARK    5  A    between atoms: C_5  and  C_6
REMARK    6  A    between atoms: C_6  and  C_7
REMARK    7  A    between atoms: C_7  and  N_8
REMARK    8  A    between atoms: N_8  and  C_9
REMARK    9  A    between atoms: C_9  and  C_10
REMARK   10  A    between atoms: C_15  and  C_16
REMARK   11  A    between atoms: C_16  and  N_17
REMARK   12  A    between atoms: N_17  and  C_18
REMARK   13  A    between atoms: C_18  and  C_19
REMARK   14  A    between atoms: C_19  and  C_20
REMARK   15  A    between atoms: C_20  and  C_21
REMARK   16  A    between atoms: C_21  and  N_22
REMARK   17  A    between atoms: N_22  and  C_23
REMARK   18  A    between atoms: C_23  and  C_24
REMARK                            x       y       z     vdW  Elec       q    Type
REMARK                         _______ _______ _______ _____ _____    ______ ____
ROOT
ATOM      1  C   UNL     1       5.764   4.499  17.580  0.00  0.00    +0.000 A 
ATOM      2  C   UNL     1       5.085   3.743  16.599  0.00  0.00    +0.000 A 
ATOM      3  C   UNL     1       5.335   3.922  15.240  0.00  0.00    +0.000 A 
ATOM      4  C   UNL     1       6.275   4.856  14.831  0.00  0.00    +0.000 A 
ATOM      5  C   UNL     1       6.970   5.604  15.782  0.00  0.00    +0.000 A 
ATOM      6  C   UNL     1       6.734   5.443  17.164  0.00  0.00    +0.000 A 
ENDROOT
BRANCH   1   7
ATOM      7  C   UNL     1       5.371   4.265  19.025  0.00  0.00    +0.000 C 
BRANCH   7   8
ATOM      8  N   UNL     1       5.172   2.857  19.379  0.00  0.00    +0.000 NA
ATOM      9  H   UNL     1       5.160   2.308  18.521  0.00  0.00    +0.000 HD
BRANCH   8  10
ATOM     10  C   UNL     1       3.914   2.642  20.099  0.00  0.00    +0.000 C 
BRANCH  10  11
ATOM     11  C   UNL     1       2.835   2.170  19.124  0.00  0.00    +0.000 C 
BRANCH  11  12
ATOM     12  C   UNL     1       1.451   2.637  19.583  0.00  0.00    +0.000 C 
BRANCH  12  13
ATOM     13  C   UNL     1       1.295   4.149  19.425  0.00  0.00    +0.000 C 
BRANCH  13  14
ATOM     14  N   UNL     1       1.719   4.543  18.081  0.00  0.00    +0.000 NA
ATOM     15  H   UNL     1       2.382   3.856  17.716  0.00  0.00    +0.000 HD
BRANCH  14  17
ATOM     16  C   UNL     1       2.531   6.335  19.527  0.00  0.00    +0.000 C 
ATOM     17  C   UNL     1       2.343   5.864  18.093  0.00  0.00    +0.000 C 
ENDBRANCH  14  17
ENDBRANCH  13  14
ENDBRANCH  12  13
ENDBRANCH  11  12
ENDBRANCH  10  11
ENDBRANCH   8  10
ENDBRANCH   7   8
ENDBRANCH   1   7
BRANCH   6  18
ATOM     18  C   UNL     1       7.505   6.347  18.109  0.00  0.00    +0.000 C 
BRANCH  18  19
ATOM     19  N   UNL     1       7.573   7.761  17.743  0.00  0.00    +0.000 NA
ATOM     20  H   UNL     1       6.643   8.163  17.810  0.00  0.00    +0.000 HD
BRANCH  19  21
ATOM     21  C   UNL     1       8.536   8.540  18.515  0.00  0.00    +0.000 C 
BRANCH  21  22
ATOM     22  C   UNL     1       8.588   9.953  17.927  0.00  0.00    +0.000 C 
BRANCH  22  23
ATOM     23  C   UNL     1       9.491  10.891  18.733  0.00  0.00    +0.000 C 
BRANCH  23  24
ATOM     24  C   UNL     1      10.424  11.664  17.795  0.00  0.00    +0.000 C 
BRANCH  24  25
ATOM     25  N   UNL     1       9.838  12.952  17.426  0.00  0.00    +0.000 NA
ATOM     26  H   UNL     1       9.174  13.242  18.143  0.00  0.00    +0.000 HD
BRANCH  25  27
ATOM     27  C   UNL     1      10.879  13.970  17.282  0.00  0.00    +0.000 C 
ATOM     28  C   UNL     1      12.250  13.359  17.527  0.00  0.00    +0.000 C 
ENDBRANCH  25  27
ENDBRANCH  24  25
ENDBRANCH  23  24
ENDBRANCH  22  23
ENDBRANCH  21  22
ENDBRANCH  19  21
ENDBRANCH  18  19
ENDBRANCH   6  18
TORSDOF 16
ENDMDL
MODEL 9
REMARK VINA RESULT:      -5.6      3.883      7.965
REMARK  Name = 
REMARK  18 active torsions:
REMARK  status: ('A' for Active; 'I' for Inactive)
REMARK    1  A    between atoms: C_1  and  C_2
REMARK    2  A    between atoms: C_2  and  N_3
REMARK    3  A    between atoms: N_3  and  C_4
REMARK    4  A    between atoms: C_4  and  C_5
REMARK    5  A    between atoms: C_5  and  C_6
REMARK    6  A    between atoms: C_6  and  C_7
REMARK    7  A    between atoms: C_7  and  N_8
REMARK    8  A    between atoms: N_8  and  C_9
REMARK    9  A    between atoms: C_9  and  C_10
REMARK   10  A    between atoms: C_15  and  C_16
REMARK   11  A    between atoms: C_16  and  N_17
REMARK   12  A    between atoms: N_17  and  C_18
REMARK   13  A    between atoms: C_18  and  C_19
REMARK   14  A    between atoms: C_19  and  C_20
REMARK   15  A    between atoms: C_20  and  C_21
REMARK   16  A    between atoms: C_21  and  N_22
REMARK   17  A    between atoms: N_22  and  C_23
REMARK   18  A    between atoms: C_23  and  C_24
REMARK                            x       y       z     vdW  Elec       q    Type
REMARK                         _______ _______ _______ _____ _____    ______ ____
ROOT
ATOM      1  C   UNL     1       3.266   3.507  19.099  0.00  0.00    +0.000 A 
ATOM      2  C   UNL     1       2.654   2.236  19.054  0.00  0.00    +0.000 A 
ATOM      3  C   UNL     1       1.344   2.042  19.487  0.00  0.00    +0.000 A 
ATOM      4  C   UNL     1       0.613   3.119  19.967  0.00  0.00    +0.000 A 
ATOM      5  C   UNL     1       1.190   4.388  20.005  0.00  0.00    +0.000 A 
ATOM      6  C   UNL     1       2.516   4.609  19.575  0.00  0.00    +0.000 A 
ENDROOT
BRANCH   1   7
ATOM      7  C   UNL     1       4.714   3.591  18.659  0.00  0.00    +0.000 C 
BRANCH   7   8
ATOM      8  N   UNL     1       4.959   3.140  17.287  0.00  0.00    +0.000 NA
ATOM      9  H   UNL     1       5.963   3.170  17.112  0.00  0.00    +0.000 HD
BRANCH   8  10
ATOM     10  C   UNL     1       4.280   3.984  16.299  0.00  0.00    +0.000 C 
BRANCH  10  11
ATOM     11  C   UNL     1       5.316   4.668  15.406  0.00  0.00    +0.000 C 
BRANCH  11  12
ATOM     12  C   UNL     1       5.541   6.115  15.852  0.00  0.00    +0.000 C 
BRANCH  12  13
ATOM     13  C   UNL     1       6.835   6.253  16.653  0.00  0.00    +0.000 C 
BRANCH  13  14
ATOM     14  N   UNL     1       7.520   4.961  16.696  0.00  0.00    +0.000 NA
ATOM     15  H   UNL     1       6.887   4.227  16.374  0.00  0.00    +0.000 HD
BRANCH  14  17
ATOM     16  C   UNL     1       7.542   5.752  19.005  0.00  0.00    +0.000 C 
ATOM     17  C   UNL     1       7.978   4.653  18.049  0.00  0.00    +0.000 C 
ENDBRANCH  14  17
ENDBRANCH  13  14
ENDBRANCH  12  13
ENDBRANCH  11  12
ENDBRANCH  10  11
ENDBRANCH   8  10
ENDBRANCH   7   8
ENDBRANCH   1   7
BRANCH   6  18
ATOM     18  C   UNL     1       3.063   6.019  19.711  0.00  0.00    +0.000 C 
BRANCH  18  19
ATOM     19  N   UNL     1       2.143   7.024  20.244  0.00  0.00    +0.000 NA
ATOM     20  H   UNL     1       2.498   7.354  21.136  0.00  0.00    +0.000 HD
BRANCH  19  21
ATOM     21  C   UNL     1       1.878   8.140  19.341  0.00  0.00    +0.000 C 
BRANCH  21  22
ATOM     22  C   UNL     1       1.055   9.183  20.101  0.00  0.00    +0.000 C 
BRANCH  22  23
ATOM     23  C   UNL     1       0.740  10.416  19.250  0.00  0.00    +0.000 C 
BRANCH  23  24
ATOM     24  C   UNL     1      -0.756  10.468  18.925  0.00  0.00    +0.000 C 
BRANCH  24  25
ATOM     25  N   UNL     1      -1.009   9.991  17.566  0.00  0.00    +0.000 NA
ATOM     26  H   UNL     1      -1.102   8.976  17.573  0.00  0.00    +0.000 HD
BRANCH  25  27
ATOM     27  C   UNL     1      -2.229  10.591  17.026  0.00  0.00    +0.000 C 
ATOM     28  C   UNL     1      -2.610   9.921  15.715  0.00  0.00    +0.000 C 
ENDBRANCH  25  27
ENDBRANCH  24  25
ENDBRANCH  23  24
ENDBRANCH  22  23
ENDBRANCH  21  22
ENDBRANCH  19  21
ENDBRANCH  18  19
ENDBRANCH   6  18
TORSDOF 16
ENDMDL
