MODEL 1
REMARK VINA RESULT:      -8.2      0.000      0.000
REMARK  Name = 
REMARK  9 active torsions:
REMARK  status: ('A' for Active; 'I' for Inactive)
REMARK    1  A    between atoms: C_1  and  C_2
REMARK    2  A    between atoms: C_2  and  O_3
REMARK    3  A    between atoms: O_3  and  C_4
REMARK    4  A    between atoms: C_7  and  S_8
REMARK    5  A    between atoms: S_8  and  N_11
REMARK    6  A    between atoms: N_11  and  C_12
REMARK    7  A    between atoms: C_15  and  C_16
REMARK    8  A    between atoms: N_18  and  N_19
REMARK    9  A    between atoms: C_20  and  C_22
REMARK                            x       y       z     vdW  Elec       q    Type
REMARK                         _______ _______ _______ _____ _____    ______ ____
ROOT
ATOM      1  C   UNL     1       2.773   5.777  19.180  0.00  0.00    +0.000 A 
ATOM      2  C   UNL     1       2.103   6.011  20.379  0.00  0.00    +0.000 A 
ATOM      3  C   UNL     1       1.493   7.249  20.607  0.00  0.00    +0.000 A 
ATOM      4  C   UNL     1       1.521   8.253  19.626  0.00  0.00    +0.000 A 
ATOM      5  C   UNL     1       2.191   8.009  18.419  0.00  0.00    +0.000 A 
ATOM      6  C   UNL     1       2.812   6.769  18.197  0.00  0.00    +0.000 A 
ENDROOT
BRANCH   4   7
ATOM      7  C   UNL     1       0.860   9.558  19.933  0.00  0.00    +0.000 C 
ATOM      8  O   UNL     1       0.467  10.290  19.026  0.00  0.00    +0.000 OA
ATOM      9  N   UNL     1       0.736   9.899  21.264  0.00  0.00    +0.000 N 
ATOM     10  H   UNL     1       1.191   9.403  22.027  0.00  0.00    +0.000 HD
BRANCH   9  11
ATOM     11  N   UNL     1       0.147  11.131  21.593  0.00  0.00    +0.000 N 
ATOM     12  C   UNL     1      -0.763  11.157  22.630  0.00  0.00    +0.000 C 
ATOM     13  O   UNL     1      -1.057  10.153  23.276  0.00  0.00    +0.000 OA
ATOM     14  H   UNL     1       0.547  11.956  21.150  0.00  0.00    +0.000 HD
BRANCH  12  15
ATOM     15  C   UNL     1      -1.378  12.471  22.962  0.00  0.00    +0.000 A 
ATOM     16  C   UNL     1      -0.662  13.665  22.889  0.00  0.00    +0.000 A 
ATOM     17  C   UNL     1      -1.336  14.839  23.180  0.00  0.00    +0.000 A 
ATOM     18  N   UNL     1      -2.638  14.895  23.529  0.00  0.00    +0.000 NA
ATOM     19  C   UNL     1      -3.310  13.726  23.578  0.00  0.00    +0.000 A 
ATOM     20  C   UNL     1      -2.732  12.500  23.301  0.00  0.00    +0.000 A 
ENDBRANCH  12  15
ENDBRANCH   9  11
ENDBRANCH   4   7
BRANCH   1  21
ATOM     21  N   UNL     1       3.374   4.500  18.952  0.00  0.00    +0.000 N 
ATOM     22  H   UNL     1       2.989   3.758  19.542  0.00  0.00    +0.000 HD
BRANCH  21  23
ATOM     23  S   UNL     1       5.067   4.423  19.093  0.00  0.00    +0.000 S 
ATOM     24  O   UNL     1       5.348   3.126  19.673  0.00  0.00    +0.000 OA
ATOM     25  O   UNL     1       5.587   5.639  19.681  0.00  0.00    +0.000 OA
BRANCH  23  29
ATOM     26  C   UNL     1       6.335   4.440  14.696  0.00  0.00    +0.000 A 
ATOM     27  C   UNL     1       5.025   4.108  15.058  0.00  0.00    +0.000 A 
ATOM     28  C   UNL     1       4.640   4.086  16.399  0.00  0.00    +0.000 A 
ATOM     29  C   UNL     1       5.581   4.372  17.389  0.00  0.00    +0.000 A 
ATOM     30  C   UNL     1       6.896   4.699  17.039  0.00  0.00    +0.000 A 
ATOM     31  C   UNL     1       7.274   4.721  15.690  0.00  0.00    +0.000 A 
BRANCH  26  32
ATOM     32  O   UNL     1       6.571   4.444  13.350  0.00  0.00    +0.000 OA
BRANCH  32  34
ATOM     33  C   UNL     1       5.039   3.504  11.793  0.00  0.00    +0.000 C 
ATOM     34  C   UNL     1       6.271   3.241  12.642  0.00  0.00    +0.000 C 
ENDBRANCH  32  34
ENDBRANCH  26  32
ENDBRANCH  23  29
ENDBRANCH  21  23
ENDBRANCH   1  21
TORSDOF 8
ENDMDL
MODEL 2
REMARK VINA RESULT:      -8.2      4.808      8.755
REMARK  Name = 
REMARK  9 active torsions:
REMARK  status: ('A' for Active; 'I' for Inactive)
REMARK    1  A    between atoms: C_1  and  C_2
REMARK    2  A    between atoms: C_2  and  O_3
REMARK    3  A    between atoms: O_3  and  C_4
REMARK    4  A    between atoms: C_7  and  S_8
REMARK    5  A    between atoms: S_8  and  N_11
REMARK    6  A    between atoms: N_11  and  C_12
REMARK    7  A    between atoms: C_15  and  C_16
REMARK    8  A    between atoms: N_18  and  N_19
REMARK    9  A    between atoms: C_20  and  C_22
REMARK                            x       y       z     vdW  Elec       q    Type
REMARK                         _______ _______ _______ _____ _____    ______ ____
ROOT
ATOM      1  C   UNL     1       5.066   3.829  18.338  0.00  0.00    +0.000 A 
ATOM      2  C   UNL     1       5.627   4.677  19.290  0.00  0.00    +0.000 A 
ATOM      3  C   UNL     1       6.393   5.775  18.882  0.00  0.00    +0.000 A 
ATOM      4  C   UNL     1       6.580   6.051  17.519  0.00  0.00    +0.000 A 
ATOM      5  C   UNL     1       6.006   5.197  16.566  0.00  0.00    +0.000 A 
ATOM      6  C   UNL     1       5.247   4.091  16.977  0.00  0.00    +0.000 A 
ENDROOT
BRANCH   4   7
ATOM      7  C   UNL     1       7.417   7.231  17.146  0.00  0.00    +0.000 C 
ATOM      8  O   UNL     1       8.236   7.155  16.231  0.00  0.00    +0.000 OA
ATOM      9  N   UNL     1       7.238   8.383  17.883  0.00  0.00    +0.000 N 
ATOM     10  H   UNL     1       6.696   8.434  18.744  0.00  0.00    +0.000 HD
BRANCH   9  11
ATOM     11  N   UNL     1       8.027   9.506  17.584  0.00  0.00    +0.000 N 
ATOM     12  C   UNL     1       8.873   9.983  18.565  0.00  0.00    +0.000 C 
ATOM     13  O   UNL     1       8.968   9.452  19.671  0.00  0.00    +0.000 OA
ATOM     14  H   UNL     1       8.043   9.802  16.610  0.00  0.00    +0.000 HD
BRANCH  12  15
ATOM     15  C   UNL     1       9.698  11.175  18.230  0.00  0.00    +0.000 A 
ATOM     16  C   UNL     1      11.092  11.140  18.240  0.00  0.00    +0.000 A 
ATOM     17  C   UNL     1      11.768  12.291  17.876  0.00  0.00    +0.000 A 
ATOM     18  N   UNL     1      11.161  13.441  17.514  0.00  0.00    +0.000 NA
ATOM     19  C   UNL     1       9.811  13.443  17.499  0.00  0.00    +0.000 A 
ATOM     20  C   UNL     1       9.042  12.344  17.840  0.00  0.00    +0.000 A 
ENDBRANCH  12  15
ENDBRANCH   9  11
ENDBRANCH   4   7
BRANCH   1  21
ATOM     21  N   UNL     1       4.268   2.724  18.769  0.00  0.00    +0.000 N 
ATOM     22  H   UNL     1       4.558   1.830  18.365  0.00  0.00    +0.000 HD
BRANCH  21  23
ATOM     23  S   UNL     1       2.590   2.860  18.524  0.00  0.00    +0.000 S 
ATOM     24  O   UNL     1       1.983   2.008  19.526  0.00  0.00    +0.000 OA
ATOM     25  O   UNL     1       2.264   2.723  17.120  0.00  0.00    +0.000 OA
BRANCH  23  29
ATOM     26  C   UNL     1       1.949   7.212  19.784  0.00  0.00    +0.000 A 
ATOM     27  C   UNL     1       1.856   6.179  20.723  0.00  0.00    +0.000 A 
ATOM     28  C   UNL     1       2.034   4.849  20.338  0.00  0.00    +0.000 A 
ATOM     29  C   UNL     1       2.281   4.549  18.998  0.00  0.00    +0.000 A 
ATOM     30  C   UNL     1       2.370   5.574  18.050  0.00  0.00    +0.000 A 
ATOM     31  C   UNL     1       2.191   6.907  18.444  0.00  0.00    +0.000 A 
BRANCH  26  32
ATOM     32  O   UNL     1       1.773   8.466  20.299  0.00  0.00    +0.000 OA
BRANCH  32  34
ATOM     33  C   UNL     1       0.067   9.733  21.367  0.00  0.00    +0.000 C 
ATOM     34  C   UNL     1       1.029   8.565  21.513  0.00  0.00    +0.000 C 
ENDBRANCH  32  34
ENDBRANCH  26  32
ENDBRANCH  23  29
ENDBRANCH  21  23
ENDBRANCH   1  21
TORSDOF 8
ENDMDL
MODEL 3
REMARK VINA RESULT:      -8.0      4.859      8.704
REMARK  Name = 
REMARK  9 active torsions:
REMARK  status: ('A' for Active; 'I' for Inactive)
REMARK    1  A    between atoms: C_1  and  C_2
REMARK    2  A    between atoms: C_2  and  O_3
REMARK    3  A    between atoms: O_3  and  C_4
REMARK    4  A    between atoms: C_7  and  S_8
REMARK    5  A    between atoms: S_8  and  N_11
REMARK    6  A    between atoms: N_11  and  C_12
REMARK    7  A    between atoms: C_15  and  C_16
REMARK    8  A    between atoms: N_18  and  N_19
REMARK    9  A    between atoms: C_20  and  C_22
REMARK                            x       y       z     vdW  Elec       q    Type
REMARK                         _______ _______ _______ _____ _____    ______ ____
ROOT
ATOM      1  C   UNL     1       5.059   3.888  18.318  0.00  0.00    +0.000 A 
ATOM      2  C   UNL     1       5.280   4.205  16.980  0.00  0.00    +0.000 A 
ATOM      3  C   UNL     1       6.062   5.317  16.647  0.00  0.00    +0.000 A 
ATOM      4  C   UNL     1       6.652   6.103  17.648  0.00  0.00    +0.000 A 
ATOM      5  C   UNL     1       6.431   5.774  18.993  0.00  0.00    +0.000 A 
ATOM      6  C   UNL     1       5.639   4.664  19.325  0.00  0.00    +0.000 A 
ENDROOT
BRANCH   4   7
ATOM      7  C   UNL     1       7.467   7.284  17.229  0.00  0.00    +0.000 C 
ATOM      8  O   UNL     1       8.242   7.205  16.276  0.00  0.00    +0.000 OA
ATOM      9  N   UNL     1       7.319   8.440  17.966  0.00  0.00    +0.000 N 
ATOM     10  H   UNL     1       6.818   8.495  18.851  0.00  0.00    +0.000 HD
BRANCH   9  11
ATOM     11  N   UNL     1       8.089   9.563  17.623  0.00  0.00    +0.000 N 
ATOM     12  C   UNL     1       8.940  10.082  18.578  0.00  0.00    +0.000 C 
ATOM     13  O   UNL     1       9.055   9.587  19.698  0.00  0.00    +0.000 OA
ATOM     14  H   UNL     1       8.088   9.829  16.639  0.00  0.00    +0.000 HD
BRANCH  12  15
ATOM     15  C   UNL     1       9.744  11.274  18.196  0.00  0.00    +0.000 A 
ATOM     16  C   UNL     1       9.157  12.444  17.719  0.00  0.00    +0.000 A 
ATOM     17  C   UNL     1       9.989  13.512  17.428  0.00  0.00    +0.000 A 
ATOM     18  N   UNL     1      11.330  13.485  17.578  0.00  0.00    +0.000 NA
ATOM     19  C   UNL     1      11.871  12.345  18.056  0.00  0.00    +0.000 A 
ATOM     20  C   UNL     1      11.128  11.224  18.381  0.00  0.00    +0.000 A 
ENDBRANCH  12  15
ENDBRANCH   9  11
ENDBRANCH   4   7
BRANCH   1  21
ATOM     21  N   UNL     1       4.277   2.736  18.644  0.00  0.00    +0.000 N 
ATOM     22  H   UNL     1       4.527   1.907  18.101  0.00  0.00    +0.000 HD
BRANCH  21  23
ATOM     23  S   UNL     1       2.588   2.912  18.537  0.00  0.00    +0.000 S 
ATOM     24  O   UNL     1       2.046   2.094  19.602  0.00  0.00    +0.000 OA
ATOM     25  O   UNL     1       2.144   2.760  17.168  0.00  0.00    +0.000 OA
BRANCH  23  29
ATOM     26  C   UNL     1       1.854   7.278  19.697  0.00  0.00    +0.000 A 
ATOM     27  C   UNL     1       2.137   6.932  18.372  0.00  0.00    +0.000 A 
ATOM     28  C   UNL     1       2.378   5.603  18.018  0.00  0.00    +0.000 A 
ATOM     29  C   UNL     1       2.362   4.616  19.004  0.00  0.00    +0.000 A 
ATOM     30  C   UNL     1       2.086   4.952  20.334  0.00  0.00    +0.000 A 
ATOM     31  C   UNL     1       1.844   6.288  20.681  0.00  0.00    +0.000 A 
BRANCH  26  32
ATOM     32  O   UNL     1       1.619   8.609  19.901  0.00  0.00    +0.000 OA
BRANCH  32  34
ATOM     33  C   UNL     1       0.784  10.724  19.203  0.00  0.00    +0.000 C 
ATOM     34  C   UNL     1       1.379   9.405  18.739  0.00  0.00    +0.000 C 
ENDBRANCH  32  34
ENDBRANCH  26  32
ENDBRANCH  23  29
ENDBRANCH  21  23
ENDBRANCH   1  21
TORSDOF 8
ENDMDL
MODEL 4
REMARK VINA RESULT:      -7.9      0.898      1.317
REMARK  Name = 
REMARK  9 active torsions:
REMARK  status: ('A' for Active; 'I' for Inactive)
REMARK    1  A    between atoms: C_1  and  C_2
REMARK    2  A    between atoms: C_2  and  O_3
REMARK    3  A    between atoms: O_3  and  C_4
REMARK    4  A    between atoms: C_7  and  S_8
REMARK    5  A    between atoms: S_8  and  N_11
REMARK    6  A    between atoms: N_11  and  C_12
REMARK    7  A    between atoms: C_15  and  C_16
REMARK    8  A    between atoms: N_18  and  N_19
REMARK    9  A    between atoms: C_20  and  C_22
REMARK                            x       y       z     vdW  Elec       q    Type
REMARK                         _______ _______ _______ _____ _____    ______ ____
ROOT
ATOM      1  C   UNL     1       2.776   5.899  19.070  0.00  0.00    +0.000 A 
ATOM      2  C   UNL     1       2.197   6.087  20.322  0.00  0.00    +0.000 A 
ATOM      3  C   UNL     1       1.591   7.310  20.634  0.00  0.00    +0.000 A 
ATOM      4  C   UNL     1       1.534   8.343  19.686  0.00  0.00    +0.000 A 
ATOM      5  C   UNL     1       2.113   8.144  18.425  0.00  0.00    +0.000 A 
ATOM      6  C   UNL     1       2.730   6.921  18.118  0.00  0.00    +0.000 A 
ENDROOT
BRANCH   4   7
ATOM      7  C   UNL     1       0.883   9.628  20.083  0.00  0.00    +0.000 C 
ATOM      8  O   UNL     1       1.369  10.708  19.745  0.00  0.00    +0.000 OA
ATOM      9  N   UNL     1      -0.260   9.542  20.850  0.00  0.00    +0.000 N 
ATOM     10  H   UNL     1      -0.595   8.682  21.282  0.00  0.00    +0.000 HD
BRANCH   9  11
ATOM     11  N   UNL     1      -0.885  10.727  21.268  0.00  0.00    +0.000 N 
ATOM     12  C   UNL     1      -0.837  11.046  22.610  0.00  0.00    +0.000 C 
ATOM     13  O   UNL     1      -0.257  10.342  23.436  0.00  0.00    +0.000 OA
ATOM     14  H   UNL     1      -1.198  11.358  20.532  0.00  0.00    +0.000 HD
BRANCH  12  15
ATOM     15  C   UNL     1      -1.507  12.304  23.035  0.00  0.00    +0.000 A 
ATOM     16  C   UNL     1      -0.869  13.542  22.976  0.00  0.00    +0.000 A 
ATOM     17  C   UNL     1      -1.592  14.660  23.357  0.00  0.00    +0.000 A 
ATOM     18  N   UNL     1      -2.873  14.620  23.781  0.00  0.00    +0.000 NA
ATOM     19  C   UNL     1      -3.471  13.411  23.815  0.00  0.00    +0.000 A 
ATOM     20  C   UNL     1      -2.839  12.236  23.450  0.00  0.00    +0.000 A 
ENDBRANCH  12  15
ENDBRANCH   9  11
ENDBRANCH   4   7
BRANCH   1  21
ATOM     21  N   UNL     1       3.373   4.638  18.757  0.00  0.00    +0.000 N 
ATOM     22  H   UNL     1       2.971   3.857  19.280  0.00  0.00    +0.000 HD
BRANCH  21  23
ATOM     23  S   UNL     1       5.062   4.536  18.927  0.00  0.00    +0.000 S 
ATOM     24  O   UNL     1       5.321   3.200  19.424  0.00  0.00    +0.000 OA
ATOM     25  O   UNL     1       5.580   5.706  19.604  0.00  0.00    +0.000 OA
BRANCH  23  29
ATOM     26  C   UNL     1       6.526   4.534  14.591  0.00  0.00    +0.000 A 
ATOM     27  C   UNL     1       7.389   4.890  15.633  0.00  0.00    +0.000 A 
ATOM     28  C   UNL     1       6.941   4.907  16.955  0.00  0.00    +0.000 A 
ATOM     29  C   UNL     1       5.610   4.593  17.233  0.00  0.00    +0.000 A 
ATOM     30  C   UNL     1       4.736   4.241  16.198  0.00  0.00    +0.000 A 
ATOM     31  C   UNL     1       5.194   4.225  14.873  0.00  0.00    +0.000 A 
BRANCH  26  32
ATOM     32  O   UNL     1       7.098   4.538  13.350  0.00  0.00    +0.000 OA
BRANCH  32  34
ATOM     33  C   UNL     1       7.949   6.066  11.738  0.00  0.00    +0.000 C 
ATOM     34  C   UNL     1       8.145   5.484  13.128  0.00  0.00    +0.000 C 
ENDBRANCH  32  34
ENDBRANCH  26  32
ENDBRANCH  23  29
ENDBRANCH  21  23
ENDBRANCH   1  21
TORSDOF 8
ENDMDL
MODEL 5
REMARK VINA RESULT:      -7.7      4.959      8.772
REMARK  Name = 
REMARK  9 active torsions:
REMARK  status: ('A' for Active; 'I' for Inactive)
REMARK    1  A    between atoms: C_1  and  C_2
REMARK    2  A    between atoms: C_2  and  O_3
REMARK    3  A    between atoms: O_3  and  C_4
REMARK    4  A    between atoms: C_7  and  S_8
REMARK    5  A    between atoms: S_8  and  N_11
REMARK    6  A    between atoms: N_11  and  C_12
REMARK    7  A    between atoms: C_15  and  C_16
REMARK    8  A    between atoms: N_18  and  N_19
REMARK    9  A    between atoms: C_20  and  C_22
REMARK                            x       y       z     vdW  Elec       q    Type
REMARK                         _______ _______ _______ _____ _____    ______ ____
ROOT
ATOM      1  C   UNL     1       5.144   4.030  18.310  0.00  0.00    +0.000 A 
ATOM      2  C   UNL     1       5.716   4.799  19.320  0.00  0.00    +0.000 A 
ATOM      3  C   UNL     1       6.550   5.875  18.990  0.00  0.00    +0.000 A 
ATOM      4  C   UNL     1       6.793   6.207  17.649  0.00  0.00    +0.000 A 
ATOM      5  C   UNL     1       6.208   5.432  16.637  0.00  0.00    +0.000 A 
ATOM      6  C   UNL     1       5.381   4.348  16.970  0.00  0.00    +0.000 A 
ENDROOT
BRANCH   4   7
ATOM      7  C   UNL     1       7.700   7.359  17.361  0.00  0.00    +0.000 C 
ATOM      8  O   UNL     1       8.329   7.414  16.304  0.00  0.00    +0.000 OA
ATOM      9  N   UNL     1       7.807   8.331  18.334  0.00  0.00    +0.000 N 
ATOM     10  H   UNL     1       7.436   8.238  19.278  0.00  0.00    +0.000 HD
BRANCH   9  11
ATOM     11  N   UNL     1       8.672   9.415  18.115  0.00  0.00    +0.000 N 
ATOM     12  C   UNL     1       9.166  10.082  19.217  0.00  0.00    +0.000 C 
ATOM     13  O   UNL     1       8.889   9.751  20.369  0.00  0.00    +0.000 OA
ATOM     14  H   UNL     1       9.007   9.541  17.161  0.00  0.00    +0.000 HD
BRANCH  12  15
ATOM     15  C   UNL     1      10.078  11.230  18.964  0.00  0.00    +0.000 A 
ATOM     16  C   UNL     1      10.670  11.951  20.000  0.00  0.00    +0.000 A 
ATOM     17  C   UNL     1      11.534  12.977  19.661  0.00  0.00    +0.000 A 
ATOM     18  N   UNL     1      11.836  13.320  18.391  0.00  0.00    +0.000 NA
ATOM     19  C   UNL     1      11.260  12.598  17.407  0.00  0.00    +0.000 A 
ATOM     20  C   UNL     1      10.387  11.550  17.640  0.00  0.00    +0.000 A 
ENDBRANCH  12  15
ENDBRANCH   9  11
ENDBRANCH   4   7
BRANCH   1  21
ATOM     21  N   UNL     1       4.278   2.947  18.661  0.00  0.00    +0.000 N 
ATOM     22  H   UNL     1       4.527   2.064  18.210  0.00  0.00    +0.000 HD
BRANCH  21  23
ATOM     23  S   UNL     1       2.615   3.191  18.397  0.00  0.00    +0.000 S 
ATOM     24  O   UNL     1       1.943   2.299  19.319  0.00  0.00    +0.000 OA
ATOM     25  O   UNL     1       2.315   3.179  16.981  0.00  0.00    +0.000 OA
BRANCH  23  29
ATOM     26  C   UNL     1       1.869   7.453  19.887  0.00  0.00    +0.000 A 
ATOM     27  C   UNL     1       2.197   7.215  18.549  0.00  0.00    +0.000 A 
ATOM     28  C   UNL     1       2.441   5.918  18.095  0.00  0.00    +0.000 A 
ATOM     29  C   UNL     1       2.384   4.853  18.994  0.00  0.00    +0.000 A 
ATOM     30  C   UNL     1       2.063   5.081  20.338  0.00  0.00    +0.000 A 
ATOM     31  C   UNL     1       1.818   6.386  20.785  0.00  0.00    +0.000 A 
BRANCH  26  32
ATOM     32  O   UNL     1       1.635   8.765  20.192  0.00  0.00    +0.000 OA
BRANCH  32  34
ATOM     33  C   UNL     1      -0.116  10.312  19.746  0.00  0.00    +0.000 C 
ATOM     34  C   UNL     1       1.077   9.576  19.158  0.00  0.00    +0.000 C 
ENDBRANCH  32  34
ENDBRANCH  26  32
ENDBRANCH  23  29
ENDBRANCH  21  23
ENDBRANCH   1  21
TORSDOF 8
ENDMDL
MODEL 6
REMARK VINA RESULT:      -7.7      1.461      2.027
REMARK  Name = 
REMARK  9 active torsions:
REMARK  status: ('A' for Active; 'I' for Inactive)
REMARK    1  A    between atoms: C_1  and  C_2
REMARK    2  A    between atoms: C_2  and  O_3
REMARK    3  A    between atoms: O_3  and  C_4
REMARK    4  A    between atoms: C_7  and  S_8
REMARK    5  A    between atoms: S_8  and  N_11
REMARK    6  A    between atoms: N_11  and  C_12
REMARK    7  A    between atoms: C_15  and  C_16
REMARK    8  A    between atoms: N_18  and  N_19
REMARK    9  A    between atoms: C_20  and  C_22
REMARK                            x       y       z     vdW  Elec       q    Type
REMARK                         _______ _______ _______ _____ _____    ______ ____
ROOT
ATOM      1  C   UNL     1       3.122   5.191  19.546  0.00  0.00    +0.000 A 
ATOM      2  C   UNL     1       3.396   6.298  18.746  0.00  0.00    +0.000 A 
ATOM      3  C   UNL     1       2.700   7.495  18.951  0.00  0.00    +0.000 A 
ATOM      4  C   UNL     1       1.745   7.603  19.974  0.00  0.00    +0.000 A 
ATOM      5  C   UNL     1       1.480   6.486  20.779  0.00  0.00    +0.000 A 
ATOM      6  C   UNL     1       2.172   5.284  20.566  0.00  0.00    +0.000 A 
ENDROOT
BRANCH   4   7
ATOM      7  C   UNL     1       1.028   8.904  20.135  0.00  0.00    +0.000 C 
ATOM      8  O   UNL     1       1.222   9.829  19.346  0.00  0.00    +0.000 OA
ATOM      9  N   UNL     1       0.167   9.016  21.206  0.00  0.00    +0.000 N 
ATOM     10  H   UNL     1       0.106   8.339  21.965  0.00  0.00    +0.000 HD
BRANCH   9  11
ATOM     11  N   UNL     1      -0.504  10.233  21.410  0.00  0.00    +0.000 N 
ATOM     12  C   UNL     1      -0.598  10.713  22.700  0.00  0.00    +0.000 C 
ATOM     13  O   UNL     1      -0.105  10.125  23.661  0.00  0.00    +0.000 OA
ATOM     14  H   UNL     1      -0.742  10.764  20.573  0.00  0.00    +0.000 HD
BRANCH  12  15
ATOM     15  C   UNL     1      -1.316  12.001  22.895  0.00  0.00    +0.000 A 
ATOM     16  C   UNL     1      -0.729  13.230  22.598  0.00  0.00    +0.000 A 
ATOM     17  C   UNL     1      -1.493  14.370  22.777  0.00  0.00    +0.000 A 
ATOM     18  N   UNL     1      -2.768  14.361  23.223  0.00  0.00    +0.000 NA
ATOM     19  C   UNL     1      -3.316  13.157  23.490  0.00  0.00    +0.000 A 
ATOM     20  C   UNL     1      -2.640  11.960  23.339  0.00  0.00    +0.000 A 
ENDBRANCH  12  15
ENDBRANCH   9  11
ENDBRANCH   4   7
BRANCH   1  21
ATOM     21  N   UNL     1       3.856   3.981  19.340  0.00  0.00    +0.000 N 
ATOM     22  H   UNL     1       4.867   4.096  19.444  0.00  0.00    +0.000 HD
BRANCH  21  23
ATOM     23  S   UNL     1       3.594   3.177  17.864  0.00  0.00    +0.000 S 
ATOM     24  O   UNL     1       2.300   3.633  17.400  0.00  0.00    +0.000 OA
ATOM     25  O   UNL     1       3.896   1.767  17.989  0.00  0.00    +0.000 OA
BRANCH  23  29
ATOM     26  C   UNL     1       6.824   4.925  15.134  0.00  0.00    +0.000 A 
ATOM     27  C   UNL     1       7.106   4.632  16.472  0.00  0.00    +0.000 A 
ATOM     28  C   UNL     1       6.118   4.115  17.312  0.00  0.00    +0.000 A 
ATOM     29  C   UNL     1       4.830   3.914  16.815  0.00  0.00    +0.000 A 
ATOM     30  C   UNL     1       4.535   4.209  15.479  0.00  0.00    +0.000 A 
ATOM     31  C   UNL     1       5.533   4.727  14.642  0.00  0.00    +0.000 A 
BRANCH  26  32
ATOM     32  O   UNL     1       7.885   5.406  14.420  0.00  0.00    +0.000 OA
BRANCH  32  34
ATOM     33  C   UNL     1       8.425   6.183  12.237  0.00  0.00    +0.000 C 
ATOM     34  C   UNL     1       7.991   4.981  13.060  0.00  0.00    +0.000 C 
ENDBRANCH  32  34
ENDBRANCH  26  32
ENDBRANCH  23  29
ENDBRANCH  21  23
ENDBRANCH   1  21
TORSDOF 8
ENDMDL
MODEL 7
REMARK VINA RESULT:      -7.7      0.920      1.311
REMARK  Name = 
REMARK  9 active torsions:
REMARK  status: ('A' for Active; 'I' for Inactive)
REMARK    1  A    between atoms: C_1  and  C_2
REMARK    2  A    between atoms: C_2  and  O_3
REMARK    3  A    between atoms: O_3  and  C_4
REMARK    4  A    between atoms: C_7  and  S_8
REMARK    5  A    between atoms: S_8  and  N_11
REMARK    6  A    between atoms: N_11  and  C_12
REMARK    7  A    between atoms: C_15  and  C_16
REMARK    8  A    between atoms: N_18  and  N_19
REMARK    9  A    between atoms: C_20  and  C_22
REMARK                            x       y       z     vdW  Elec       q    Type
REMARK                         _______ _______ _______ _____ _____    ______ ____
ROOT
ATOM      1  C   UNL     1       3.413   6.003  18.677  0.00  0.00    +0.000 A 
ATOM      2  C   UNL     1       3.281   7.096  17.825  0.00  0.00    +0.000 A 
ATOM      3  C   UNL     1       2.508   8.196  18.216  0.00  0.00    +0.000 A 
ATOM      4  C   UNL     1       1.886   8.224  19.473  0.00  0.00    +0.000 A 
ATOM      5  C   UNL     1       2.030   7.123  20.329  0.00  0.00    +0.000 A 
ATOM      6  C   UNL     1       2.796   6.016  19.931  0.00  0.00    +0.000 A 
ENDROOT
BRANCH   4   7
ATOM      7  C   UNL     1       1.066   9.422  19.829  0.00  0.00    +0.000 C 
ATOM      8  O   UNL     1       0.439  10.031  18.963  0.00  0.00    +0.000 OA
ATOM      9  N   UNL     1       1.066   9.811  21.152  0.00  0.00    +0.000 N 
ATOM     10  H   UNL     1       1.696   9.436  21.859  0.00  0.00    +0.000 HD
BRANCH   9  11
ATOM     11  N   UNL     1       0.331  10.949  21.521  0.00  0.00    +0.000 N 
ATOM     12  C   UNL     1      -0.631  10.809  22.500  0.00  0.00    +0.000 C 
ATOM     13  O   UNL     1      -0.850   9.738  23.063  0.00  0.00    +0.000 OA
ATOM     14  H   UNL     1       0.663  11.840  21.156  0.00  0.00    +0.000 HD
BRANCH  12  15
ATOM     15  C   UNL     1      -1.401  12.026  22.875  0.00  0.00    +0.000 A 
ATOM     16  C   UNL     1      -0.918  13.312  22.640  0.00  0.00    +0.000 A 
ATOM     17  C   UNL     1      -1.727  14.379  22.990  0.00  0.00    +0.000 A 
ATOM     18  N   UNL     1      -2.951  14.248  23.544  0.00  0.00    +0.000 NA
ATOM     19  C   UNL     1      -3.400  12.992  23.747  0.00  0.00    +0.000 A 
ATOM     20  C   UNL     1      -2.673  11.859  23.428  0.00  0.00    +0.000 A 
ENDBRANCH  12  15
ENDBRANCH   9  11
ENDBRANCH   4   7
BRANCH   1  21
ATOM     21  N   UNL     1       4.223   4.896  18.274  0.00  0.00    +0.000 N 
ATOM     22  H   UNL     1       4.172   4.100  18.914  0.00  0.00    +0.000 HD
BRANCH  21  23
ATOM     23  S   UNL     1       5.872   5.219  18.010  0.00  0.00    +0.000 S 
ATOM     24  O   UNL     1       6.589   4.257  18.820  0.00  0.00    +0.000 OA
ATOM     25  O   UNL     1       6.138   6.638  18.112  0.00  0.00    +0.000 OA
BRANCH  23  29
ATOM     26  C   UNL     1       6.305   4.118  13.589  0.00  0.00    +0.000 A 
ATOM     27  C   UNL     1       5.211   3.661  14.332  0.00  0.00    +0.000 A 
ATOM     28  C   UNL     1       5.085   3.982  15.685  0.00  0.00    +0.000 A 
ATOM     29  C   UNL     1       6.076   4.743  16.306  0.00  0.00    +0.000 A 
ATOM     30  C   UNL     1       7.178   5.199  15.573  0.00  0.00    +0.000 A 
ATOM     31  C   UNL     1       7.296   4.874  14.215  0.00  0.00    +0.000 A 
BRANCH  26  32
ATOM     32  O   UNL     1       6.294   3.748  12.273  0.00  0.00    +0.000 OA
BRANCH  32  34
ATOM     33  C   UNL     1       4.263   3.259  11.136  0.00  0.00    +0.000 C 
ATOM     34  C   UNL     1       5.428   2.671  11.915  0.00  0.00    +0.000 C 
ENDBRANCH  32  34
ENDBRANCH  26  32
ENDBRANCH  23  29
ENDBRANCH  21  23
ENDBRANCH   1  21
TORSDOF 8
ENDMDL
MODEL 8
REMARK VINA RESULT:      -7.6      2.338      3.425
REMARK  Name = 
REMARK  9 active torsions:
REMARK  status: ('A' for Active; 'I' for Inactive)
REMARK    1  A    between atoms: C_1  and  C_2
REMARK    2  A    between atoms: C_2  and  O_3
REMARK    3  A    between atoms: O_3  and  C_4
REMARK    4  A    between atoms: C_7  and  S_8
REMARK    5  A    between atoms: S_8  and  N_11
REMARK    6  A    between atoms: N_11  and  C_12
REMARK    7  A    between atoms: C_15  and  C_16
REMARK    8  A    between atoms: N_18  and  N_19
REMARK    9  A    between atoms: C_20  and  C_22
REMARK                            x       y       z     vdW  Elec       q    Type
REMARK                         _______ _______ _______ _____ _____    ______ ____
ROOT
ATOM      1  C   UNL     1       2.400   6.148  18.802  0.00  0.00    +0.000 A 
ATOM      2  C   UNL     1       2.328   7.505  18.496  0.00  0.00    +0.000 A 
ATOM      3  C   UNL     1       1.887   8.415  19.463  0.00  0.00    +0.000 A 
ATOM      4  C   UNL     1       1.543   7.980  20.752  0.00  0.00    +0.000 A 
ATOM      5  C   UNL     1       1.624   6.614  21.055  0.00  0.00    +0.000 A 
ATOM      6  C   UNL     1       2.057   5.701  20.081  0.00  0.00    +0.000 A 
ENDROOT
BRANCH   4   7
ATOM      7  C   UNL     1       1.068   8.999  21.737  0.00  0.00    +0.000 C 
ATOM      8  O   UNL     1       1.727   9.250  22.746  0.00  0.00    +0.000 OA
ATOM      9  N   UNL     1      -0.135   9.617  21.469  0.00  0.00    +0.000 N 
ATOM     10  H   UNL     1      -0.781   9.321  20.739  0.00  0.00    +0.000 HD
BRANCH   9  11
ATOM     11  N   UNL     1      -0.630  10.559  22.385  0.00  0.00    +0.000 N 
ATOM     12  C   UNL     1      -1.343  11.632  21.890  0.00  0.00    +0.000 C 
ATOM     13  O   UNL     1      -1.570  11.777  20.690  0.00  0.00    +0.000 OA
ATOM     14  H   UNL     1      -0.568  10.308  23.370  0.00  0.00    +0.000 HD
BRANCH  12  15
ATOM     15  C   UNL     1      -1.856  12.620  22.876  0.00  0.00    +0.000 A 
ATOM     16  C   UNL     1      -1.139  13.765  23.222  0.00  0.00    +0.000 A 
ATOM     17  C   UNL     1      -1.720  14.643  24.120  0.00  0.00    +0.000 A 
ATOM     18  N   UNL     1      -2.935  14.457  24.679  0.00  0.00    +0.000 NA
ATOM     19  C   UNL     1      -3.613  13.348  24.317  0.00  0.00    +0.000 A 
ATOM     20  C   UNL     1      -3.124  12.411  23.423  0.00  0.00    +0.000 A 
ENDBRANCH  12  15
ENDBRANCH   9  11
ENDBRANCH   4   7
BRANCH   1  21
ATOM     21  N   UNL     1       2.873   5.232  17.811  0.00  0.00    +0.000 N 
ATOM     22  H   UNL     1       2.151   4.593  17.470  0.00  0.00    +0.000 HD
BRANCH  21  23
ATOM     23  S   UNL     1       4.219   4.282  18.238  0.00  0.00    +0.000 S 
ATOM     24  O   UNL     1       4.335   3.286  17.193  0.00  0.00    +0.000 OA
ATOM     25  O   UNL     1       4.158   3.907  19.634  0.00  0.00    +0.000 OA
BRANCH  23  29
ATOM     26  C   UNL     1       7.599   7.338  17.813  0.00  0.00    +0.000 A 
ATOM     27  C   UNL     1       6.476   7.400  16.982  0.00  0.00    +0.000 A 
ATOM     28  C   UNL     1       5.451   6.459  17.098  0.00  0.00    +0.000 A 
ATOM     29  C   UNL     1       5.564   5.432  18.035  0.00  0.00    +0.000 A 
ATOM     30  C   UNL     1       6.686   5.357  18.868  0.00  0.00    +0.000 A 
ATOM     31  C   UNL     1       7.710   6.306  18.746  0.00  0.00    +0.000 A 
BRANCH  26  32
ATOM     32  O   UNL     1       8.516   8.331  17.607  0.00  0.00    +0.000 OA
BRANCH  32  34
ATOM     33  C   UNL     1       9.195  10.000  19.160  0.00  0.00    +0.000 C 
ATOM     34  C   UNL     1       8.177   9.630  18.094  0.00  0.00    +0.000 C 
ENDBRANCH  32  34
ENDBRANCH  26  32
ENDBRANCH  23  29
ENDBRANCH  21  23
ENDBRANCH   1  21
TORSDOF 8
ENDMDL
MODEL 9
REMARK VINA RESULT:      -7.6      3.016      3.914
REMARK  Name = 
REMARK  9 active torsions:
REMARK  status: ('A' for Active; 'I' for Inactive)
REMARK    1  A    between atoms: C_1  and  C_2
REMARK    2  A    between atoms: C_2  and  O_3
REMARK    3  A    between atoms: O_3  and  C_4
REMARK    4  A    between atoms: C_7  and  S_8
REMARK    5  A    between atoms: S_8  and  N_11
REMARK    6  A    between atoms: N_11  and  C_12
REMARK    7  A    between atoms: C_15  and  C_16
REMARK    8  A    between atoms: N_18  and  N_19
REMARK    9  A    between atoms: C_20  and  C_22
REMARK                            x       y       z     vdW  Elec       q    Type
REMARK                         _______ _______ _______ _____ _____    ______ ____
ROOT
ATOM      1  C   UNL     1       2.009   4.483  19.221  0.00  0.00    +0.000 A 
ATOM      2  C   UNL     1       1.770   4.892  20.530  0.00  0.00    +0.000 A 
ATOM      3  C   UNL     1       1.601   6.252  20.816  0.00  0.00    +0.000 A 
ATOM      4  C   UNL     1       1.641   7.209  19.791  0.00  0.00    +0.000 A 
ATOM      5  C   UNL     1       1.875   6.789  18.475  0.00  0.00    +0.000 A 
ATOM      6  C   UNL     1       2.054   5.426  18.191  0.00  0.00    +0.000 A 
ENDROOT
BRANCH   4   7
ATOM      7  C   UNL     1       1.465   8.646  20.162  0.00  0.00    +0.000 C 
ATOM      8  O   UNL     1       1.498   8.999  21.341  0.00  0.00    +0.000 OA
ATOM      9  N   UNL     1       1.247   9.537  19.131  0.00  0.00    +0.000 N 
ATOM     10  H   UNL     1       1.051   9.263  18.170  0.00  0.00    +0.000 HD
BRANCH   9  11
ATOM     11  N   UNL     1       1.047  10.892  19.440  0.00  0.00    +0.000 N 
ATOM     12  C   UNL     1       1.786  11.830  18.748  0.00  0.00    +0.000 C 
ATOM     13  O   UNL     1       2.589  11.521  17.869  0.00  0.00    +0.000 OA
ATOM     14  H   UNL     1       0.255  11.106  20.044  0.00  0.00    +0.000 HD
BRANCH  12  15
ATOM     15  C   UNL     1       1.562  13.260  19.091  0.00  0.00    +0.000 A 
ATOM     16  C   UNL     1       2.610  14.175  19.178  0.00  0.00    +0.000 A 
ATOM     17  C   UNL     1       2.294  15.492  19.467  0.00  0.00    +0.000 A 
ATOM     18  N   UNL     1       1.037  15.939  19.668  0.00  0.00    +0.000 NA
ATOM     19  C   UNL     1       0.040  15.035  19.564  0.00  0.00    +0.000 A 
ATOM     20  C   UNL     1       0.249  13.698  19.275  0.00  0.00    +0.000 A 
ENDBRANCH  12  15
ENDBRANCH   9  11
ENDBRANCH   4   7
BRANCH   1  21
ATOM     21  N   UNL     1       2.158   3.088  18.940  0.00  0.00    +0.000 N 
ATOM     22  H   UNL     1       1.555   2.491  19.511  0.00  0.00    +0.000 HD
BRANCH  21  23
ATOM     23  S   UNL     1       3.734   2.458  19.048  0.00  0.00    +0.000 S 
ATOM     24  O   UNL     1       3.778   1.363  18.102  0.00  0.00    +0.000 OA
ATOM     25  O   UNL     1       4.117   2.274  20.432  0.00  0.00    +0.000 OA
BRANCH  23  29
ATOM     26  C   UNL     1       6.378   5.779  17.341  0.00  0.00    +0.000 A 
ATOM     27  C   UNL     1       6.204   5.648  18.723  0.00  0.00    +0.000 A 
ATOM     28  C   UNL     1       5.385   4.646  19.246  0.00  0.00    +0.000 A 
ATOM     29  C   UNL     1       4.712   3.786  18.378  0.00  0.00    +0.000 A 
ATOM     30  C   UNL     1       4.874   3.913  16.993  0.00  0.00    +0.000 A 
ATOM     31  C   UNL     1       5.699   4.920  16.476  0.00  0.00    +0.000 A 
BRANCH  26  32
ATOM     32  O   UNL     1       7.221   6.788  16.966  0.00  0.00    +0.000 OA
BRANCH  32  34
ATOM     33  C   UNL     1       7.937   8.904  17.784  0.00  0.00    +0.000 C 
ATOM     34  C   UNL     1       7.991   7.400  18.001  0.00  0.00    +0.000 C 
ENDBRANCH  32  34
ENDBRANCH  26  32
ENDBRANCH  23  29
ENDBRANCH  21  23
ENDBRANCH   1  21
TORSDOF 8
ENDMDL
