MODEL 1
REMARK VINA RESULT:      -7.8      0.000      0.000
REMARK  Name = 
REMARK  3 active torsions:
REMARK  status: ('A' for Active; 'I' for Inactive)
REMARK    1  A    between atoms: C_1  and  O_2
REMARK    2  A    between atoms: O_2  and  C_3
REMARK    3  A    between atoms: C_6  and  C_7
REMARK                            x       y       z     vdW  Elec       q    Type
REMARK                         _______ _______ _______ _____ _____    ______ ____
ROOT
ATOM      1  C   UNL     1       7.031   5.868  17.991  0.00  0.00    +0.000 A 
ATOM      2  C   UNL     1       6.268   5.612  19.132  0.00  0.00    +0.000 A 
ATOM      3  C   UNL     1       5.225   4.704  19.068  0.00  0.00    +0.000 A 
ATOM      4  C   UNL     1       4.933   4.046  17.865  0.00  0.00    +0.000 A 
ATOM      5  C   UNL     1       5.679   4.298  16.702  0.00  0.00    +0.000 A 
ATOM      6  N   UNL     1       5.384   3.687  15.523  0.00  0.00    +0.000 NA
ATOM      7  C   UNL     1       6.087   4.011  14.427  0.00  0.00    +0.000 A 
ATOM      8  C   UNL     1       5.753   3.437  13.206  0.00  0.00    +0.000 A 
ATOM      9  C   UNL     1       6.431   3.779  12.037  0.00  0.00    +0.000 A 
ATOM     10  C   UNL     1       7.470   4.698  12.097  0.00  0.00    +0.000 A 
ATOM     11  C   UNL     1       7.821   5.263  13.325  0.00  0.00    +0.000 A 
ATOM     12  C   UNL     1       7.138   4.938  14.493  0.00  0.00    +0.000 A 
ATOM     13  N   UNL     1       7.468   5.520  15.658  0.00  0.00    +0.000 NA
ATOM     14  C   UNL     1       6.743   5.232  16.767  0.00  0.00    +0.000 A 
ENDROOT
BRANCH   4  15
ATOM     15  C   UNL     1       3.772   3.106  17.901  0.00  0.00    +0.000 C 
ATOM     16  N   UNL     1       4.020   1.767  17.942  0.00  0.00    +0.000 N 
ATOM     17  O   UNL     1       2.616   3.517  17.891  0.00  0.00    +0.000 OA
ATOM     18  H   UNL     1       4.971   1.414  17.925  0.00  0.00    +0.000 HD
ATOM     19  H   UNL     1       3.246   1.120  17.937  0.00  0.00    +0.000 HD
ENDBRANCH   4  15
BRANCH   1  21
ATOM     20  C   UNL     1       7.675   8.142  17.678  0.00  0.00    +0.000 C 
ATOM     21  O   UNL     1       8.047   6.801  17.978  0.00  0.00    +0.000 OA
ENDBRANCH   1  21
TORSDOF 2
ENDMDL
MODEL 2
REMARK VINA RESULT:      -7.7      1.011      3.829
REMARK  Name = 
REMARK  3 active torsions:
REMARK  status: ('A' for Active; 'I' for Inactive)
REMARK    1  A    between atoms: C_1  and  O_2
REMARK    2  A    between atoms: O_2  and  C_3
REMARK    3  A    between atoms: C_6  and  C_7
REMARK                            x       y       z     vdW  Elec       q    Type
REMARK                         _______ _______ _______ _____ _____    ______ ____
ROOT
ATOM      1  C   UNL     1       4.818   3.859  17.704  0.00  0.00    +0.000 A 
ATOM      2  C   UNL     1       5.058   4.468  18.937  0.00  0.00    +0.000 A 
ATOM      3  C   UNL     1       5.988   5.489  19.027  0.00  0.00    +0.000 A 
ATOM      4  C   UNL     1       6.690   5.909  17.888  0.00  0.00    +0.000 A 
ATOM      5  C   UNL     1       6.474   5.301  16.640  0.00  0.00    +0.000 A 
ATOM      6  N   UNL     1       7.171   5.682  15.535  0.00  0.00    +0.000 NA
ATOM      7  C   UNL     1       6.973   5.026  14.381  0.00  0.00    +0.000 A 
ATOM      8  C   UNL     1       7.725   5.367  13.263  0.00  0.00    +0.000 A 
ATOM      9  C   UNL     1       7.580   4.682  12.059  0.00  0.00    +0.000 A 
ATOM     10  C   UNL     1       6.655   3.650  11.970  0.00  0.00    +0.000 A 
ATOM     11  C   UNL     1       5.885   3.316  13.085  0.00  0.00    +0.000 A 
ATOM     12  C   UNL     1       6.036   3.985  14.296  0.00  0.00    +0.000 A 
ATOM     13  N   UNL     1       5.310   3.625  15.367  0.00  0.00    +0.000 NA
ATOM     14  C   UNL     1       5.525   4.253  16.550  0.00  0.00    +0.000 A 
ENDROOT
BRANCH   4  15
ATOM     15  C   UNL     1       7.687   7.001  18.102  0.00  0.00    +0.000 C 
ATOM     16  N   UNL     1       7.686   8.060  17.245  0.00  0.00    +0.000 N 
ATOM     17  O   UNL     1       8.497   6.955  19.023  0.00  0.00    +0.000 OA
ATOM     18  H   UNL     1       7.039   8.096  16.465  0.00  0.00    +0.000 HD
ATOM     19  H   UNL     1       8.374   8.790  17.360  0.00  0.00    +0.000 HD
ENDBRANCH   4  15
BRANCH   1  21
ATOM     20  C   UNL     1       2.557   3.111  17.616  0.00  0.00    +0.000 C 
ATOM     21  O   UNL     1       3.945   2.801  17.561  0.00  0.00    +0.000 OA
ENDBRANCH   1  21
TORSDOF 2
ENDMDL
MODEL 3
REMARK VINA RESULT:      -7.6      2.245      5.721
REMARK  Name = 
REMARK  3 active torsions:
REMARK  status: ('A' for Active; 'I' for Inactive)
REMARK    1  A    between atoms: C_1  and  O_2
REMARK    2  A    between atoms: O_2  and  C_3
REMARK    3  A    between atoms: C_6  and  C_7
REMARK                            x       y       z     vdW  Elec       q    Type
REMARK                         _______ _______ _______ _____ _____    ______ ____
ROOT
ATOM      1  C   UNL     1       5.736   4.378  15.465  0.00  0.00    +0.000 A 
ATOM      2  C   UNL     1       7.020   4.911  15.341  0.00  0.00    +0.000 A 
ATOM      3  C   UNL     1       7.641   5.463  16.448  0.00  0.00    +0.000 A 
ATOM      4  C   UNL     1       6.985   5.491  17.687  0.00  0.00    +0.000 A 
ATOM      5  C   UNL     1       5.688   4.972  17.831  0.00  0.00    +0.000 A 
ATOM      6  N   UNL     1       5.032   5.022  19.022  0.00  0.00    +0.000 NA
ATOM      7  C   UNL     1       3.770   4.571  19.090  0.00  0.00    +0.000 A 
ATOM      8  C   UNL     1       3.071   4.674  20.287  0.00  0.00    +0.000 A 
ATOM      9  C   UNL     1       1.745   4.256  20.388  0.00  0.00    +0.000 A 
ATOM     10  C   UNL     1       1.116   3.712  19.275  0.00  0.00    +0.000 A 
ATOM     11  C   UNL     1       1.821   3.591  18.076  0.00  0.00    +0.000 A 
ATOM     12  C   UNL     1       3.139   4.020  17.964  0.00  0.00    +0.000 A 
ATOM     13  N   UNL     1       3.788   3.927  16.791  0.00  0.00    +0.000 NA
ATOM     14  C   UNL     1       5.051   4.413  16.696  0.00  0.00    +0.000 A 
ENDROOT
BRANCH   4  15
ATOM     15  C   UNL     1       7.737   6.131  18.809  0.00  0.00    +0.000 C 
ATOM     16  N   UNL     1       7.865   5.448  19.980  0.00  0.00    +0.000 N 
ATOM     17  O   UNL     1       8.230   7.249  18.691  0.00  0.00    +0.000 OA
ATOM     18  H   UNL     1       7.440   4.534  20.097  0.00  0.00    +0.000 HD
ATOM     19  H   UNL     1       8.344   5.881  20.756  0.00  0.00    +0.000 HD
ENDBRANCH   4  15
BRANCH   1  21
ATOM     20  C   UNL     1       5.783   3.680  13.186  0.00  0.00    +0.000 C 
ATOM     21  O   UNL     1       5.044   3.864  14.388  0.00  0.00    +0.000 OA
ENDBRANCH   1  21
TORSDOF 2
ENDMDL
MODEL 4
REMARK VINA RESULT:      -7.3      3.430      6.170
REMARK  Name = 
REMARK  3 active torsions:
REMARK  status: ('A' for Active; 'I' for Inactive)
REMARK    1  A    between atoms: C_1  and  O_2
REMARK    2  A    between atoms: O_2  and  C_3
REMARK    3  A    between atoms: C_6  and  C_7
REMARK                            x       y       z     vdW  Elec       q    Type
REMARK                         _______ _______ _______ _____ _____    ______ ____
ROOT
ATOM      1  C   UNL     1       3.468   7.098  17.504  0.00  0.00    +0.000 A 
ATOM      2  C   UNL     1       4.644   7.549  16.904  0.00  0.00    +0.000 A 
ATOM      3  C   UNL     1       5.822   6.847  17.093  0.00  0.00    +0.000 A 
ATOM      4  C   UNL     1       5.836   5.689  17.885  0.00  0.00    +0.000 A 
ATOM      5  C   UNL     1       4.666   5.224  18.508  0.00  0.00    +0.000 A 
ATOM      6  N   UNL     1       4.676   4.120  19.302  0.00  0.00    +0.000 NA
ATOM      7  C   UNL     1       3.546   3.755  19.926  0.00  0.00    +0.000 A 
ATOM      8  C   UNL     1       3.561   2.664  20.786  0.00  0.00    +0.000 A 
ATOM      9  C   UNL     1       2.419   2.279  21.485  0.00  0.00    +0.000 A 
ATOM     10  C   UNL     1       1.239   2.989  21.306  0.00  0.00    +0.000 A 
ATOM     11  C   UNL     1       1.215   4.075  20.428  0.00  0.00    +0.000 A 
ATOM     12  C   UNL     1       2.355   4.474  19.739  0.00  0.00    +0.000 A 
ATOM     13  N   UNL     1       2.320   5.544  18.927  0.00  0.00    +0.000 NA
ATOM     14  C   UNL     1       3.463   5.948  18.319  0.00  0.00    +0.000 A 
ENDROOT
BRANCH   4  15
ATOM     15  C   UNL     1       7.164   5.023  18.042  0.00  0.00    +0.000 C 
ATOM     16  N   UNL     1       7.754   5.027  19.270  0.00  0.00    +0.000 N 
ATOM     17  O   UNL     1       7.724   4.483  17.092  0.00  0.00    +0.000 OA
ATOM     18  H   UNL     1       7.312   5.493  20.056  0.00  0.00    +0.000 HD
ATOM     19  H   UNL     1       8.664   4.607  19.383  0.00  0.00    +0.000 HD
ENDBRANCH   4  15
BRANCH   1  21
ATOM     20  C   UNL     1       2.252   9.104  17.929  0.00  0.00    +0.000 C 
ATOM     21  O   UNL     1       2.276   7.784  17.398  0.00  0.00    +0.000 OA
ENDBRANCH   1  21
TORSDOF 2
ENDMDL
MODEL 5
REMARK VINA RESULT:      -7.2      3.335      4.217
REMARK  Name = 
REMARK  3 active torsions:
REMARK  status: ('A' for Active; 'I' for Inactive)
REMARK    1  A    between atoms: C_1  and  O_2
REMARK    2  A    between atoms: O_2  and  C_3
REMARK    3  A    between atoms: C_6  and  C_7
REMARK                            x       y       z     vdW  Elec       q    Type
REMARK                         _______ _______ _______ _____ _____    ______ ____
ROOT
ATOM      1  C   UNL     1       2.292   7.310  19.422  0.00  0.00    +0.000 A 
ATOM      2  C   UNL     1       1.526   6.908  20.517  0.00  0.00    +0.000 A 
ATOM      3  C   UNL     1       1.554   5.585  20.923  0.00  0.00    +0.000 A 
ATOM      4  C   UNL     1       2.344   4.651  20.238  0.00  0.00    +0.000 A 
ATOM      5  C   UNL     1       3.113   5.031  19.126  0.00  0.00    +0.000 A 
ATOM      6  N   UNL     1       3.860   4.126  18.437  0.00  0.00    +0.000 NA
ATOM      7  C   UNL     1       4.525   4.528  17.343  0.00  0.00    +0.000 A 
ATOM      8  C   UNL     1       5.241   3.598  16.598  0.00  0.00    +0.000 A 
ATOM      9  C   UNL     1       5.910   3.967  15.433  0.00  0.00    +0.000 A 
ATOM     10  C   UNL     1       5.874   5.292  15.017  0.00  0.00    +0.000 A 
ATOM     11  C   UNL     1       5.171   6.232  15.773  0.00  0.00    +0.000 A 
ATOM     12  C   UNL     1       4.488   5.868  16.928  0.00  0.00    +0.000 A 
ATOM     13  N   UNL     1       3.788   6.781  17.621  0.00  0.00    +0.000 NA
ATOM     14  C   UNL     1       3.079   6.384  18.708  0.00  0.00    +0.000 A 
ENDROOT
BRANCH   4  15
ATOM     15  C   UNL     1       2.282   3.246  20.745  0.00  0.00    +0.000 C 
ATOM     16  N   UNL     1       2.061   2.241  19.853  0.00  0.00    +0.000 N 
ATOM     17  O   UNL     1       2.421   2.991  21.938  0.00  0.00    +0.000 OA
ATOM     18  H   UNL     1       1.920   2.443  18.868  0.00  0.00    +0.000 HD
ATOM     19  H   UNL     1       1.987   1.291  20.186  0.00  0.00    +0.000 HD
ENDBRANCH   4  15
BRANCH   1  21
ATOM     20  C   UNL     1       1.139   9.392  19.298  0.00  0.00    +0.000 C 
ATOM     21  O   UNL     1       2.264   8.600  18.936  0.00  0.00    +0.000 OA
ENDBRANCH   1  21
TORSDOF 2
ENDMDL
MODEL 6
REMARK VINA RESULT:      -7.2      3.022      4.177
REMARK  Name = 
REMARK  3 active torsions:
REMARK  status: ('A' for Active; 'I' for Inactive)
REMARK    1  A    between atoms: C_1  and  O_2
REMARK    2  A    between atoms: O_2  and  C_3
REMARK    3  A    between atoms: C_6  and  C_7
REMARK                            x       y       z     vdW  Elec       q    Type
REMARK                         _______ _______ _______ _____ _____    ______ ____
ROOT
ATOM      1  C   UNL     1       2.125   6.279  19.894  0.00  0.00    +0.000 A 
ATOM      2  C   UNL     1       1.150   5.533  20.558  0.00  0.00    +0.000 A 
ATOM      3  C   UNL     1       0.947   4.209  20.211  0.00  0.00    +0.000 A 
ATOM      4  C   UNL     1       1.713   3.618  19.197  0.00  0.00    +0.000 A 
ATOM      5  C   UNL     1       2.691   4.353  18.507  0.00  0.00    +0.000 A 
ATOM      6  N   UNL     1       3.419   3.796  17.501  0.00  0.00    +0.000 NA
ATOM      7  C   UNL     1       4.296   4.560  16.831  0.00  0.00    +0.000 A 
ATOM      8  C   UNL     1       4.999   4.017  15.763  0.00  0.00    +0.000 A 
ATOM      9  C   UNL     1       5.887   4.788  15.016  0.00  0.00    +0.000 A 
ATOM     10  C   UNL     1       6.084   6.121  15.355  0.00  0.00    +0.000 A 
ATOM     11  C   UNL     1       5.393   6.665  16.439  0.00  0.00    +0.000 A 
ATOM     12  C   UNL     1       4.493   5.905  17.179  0.00  0.00    +0.000 A 
ATOM     13  N   UNL     1       3.811   6.458  18.197  0.00  0.00    +0.000 NA
ATOM     14  C   UNL     1       2.894   5.710  18.859  0.00  0.00    +0.000 A 
ENDROOT
BRANCH   4  15
ATOM     15  C   UNL     1       1.395   2.191  18.886  0.00  0.00    +0.000 C 
ATOM     16  N   UNL     1       2.425   1.312  18.736  0.00  0.00    +0.000 N 
ATOM     17  O   UNL     1       0.236   1.807  18.764  0.00  0.00    +0.000 OA
ATOM     18  H   UNL     1       3.388   1.624  18.810  0.00  0.00    +0.000 HD
ATOM     19  H   UNL     1       2.226   0.352  18.497  0.00  0.00    +0.000 HD
ENDBRANCH   4  15
BRANCH   1  21
ATOM     20  C   UNL     1       1.341   8.279  20.928  0.00  0.00    +0.000 C 
ATOM     21  O   UNL     1       2.337   7.616  20.157  0.00  0.00    +0.000 OA
ENDBRANCH   1  21
TORSDOF 2
ENDMDL
MODEL 7
REMARK VINA RESULT:      -7.0      3.167      6.082
REMARK  Name = 
REMARK  3 active torsions:
REMARK  status: ('A' for Active; 'I' for Inactive)
REMARK    1  A    between atoms: C_1  and  O_2
REMARK    2  A    between atoms: O_2  and  C_3
REMARK    3  A    between atoms: C_6  and  C_7
REMARK                            x       y       z     vdW  Elec       q    Type
REMARK                         _______ _______ _______ _____ _____    ______ ____
ROOT
ATOM      1  C   UNL     1       3.310   7.287  17.971  0.00  0.00    +0.000 A 
ATOM      2  C   UNL     1       4.204   7.669  16.970  0.00  0.00    +0.000 A 
ATOM      3  C   UNL     1       5.173   6.778  16.541  0.00  0.00    +0.000 A 
ATOM      4  C   UNL     1       5.259   5.499  17.109  0.00  0.00    +0.000 A 
ATOM      5  C   UNL     1       4.378   5.098  18.126  0.00  0.00    +0.000 A 
ATOM      6  N   UNL     1       4.473   3.870  18.703  0.00  0.00    +0.000 NA
ATOM      7  C   UNL     1       3.648   3.560  19.715  0.00  0.00    +0.000 A 
ATOM      8  C   UNL     1       3.778   2.331  20.351  0.00  0.00    +0.000 A 
ATOM      9  C   UNL     1       2.969   1.989  21.433  0.00  0.00    +0.000 A 
ATOM     10  C   UNL     1       2.004   2.886  21.873  0.00  0.00    +0.000 A 
ATOM     11  C   UNL     1       1.859   4.113  21.225  0.00  0.00    +0.000 A 
ATOM     12  C   UNL     1       2.673   4.468  20.154  0.00  0.00    +0.000 A 
ATOM     13  N   UNL     1       2.540   5.670  19.567  0.00  0.00    +0.000 NA
ATOM     14  C   UNL     1       3.391   6.013  18.568  0.00  0.00    +0.000 A 
ENDROOT
BRANCH   4  15
ATOM     15  C   UNL     1       6.356   4.627  16.588  0.00  0.00    +0.000 C 
ATOM     16  N   UNL     1       6.022   3.460  15.970  0.00  0.00    +0.000 N 
ATOM     17  O   UNL     1       7.536   4.943  16.712  0.00  0.00    +0.000 OA
ATOM     18  H   UNL     1       5.051   3.177  15.885  0.00  0.00    +0.000 HD
ATOM     19  H   UNL     1       6.753   2.848  15.641  0.00  0.00    +0.000 HD
ENDBRANCH   4  15
BRANCH   1  21
ATOM     20  C   UNL     1       2.076   9.309  17.707  0.00  0.00    +0.000 C 
ATOM     21  O   UNL     1       2.360   8.147  18.479  0.00  0.00    +0.000 OA
ENDBRANCH   1  21
TORSDOF 2
ENDMDL
MODEL 8
REMARK VINA RESULT:      -7.0      3.734      6.041
REMARK  Name = 
REMARK  3 active torsions:
REMARK  status: ('A' for Active; 'I' for Inactive)
REMARK    1  A    between atoms: C_1  and  O_2
REMARK    2  A    between atoms: O_2  and  C_3
REMARK    3  A    between atoms: C_6  and  C_7
REMARK                            x       y       z     vdW  Elec       q    Type
REMARK                         _______ _______ _______ _____ _____    ______ ____
ROOT
ATOM      1  C   UNL     1       3.985   4.004  17.370  0.00  0.00    +0.000 A 
ATOM      2  C   UNL     1       4.138   2.701  17.846  0.00  0.00    +0.000 A 
ATOM      3  C   UNL     1       3.576   2.345  19.060  0.00  0.00    +0.000 A 
ATOM      4  C   UNL     1       2.859   3.287  19.811  0.00  0.00    +0.000 A 
ATOM      5  C   UNL     1       2.704   4.608  19.357  0.00  0.00    +0.000 A 
ATOM      6  N   UNL     1       2.035   5.536  20.093  0.00  0.00    +0.000 NA
ATOM      7  C   UNL     1       1.971   6.799  19.645  0.00  0.00    +0.000 A 
ATOM      8  C   UNL     1       1.342   7.768  20.418  0.00  0.00    +0.000 A 
ATOM      9  C   UNL     1       1.291   9.099  20.008  0.00  0.00    +0.000 A 
ATOM     10  C   UNL     1       1.865   9.460  18.796  0.00  0.00    +0.000 A 
ATOM     11  C   UNL     1       2.481   8.487  18.008  0.00  0.00    +0.000 A 
ATOM     12  C   UNL     1       2.549   7.159  18.418  0.00  0.00    +0.000 A 
ATOM     13  N   UNL     1       3.178   6.245  17.661  0.00  0.00    +0.000 NA
ATOM     14  C   UNL     1       3.284   4.972  18.117  0.00  0.00    +0.000 A 
ENDROOT
BRANCH   4  15
ATOM     15  C   UNL     1       2.315   2.804  21.116  0.00  0.00    +0.000 C 
ATOM     16  N   UNL     1       0.972   2.878  21.329  0.00  0.00    +0.000 N 
ATOM     17  O   UNL     1       3.053   2.350  21.986  0.00  0.00    +0.000 OA
ATOM     18  H   UNL     1       0.356   3.275  20.627  0.00  0.00    +0.000 HD
ATOM     19  H   UNL     1       0.595   2.583  22.218  0.00  0.00    +0.000 HD
ENDBRANCH   4  15
BRANCH   1  21
ATOM     20  C   UNL     1       5.836   3.875  15.874  0.00  0.00    +0.000 C 
ATOM     21  O   UNL     1       4.567   4.434  16.196  0.00  0.00    +0.000 OA
ENDBRANCH   1  21
TORSDOF 2
ENDMDL
MODEL 9
REMARK VINA RESULT:      -6.9      4.158      6.670
REMARK  Name = 
REMARK  3 active torsions:
REMARK  status: ('A' for Active; 'I' for Inactive)
REMARK    1  A    between atoms: C_1  and  O_2
REMARK    2  A    between atoms: O_2  and  C_3
REMARK    3  A    between atoms: C_6  and  C_7
REMARK                            x       y       z     vdW  Elec       q    Type
REMARK                         _______ _______ _______ _____ _____    ______ ____
ROOT
ATOM      1  C   UNL     1       3.064   4.437  20.186  0.00  0.00    +0.000 A 
ATOM      2  C   UNL     1       3.852   3.486  19.536  0.00  0.00    +0.000 A 
ATOM      3  C   UNL     1       4.456   3.805  18.331  0.00  0.00    +0.000 A 
ATOM      4  C   UNL     1       4.275   5.074  17.764  0.00  0.00    +0.000 A 
ATOM      5  C   UNL     1       3.476   6.042  18.395  0.00  0.00    +0.000 A 
ATOM      6  N   UNL     1       3.272   7.266  17.838  0.00  0.00    +0.000 NA
ATOM      7  C   UNL     1       2.448   8.131  18.449  0.00  0.00    +0.000 A 
ATOM      8  C   UNL     1       2.185   9.360  17.856  0.00  0.00    +0.000 A 
ATOM      9  C   UNL     1       1.303  10.269  18.438  0.00  0.00    +0.000 A 
ATOM     10  C   UNL     1       0.688   9.946  19.640  0.00  0.00    +0.000 A 
ATOM     11  C   UNL     1       0.963   8.720  20.248  0.00  0.00    +0.000 A 
ATOM     12  C   UNL     1       1.831   7.802  19.665  0.00  0.00    +0.000 A 
ATOM     13  N   UNL     1       2.055   6.613  20.249  0.00  0.00    +0.000 NA
ATOM     14  C   UNL     1       2.855   5.712  19.625  0.00  0.00    +0.000 A 
ENDROOT
BRANCH   4  15
ATOM     15  C   UNL     1       4.952   5.304  16.452  0.00  0.00    +0.000 C 
ATOM     16  N   UNL     1       5.566   6.501  16.236  0.00  0.00    +0.000 N 
ATOM     17  O   UNL     1       4.958   4.443  15.577  0.00  0.00    +0.000 OA
ATOM     18  H   UNL     1       5.545   7.230  16.942  0.00  0.00    +0.000 HD
ATOM     19  H   UNL     1       6.000   6.681  15.343  0.00  0.00    +0.000 HD
ENDBRANCH   4  15
BRANCH   1  21
ATOM     20  C   UNL     1       1.835   2.858  21.481  0.00  0.00    +0.000 C 
ATOM     21  O   UNL     1       2.394   4.161  21.359  0.00  0.00    +0.000 OA
ENDBRANCH   1  21
TORSDOF 2
ENDMDL
