MODEL 1
REMARK VINA RESULT:      -7.7      0.000      0.000
REMARK  Name = 
REMARK  6 active torsions:
REMARK  status: ('A' for Active; 'I' for Inactive)
REMARK    1  A    between atoms: C_2  and  C_3
REMARK    2  A    between atoms: C_3  and  C_4
REMARK    3  A    between atoms: C_4  and  N_5
REMARK    4  A    between atoms: C_8  and  C_9
REMARK    5  A    between atoms: C_9  and  C_10
REMARK    6  A    between atoms: N_17  and  C_18
REMARK                            x       y       z     vdW  Elec       q    Type
REMARK                         _______ _______ _______ _____ _____    ______ ____
ROOT
ATOM      1  N   UNL     1       5.949   5.871  16.790  0.00  0.00    +0.000 NA
ATOM      2  C   UNL     1       6.019   4.416  17.034  0.00  0.00    +0.000 C 
ATOM      3  C   UNL     1       4.661   3.752  16.837  0.00  0.00    +0.000 C 
ATOM      4  C   UNL     1       3.608   4.341  17.780  0.00  0.00    +0.000 C 
ATOM      5  C   UNL     1       3.554   5.854  17.521  0.00  0.00    +0.000 C 
ATOM      6  C   UNL     1       4.932   6.515  17.643  0.00  0.00    +0.000 C 
ENDROOT
BRANCH   1   7
ATOM      7  C   UNL     1       7.265   6.502  17.029  0.00  0.00    +0.000 C 
BRANCH   7   8
ATOM      8  C   UNL     1       7.172   8.023  17.160  0.00  0.00    +0.000 C 
BRANCH   8  10
ATOM      9  O   UNL     1       8.738   7.796  18.963  0.00  0.00    +0.000 OA
ATOM     10  C   UNL     1       8.173   8.540  18.166  0.00  0.00    +0.000 C 
ATOM     11  N   UNL     1       8.390   9.902  18.027  0.00  0.00    +0.000 N 
ATOM     12  H   UNL     1       7.704  10.429  17.503  0.00  0.00    +0.000 HD
BRANCH  11  13
ATOM     13  C   UNL     1       9.388  10.645  18.685  0.00  0.00    +0.000 A 
ATOM     14  C   UNL     1       9.376  10.879  20.063  0.00  0.00    +0.000 A 
ATOM     15  C   UNL     1      10.394  11.616  20.667  0.00  0.00    +0.000 A 
ATOM     16  C   UNL     1      11.434  12.129  19.896  0.00  0.00    +0.000 A 
ATOM     17  C   UNL     1      11.464  11.890  18.524  0.00  0.00    +0.000 A 
ATOM     18  C   UNL     1      10.451  11.138  17.921  0.00  0.00    +0.000 A 
ENDBRANCH  11  13
ENDBRANCH   8  10
ENDBRANCH   7   8
ENDBRANCH   1   7
BRANCH   4  19
ATOM     19  C   UNL     1       3.879   4.041  19.273  0.00  0.00    +0.000 C 
BRANCH  19  20
ATOM     20  C   UNL     1       2.672   3.579  20.014  0.00  0.00    +0.000 A 
ATOM     21  C   UNL     1       1.340   3.759  19.714  0.00  0.00    +0.000 A 
ATOM     22  N   UNL     1       0.656   3.127  20.715  0.00  0.00    +0.000 N 
ATOM     23  C   UNL     1       1.580   2.597  21.572  0.00  0.00    +0.000 A 
ATOM     24  N   UNL     1       2.802   2.860  21.181  0.00  0.00    +0.000 NA
ATOM     25  H   UNL     1      -0.346   3.057  20.809  0.00  0.00    +0.000 HD
ENDBRANCH  19  20
ENDBRANCH   4  19
TORSDOF 6
ENDMDL
MODEL 2
REMARK VINA RESULT:      -7.5      1.405      2.040
REMARK  Name = 
REMARK  6 active torsions:
REMARK  status: ('A' for Active; 'I' for Inactive)
REMARK    1  A    between atoms: C_2  and  C_3
REMARK    2  A    between atoms: C_3  and  C_4
REMARK    3  A    between atoms: C_4  and  N_5
REMARK    4  A    between atoms: C_8  and  C_9
REMARK    5  A    between atoms: C_9  and  C_10
REMARK    6  A    between atoms: N_17  and  C_18
REMARK                            x       y       z     vdW  Elec       q    Type
REMARK                         _______ _______ _______ _____ _____    ______ ____
ROOT
ATOM      1  N   UNL     1       6.644   6.086  17.220  0.00  0.00    +0.000 NA
ATOM      2  C   UNL     1       6.029   5.749  18.519  0.00  0.00    +0.000 C 
ATOM      3  C   UNL     1       5.503   4.319  18.533  0.00  0.00    +0.000 C 
ATOM      4  C   UNL     1       4.454   4.098  17.441  0.00  0.00    +0.000 C 
ATOM      5  C   UNL     1       5.105   4.461  16.098  0.00  0.00    +0.000 C 
ATOM      6  C   UNL     1       5.703   5.873  16.104  0.00  0.00    +0.000 C 
ENDROOT
BRANCH   1   7
ATOM      7  C   UNL     1       7.107   7.490  17.212  0.00  0.00    +0.000 C 
BRANCH   7   8
ATOM      8  C   UNL     1       8.141   7.774  18.303  0.00  0.00    +0.000 C 
BRANCH   8  10
ATOM      9  O   UNL     1       7.841  10.079  17.710  0.00  0.00    +0.000 OA
ATOM     10  C   UNL     1       8.441   9.253  18.391  0.00  0.00    +0.000 C 
ATOM     11  N   UNL     1       9.406   9.529  19.347  0.00  0.00    +0.000 N 
ATOM     12  H   UNL     1       9.978   8.757  19.664  0.00  0.00    +0.000 HD
BRANCH  11  13
ATOM     13  C   UNL     1       9.774  10.811  19.795  0.00  0.00    +0.000 A 
ATOM     14  C   UNL     1      10.627  11.652  19.074  0.00  0.00    +0.000 A 
ATOM     15  C   UNL     1      10.953  12.917  19.561  0.00  0.00    +0.000 A 
ATOM     16  C   UNL     1      10.430  13.353  20.775  0.00  0.00    +0.000 A 
ATOM     17  C   UNL     1       9.567  12.530  21.495  0.00  0.00    +0.000 A 
ATOM     18  C   UNL     1       9.228  11.267  20.999  0.00  0.00    +0.000 A 
ENDBRANCH  11  13
ENDBRANCH   8  10
ENDBRANCH   7   8
ENDBRANCH   1   7
BRANCH   4  19
ATOM     19  C   UNL     1       3.151   4.901  17.663  0.00  0.00    +0.000 C 
BRANCH  19  20
ATOM     20  C   UNL     1       2.149   4.188  18.502  0.00  0.00    +0.000 A 
ATOM     21  C   UNL     1       1.705   4.480  19.772  0.00  0.00    +0.000 A 
ATOM     22  N   UNL     1       0.783   3.513  20.064  0.00  0.00    +0.000 N 
ATOM     23  C   UNL     1       0.703   2.683  18.982  0.00  0.00    +0.000 A 
ATOM     24  N   UNL     1       1.519   3.057  18.028  0.00  0.00    +0.000 NA
ATOM     25  H   UNL     1       0.253   3.425  20.918  0.00  0.00    +0.000 HD
ENDBRANCH  19  20
ENDBRANCH   4  19
TORSDOF 6
ENDMDL
MODEL 3
REMARK VINA RESULT:      -7.5      4.373      7.523
REMARK  Name = 
REMARK  6 active torsions:
REMARK  status: ('A' for Active; 'I' for Inactive)
REMARK    1  A    between atoms: C_2  and  C_3
REMARK    2  A    between atoms: C_3  and  C_4
REMARK    3  A    between atoms: C_4  and  N_5
REMARK    4  A    between atoms: C_8  and  C_9
REMARK    5  A    between atoms: C_9  and  C_10
REMARK    6  A    between atoms: N_17  and  C_18
REMARK                            x       y       z     vdW  Elec       q    Type
REMARK                         _______ _______ _______ _____ _____    ______ ____
ROOT
ATOM      1  N   UNL     1       4.700   4.770  18.645  0.00  0.00    +0.000 NA
ATOM      2  C   UNL     1       6.140   5.029  18.843  0.00  0.00    +0.000 C 
ATOM      3  C   UNL     1       6.619   6.200  17.993  0.00  0.00    +0.000 C 
ATOM      4  C   UNL     1       6.384   5.943  16.502  0.00  0.00    +0.000 C 
ATOM      5  C   UNL     1       4.884   5.668  16.314  0.00  0.00    +0.000 C 
ATOM      6  C   UNL     1       4.381   4.540  17.223  0.00  0.00    +0.000 C 
ENDROOT
BRANCH   1   7
ATOM      7  C   UNL     1       4.266   3.604  19.443  0.00  0.00    +0.000 C 
BRANCH   7   8
ATOM      8  C   UNL     1       3.066   3.918  20.338  0.00  0.00    +0.000 C 
BRANCH   8  10
ATOM      9  O   UNL     1       1.217   4.793  19.086  0.00  0.00    +0.000 OA
ATOM     10  C   UNL     1       2.225   5.025  19.747  0.00  0.00    +0.000 C 
ATOM     11  N   UNL     1       2.706   6.280  20.090  0.00  0.00    +0.000 N 
ATOM     12  H   UNL     1       3.656   6.334  20.432  0.00  0.00    +0.000 HD
BRANCH  11  13
ATOM     13  C   UNL     1       2.051   7.502  19.851  0.00  0.00    +0.000 A 
ATOM     14  C   UNL     1       2.108   8.166  18.622  0.00  0.00    +0.000 A 
ATOM     15  C   UNL     1       1.434   9.373  18.436  0.00  0.00    +0.000 A 
ATOM     16  C   UNL     1       0.698   9.928  19.479  0.00  0.00    +0.000 A 
ATOM     17  C   UNL     1       0.622   9.267  20.703  0.00  0.00    +0.000 A 
ATOM     18  C   UNL     1       1.285   8.049  20.885  0.00  0.00    +0.000 A 
ENDBRANCH  11  13
ENDBRANCH   8  10
ENDBRANCH   7   8
ENDBRANCH   1   7
BRANCH   4  19
ATOM     19  C   UNL     1       7.238   4.786  15.932  0.00  0.00    +0.000 C 
BRANCH  19  20
ATOM     20  C   UNL     1       7.144   4.654  14.452  0.00  0.00    +0.000 A 
ATOM     21  C   UNL     1       6.388   3.785  13.697  0.00  0.00    +0.000 A 
ATOM     22  N   UNL     1       6.671   4.095  12.396  0.00  0.00    +0.000 N 
ATOM     23  C   UNL     1       7.573   5.122  12.406  0.00  0.00    +0.000 A 
ATOM     24  N   UNL     1       7.885   5.475  13.629  0.00  0.00    +0.000 NA
ATOM     25  H   UNL     1       6.286   3.655  11.575  0.00  0.00    +0.000 HD
ENDBRANCH  19  20
ENDBRANCH   4  19
TORSDOF 6
ENDMDL
MODEL 4
REMARK VINA RESULT:      -7.4      1.761      2.464
REMARK  Name = 
REMARK  6 active torsions:
REMARK  status: ('A' for Active; 'I' for Inactive)
REMARK    1  A    between atoms: C_2  and  C_3
REMARK    2  A    between atoms: C_3  and  C_4
REMARK    3  A    between atoms: C_4  and  N_5
REMARK    4  A    between atoms: C_8  and  C_9
REMARK    5  A    between atoms: C_9  and  C_10
REMARK    6  A    between atoms: N_17  and  C_18
REMARK                            x       y       z     vdW  Elec       q    Type
REMARK                         _______ _______ _______ _____ _____    ______ ____
ROOT
ATOM      1  N   UNL     1       6.784   6.911  16.800  0.00  0.00    +0.000 NA
ATOM      2  C   UNL     1       7.407   5.867  17.639  0.00  0.00    +0.000 C 
ATOM      3  C   UNL     1       7.173   4.476  17.062  0.00  0.00    +0.000 C 
ATOM      4  C   UNL     1       5.679   4.162  16.945  0.00  0.00    +0.000 C 
ATOM      5  C   UNL     1       5.045   5.261  16.078  0.00  0.00    +0.000 C 
ATOM      6  C   UNL     1       5.342   6.667  16.613  0.00  0.00    +0.000 C 
ENDROOT
BRANCH   1   7
ATOM      7  C   UNL     1       6.984   8.248  17.400  0.00  0.00    +0.000 C 
BRANCH   7   8
ATOM      8  C   UNL     1       8.309   8.361  18.155  0.00  0.00    +0.000 C 
BRANCH   8  10
ATOM      9  O   UNL     1       8.343  10.698  17.615  0.00  0.00    +0.000 OA
ATOM     10  C   UNL     1       8.674   9.808  18.393  0.00  0.00    +0.000 C 
ATOM     11  N   UNL     1       9.354   9.981  19.589  0.00  0.00    +0.000 N 
ATOM     12  H   UNL     1       9.762   9.158  20.012  0.00  0.00    +0.000 HD
BRANCH  11  13
ATOM     13  C   UNL     1       9.670  11.217  20.181  0.00  0.00    +0.000 A 
ATOM     14  C   UNL     1      10.661  12.068  19.681  0.00  0.00    +0.000 A 
ATOM     15  C   UNL     1      10.930  13.287  20.302  0.00  0.00    +0.000 A 
ATOM     16  C   UNL     1      10.211  13.666  21.433  0.00  0.00    +0.000 A 
ATOM     17  C   UNL     1       9.211  12.833  21.931  0.00  0.00    +0.000 A 
ATOM     18  C   UNL     1       8.931  11.618  21.299  0.00  0.00    +0.000 A 
ENDBRANCH  11  13
ENDBRANCH   8  10
ENDBRANCH   7   8
ENDBRANCH   1   7
BRANCH   4  19
ATOM     19  C   UNL     1       4.962   4.048  18.311  0.00  0.00    +0.000 C 
BRANCH  19  20
ATOM     20  C   UNL     1       3.687   3.281  18.250  0.00  0.00    +0.000 A 
ATOM     21  C   UNL     1       3.484   1.938  18.025  0.00  0.00    +0.000 A 
ATOM     22  N   UNL     1       2.129   1.763  18.082  0.00  0.00    +0.000 N 
ATOM     23  C   UNL     1       1.568   2.983  18.333  0.00  0.00    +0.000 A 
ATOM     24  N   UNL     1       2.479   3.919  18.431  0.00  0.00    +0.000 NA
ATOM     25  H   UNL     1       1.630   0.895  17.964  0.00  0.00    +0.000 HD
ENDBRANCH  19  20
ENDBRANCH   4  19
TORSDOF 6
ENDMDL
MODEL 5
REMARK VINA RESULT:      -7.4      3.808      5.790
REMARK  Name = 
REMARK  6 active torsions:
REMARK  status: ('A' for Active; 'I' for Inactive)
REMARK    1  A    between atoms: C_2  and  C_3
REMARK    2  A    between atoms: C_3  and  C_4
REMARK    3  A    between atoms: C_4  and  N_5
REMARK    4  A    between atoms: C_8  and  C_9
REMARK    5  A    between atoms: C_9  and  C_10
REMARK    6  A    between atoms: N_17  and  C_18
REMARK                            x       y       z     vdW  Elec       q    Type
REMARK                         _______ _______ _______ _____ _____    ______ ____
ROOT
ATOM      1  N   UNL     1       4.642   6.583  17.310  0.00  0.00    +0.000 NA
ATOM      2  C   UNL     1       4.462   5.279  17.980  0.00  0.00    +0.000 C 
ATOM      3  C   UNL     1       3.037   4.763  17.821  0.00  0.00    +0.000 C 
ATOM      4  C   UNL     1       2.017   5.743  18.408  0.00  0.00    +0.000 C 
ATOM      5  C   UNL     1       2.224   7.094  17.708  0.00  0.00    +0.000 C 
ATOM      6  C   UNL     1       3.674   7.582  17.800  0.00  0.00    +0.000 C 
ENDROOT
BRANCH   1   7
ATOM      7  C   UNL     1       6.017   7.086  17.514  0.00  0.00    +0.000 C 
BRANCH   7   8
ATOM      8  C   UNL     1       7.001   5.976  17.887  0.00  0.00    +0.000 C 
BRANCH   8  10
ATOM      9  O   UNL     1       8.058   4.137  16.768  0.00  0.00    +0.000 OA
ATOM     10  C   UNL     1       7.360   5.143  16.679  0.00  0.00    +0.000 C 
ATOM     11  N   UNL     1       6.768   5.627  15.522  0.00  0.00    +0.000 N 
ATOM     12  H   UNL     1       6.418   6.575  15.543  0.00  0.00    +0.000 HD
BRANCH  11  13
ATOM     13  C   UNL     1       6.757   4.979  14.274  0.00  0.00    +0.000 A 
ATOM     14  C   UNL     1       7.686   5.256  13.266  0.00  0.00    +0.000 A 
ATOM     15  C   UNL     1       7.636   4.579  12.048  0.00  0.00    +0.000 A 
ATOM     16  C   UNL     1       6.653   3.617  11.826  0.00  0.00    +0.000 A 
ATOM     17  C   UNL     1       5.733   3.321  12.828  0.00  0.00    +0.000 A 
ATOM     18  C   UNL     1       5.793   3.990  14.055  0.00  0.00    +0.000 A 
ENDBRANCH  11  13
ENDBRANCH   8  10
ENDBRANCH   7   8
ENDBRANCH   1   7
BRANCH   4  19
ATOM     19  C   UNL     1       2.116   5.891  19.945  0.00  0.00    +0.000 C 
BRANCH  19  20
ATOM     20  C   UNL     1       1.986   4.600  20.675  0.00  0.00    +0.000 A 
ATOM     21  C   UNL     1       2.861   4.000  21.554  0.00  0.00    +0.000 A 
ATOM     22  N   UNL     1       2.249   2.839  21.936  0.00  0.00    +0.000 N 
ATOM     23  C   UNL     1       1.048   2.774  21.287  0.00  0.00    +0.000 A 
ATOM     24  N   UNL     1       0.865   3.816  20.513  0.00  0.00    +0.000 NA
ATOM     25  H   UNL     1       2.610   2.153  22.582  0.00  0.00    +0.000 HD
ENDBRANCH  19  20
ENDBRANCH   4  19
TORSDOF 6
ENDMDL
MODEL 6
REMARK VINA RESULT:      -7.4      1.538      1.923
REMARK  Name = 
REMARK  6 active torsions:
REMARK  status: ('A' for Active; 'I' for Inactive)
REMARK    1  A    between atoms: C_2  and  C_3
REMARK    2  A    between atoms: C_3  and  C_4
REMARK    3  A    between atoms: C_4  and  N_5
REMARK    4  A    between atoms: C_8  and  C_9
REMARK    5  A    between atoms: C_9  and  C_10
REMARK    6  A    between atoms: N_17  and  C_18
REMARK                            x       y       z     vdW  Elec       q    Type
REMARK                         _______ _______ _______ _____ _____    ______ ____
ROOT
ATOM      1  N   UNL     1       6.619   6.304  17.184  0.00  0.00    +0.000 NA
ATOM      2  C   UNL     1       6.095   5.640  18.395  0.00  0.00    +0.000 C 
ATOM      3  C   UNL     1       5.762   4.177  18.128  0.00  0.00    +0.000 C 
ATOM      4  C   UNL     1       4.718   4.033  17.018  0.00  0.00    +0.000 C 
ATOM      5  C   UNL     1       5.273   4.735  15.771  0.00  0.00    +0.000 C 
ATOM      6  C   UNL     1       5.681   6.187  16.052  0.00  0.00    +0.000 C 
ENDROOT
BRANCH   1   7
ATOM      7  C   UNL     1       6.893   7.732  17.452  0.00  0.00    +0.000 C 
BRANCH   7   8
ATOM      8  C   UNL     1       8.237   7.953  18.146  0.00  0.00    +0.000 C 
BRANCH   8  10
ATOM      9  O   UNL     1       7.958  10.284  17.655  0.00  0.00    +0.000 OA
ATOM     10  C   UNL     1       8.512   9.426  18.337  0.00  0.00    +0.000 C 
ATOM     11  N   UNL     1       9.394   9.658  19.381  0.00  0.00    +0.000 N 
ATOM     12  H   UNL     1       9.948   8.874  19.701  0.00  0.00    +0.000 HD
BRANCH  11  13
ATOM     13  C   UNL     1       9.710  10.916  19.925  0.00  0.00    +0.000 A 
ATOM     14  C   UNL     1       9.106  11.417  21.083  0.00  0.00    +0.000 A 
ATOM     15  C   UNL     1       9.460  12.668  21.584  0.00  0.00    +0.000 A 
ATOM     16  C   UNL     1      10.422  13.433  20.930  0.00  0.00    +0.000 A 
ATOM     17  C   UNL     1      11.042  12.939  19.785  0.00  0.00    +0.000 A 
ATOM     18  C   UNL     1      10.697  11.677  19.291  0.00  0.00    +0.000 A 
ENDBRANCH  11  13
ENDBRANCH   8  10
ENDBRANCH   7   8
ENDBRANCH   1   7
BRANCH   4  19
ATOM     19  C   UNL     1       3.328   4.594  17.401  0.00  0.00    +0.000 C 
BRANCH  19  20
ATOM     20  C   UNL     1       2.437   3.588  18.042  0.00  0.00    +0.000 A 
ATOM     21  C   UNL     1       2.349   2.232  17.822  0.00  0.00    +0.000 A 
ATOM     22  N   UNL     1       1.381   1.789  18.680  0.00  0.00    +0.000 N 
ATOM     23  C   UNL     1       0.924   2.872  19.377  0.00  0.00    +0.000 A 
ATOM     24  N   UNL     1       1.534   3.972  19.010  0.00  0.00    +0.000 NA
ATOM     25  H   UNL     1       1.061   0.839  18.787  0.00  0.00    +0.000 HD
ENDBRANCH  19  20
ENDBRANCH   4  19
TORSDOF 6
ENDMDL
MODEL 7
REMARK VINA RESULT:      -7.4      4.608      7.514
REMARK  Name = 
REMARK  6 active torsions:
REMARK  status: ('A' for Active; 'I' for Inactive)
REMARK    1  A    between atoms: C_2  and  C_3
REMARK    2  A    between atoms: C_3  and  C_4
REMARK    3  A    between atoms: C_4  and  N_5
REMARK    4  A    between atoms: C_8  and  C_9
REMARK    5  A    between atoms: C_9  and  C_10
REMARK    6  A    between atoms: N_17  and  C_18
REMARK                            x       y       z     vdW  Elec       q    Type
REMARK                         _______ _______ _______ _____ _____    ______ ____
ROOT
ATOM      1  N   UNL     1       4.488   4.751  18.753  0.00  0.00    +0.000 NA
ATOM      2  C   UNL     1       5.947   4.527  18.813  0.00  0.00    +0.000 C 
ATOM      3  C   UNL     1       6.705   5.575  18.007  0.00  0.00    +0.000 C 
ATOM      4  C   UNL     1       6.284   5.563  16.535  0.00  0.00    +0.000 C 
ATOM      5  C   UNL     1       4.765   5.788  16.491  0.00  0.00    +0.000 C 
ATOM      6  C   UNL     1       4.001   4.783  17.361  0.00  0.00    +0.000 C 
ENDROOT
BRANCH   1   7
ATOM      7  C   UNL     1       3.769   3.700  19.503  0.00  0.00    +0.000 C 
BRANCH   7   8
ATOM      8  C   UNL     1       3.079   4.240  20.756  0.00  0.00    +0.000 C 
BRANCH   8  10
ATOM      9  O   UNL     1       0.841   5.035  20.415  0.00  0.00    +0.000 OA
ATOM     10  C   UNL     1       2.044   5.281  20.397  0.00  0.00    +0.000 C 
ATOM     11  N   UNL     1       2.622   6.508  20.111  0.00  0.00    +0.000 N 
ATOM     12  H   UNL     1       3.611   6.517  19.906  0.00  0.00    +0.000 HD
BRANCH  11  13
ATOM     13  C   UNL     1       1.927   7.717  19.920  0.00  0.00    +0.000 A 
ATOM     14  C   UNL     1       1.252   8.377  20.952  0.00  0.00    +0.000 A 
ATOM     15  C   UNL     1       0.585   9.577  20.710  0.00  0.00    +0.000 A 
ATOM     16  C   UNL     1       0.586  10.129  19.431  0.00  0.00    +0.000 A 
ATOM     17  C   UNL     1       1.268   9.488  18.399  0.00  0.00    +0.000 A 
ATOM     18  C   UNL     1       1.949   8.292  18.646  0.00  0.00    +0.000 A 
ENDBRANCH  11  13
ENDBRANCH   8  10
ENDBRANCH   7   8
ENDBRANCH   1   7
BRANCH   4  19
ATOM     19  C   UNL     1       6.676   4.265  15.790  0.00  0.00    +0.000 C 
BRANCH  19  20
ATOM     20  C   UNL     1       6.954   4.473  14.342  0.00  0.00    +0.000 A 
ATOM     21  C   UNL     1       6.442   3.811  13.248  0.00  0.00    +0.000 A 
ATOM     22  N   UNL     1       7.023   4.404  12.162  0.00  0.00    +0.000 N 
ATOM     23  C   UNL     1       7.852   5.386  12.625  0.00  0.00    +0.000 A 
ATOM     24  N   UNL     1       7.839   5.447  13.934  0.00  0.00    +0.000 NA
ATOM     25  H   UNL     1       6.869   4.167  11.194  0.00  0.00    +0.000 HD
ENDBRANCH  19  20
ENDBRANCH   4  19
TORSDOF 6
ENDMDL
MODEL 8
REMARK VINA RESULT:      -7.3      1.893      2.576
REMARK  Name = 
REMARK  6 active torsions:
REMARK  status: ('A' for Active; 'I' for Inactive)
REMARK    1  A    between atoms: C_2  and  C_3
REMARK    2  A    between atoms: C_3  and  C_4
REMARK    3  A    between atoms: C_4  and  N_5
REMARK    4  A    between atoms: C_8  and  C_9
REMARK    5  A    between atoms: C_9  and  C_10
REMARK    6  A    between atoms: N_17  and  C_18
REMARK                            x       y       z     vdW  Elec       q    Type
REMARK                         _______ _______ _______ _____ _____    ______ ____
ROOT
ATOM      1  N   UNL     1       7.310   7.149  17.126  0.00  0.00    +0.000 NA
ATOM      2  C   UNL     1       7.692   6.127  18.122  0.00  0.00    +0.000 C 
ATOM      3  C   UNL     1       7.400   4.720  17.616  0.00  0.00    +0.000 C 
ATOM      4  C   UNL     1       5.915   4.537  17.294  0.00  0.00    +0.000 C 
ATOM      5  C   UNL     1       5.533   5.611  16.265  0.00  0.00    +0.000 C 
ATOM      6  C   UNL     1       5.893   7.024  16.737  0.00  0.00    +0.000 C 
ENDROOT
BRANCH   1   7
ATOM      7  C   UNL     1       7.559   8.508  17.653  0.00  0.00    +0.000 C 
BRANCH   7   8
ATOM      8  C   UNL     1       8.653   8.533  18.722  0.00  0.00    +0.000 C 
BRANCH   8  10
ATOM      9  O   UNL     1       9.195  10.361  20.176  0.00  0.00    +0.000 OA
ATOM     10  C   UNL     1       9.080   9.950  19.025  0.00  0.00    +0.000 C 
ATOM     11  N   UNL     1       9.362  10.664  17.871  0.00  0.00    +0.000 N 
ATOM     12  H   UNL     1       9.008  10.293  16.999  0.00  0.00    +0.000 HD
BRANCH  11  13
ATOM     13  C   UNL     1       9.952  11.941  17.820  0.00  0.00    +0.000 A 
ATOM     14  C   UNL     1      11.326  12.136  17.652  0.00  0.00    +0.000 A 
ATOM     15  C   UNL     1      11.859  13.423  17.601  0.00  0.00    +0.000 A 
ATOM     16  C   UNL     1      11.021  14.529  17.718  0.00  0.00    +0.000 A 
ATOM     17  C   UNL     1       9.648  14.347  17.869  0.00  0.00    +0.000 A 
ATOM     18  C   UNL     1       9.112  13.056  17.906  0.00  0.00    +0.000 A 
ENDBRANCH  11  13
ENDBRANCH   8  10
ENDBRANCH   7   8
ENDBRANCH   1   7
BRANCH   4  19
ATOM     19  C   UNL     1       4.998   4.607  18.538  0.00  0.00    +0.000 C 
BRANCH  19  20
ATOM     20  C   UNL     1       3.645   4.030  18.311  0.00  0.00    +0.000 A 
ATOM     21  C   UNL     1       2.416   4.653  18.314  0.00  0.00    +0.000 A 
ATOM     22  N   UNL     1       1.510   3.665  18.043  0.00  0.00    +0.000 N 
ATOM     23  C   UNL     1       2.207   2.500  17.891  0.00  0.00    +0.000 A 
ATOM     24  N   UNL     1       3.493   2.684  18.055  0.00  0.00    +0.000 NA
ATOM     25  H   UNL     1       0.510   3.772  17.966  0.00  0.00    +0.000 HD
ENDBRANCH  19  20
ENDBRANCH   4  19
TORSDOF 6
ENDMDL
MODEL 9
REMARK VINA RESULT:      -7.3      3.924      5.977
REMARK  Name = 
REMARK  6 active torsions:
REMARK  status: ('A' for Active; 'I' for Inactive)
REMARK    1  A    between atoms: C_2  and  C_3
REMARK    2  A    between atoms: C_3  and  C_4
REMARK    3  A    between atoms: C_4  and  N_5
REMARK    4  A    between atoms: C_8  and  C_9
REMARK    5  A    between atoms: C_9  and  C_10
REMARK    6  A    between atoms: N_17  and  C_18
REMARK                            x       y       z     vdW  Elec       q    Type
REMARK                         _______ _______ _______ _____ _____    ______ ____
ROOT
ATOM      1  N   UNL     1       5.001   5.944  19.176  0.00  0.00    +0.000 NA
ATOM      2  C   UNL     1       4.454   6.510  17.927  0.00  0.00    +0.000 C 
ATOM      3  C   UNL     1       3.045   7.053  18.131  0.00  0.00    +0.000 C 
ATOM      4  C   UNL     1       2.088   5.962  18.616  0.00  0.00    +0.000 C 
ATOM      5  C   UNL     1       2.675   5.378  19.910  0.00  0.00    +0.000 C 
ATOM      6  C   UNL     1       4.120   4.898  19.729  0.00  0.00    +0.000 C 
ENDROOT
BRANCH   1   7
ATOM      7  C   UNL     1       6.349   5.382  18.947  0.00  0.00    +0.000 C 
BRANCH   7   8
ATOM      8  C   UNL     1       7.115   6.121  17.848  0.00  0.00    +0.000 C 
BRANCH   8  10
ATOM      9  O   UNL     1       8.007   4.156  16.802  0.00  0.00    +0.000 OA
ATOM     10  C   UNL     1       7.390   5.210  16.675  0.00  0.00    +0.000 C 
ATOM     11  N   UNL     1       6.823   5.688  15.504  0.00  0.00    +0.000 N 
ATOM     12  H   UNL     1       6.550   6.661  15.486  0.00  0.00    +0.000 HD
BRANCH  11  13
ATOM     13  C   UNL     1       6.745   4.989  14.285  0.00  0.00    +0.000 A 
ATOM     14  C   UNL     1       7.664   5.166  13.247  0.00  0.00    +0.000 A 
ATOM     15  C   UNL     1       7.544   4.442  12.061  0.00  0.00    +0.000 A 
ATOM     16  C   UNL     1       6.502   3.533  11.903  0.00  0.00    +0.000 A 
ATOM     17  C   UNL     1       5.590   3.336  12.937  0.00  0.00    +0.000 A 
ATOM     18  C   UNL     1       5.719   4.051  14.132  0.00  0.00    +0.000 A 
ENDBRANCH  11  13
ENDBRANCH   8  10
ENDBRANCH   7   8
ENDBRANCH   1   7
BRANCH   4  19
ATOM     19  C   UNL     1       1.835   4.851  17.569  0.00  0.00    +0.000 C 
BRANCH  19  20
ATOM     20  C   UNL     1       1.753   3.487  18.160  0.00  0.00    +0.000 A 
ATOM     21  C   UNL     1       2.540   2.382  17.922  0.00  0.00    +0.000 A 
ATOM     22  N   UNL     1       2.039   1.400  18.731  0.00  0.00    +0.000 N 
ATOM     23  C   UNL     1       0.984   1.933  19.417  0.00  0.00    +0.000 A 
ATOM     24  N   UNL     1       0.781   3.185  19.089  0.00  0.00    +0.000 NA
ATOM     25  H   UNL     1       2.382   0.455  18.813  0.00  0.00    +0.000 HD
ENDBRANCH  19  20
ENDBRANCH   4  19
TORSDOF 6
ENDMDL
