MODEL 1
REMARK VINA RESULT:      -6.9      0.000      0.000
REMARK  Name = 
REMARK  10 active torsions:
REMARK  status: ('A' for Active; 'I' for Inactive)
REMARK    1  A    between atoms: C_1  and  N_2
REMARK    2  A    between atoms: N_2  and  C_3
REMARK    3  A    between atoms: N_2  and  C_14
REMARK    4  A    between atoms: C_3  and  C_4
REMARK    5  A    between atoms: N_6  and  C_7
REMARK    6  A    between atoms: C_14  and  C_15
REMARK    7  A    between atoms: C_15  and  O_16
REMARK    8  A    between atoms: C_15  and  C_17
REMARK    9  A    between atoms: C_17  and  N_18
REMARK   10  A    between atoms: N_27  and  C_28
REMARK                            x       y       z     vdW  Elec       q    Type
REMARK                         _______ _______ _______ _____ _____    ______ ____
ROOT
ATOM      1  C   UNL     1       1.117   9.253  18.381  0.00  0.00    +0.000 C 
ENDROOT
BRANCH   1   2
ATOM      2  O   UNL     1       1.795  10.002  17.402  0.00  0.00    +0.000 OA
ATOM      3  H   UNL     1       1.412  10.916  17.395  0.00  0.00    +0.000 HD
ENDBRANCH   1   2
BRANCH   1   4
ATOM      4  C   UNL     1       0.009  10.071  19.108  0.00  0.00    +0.000 C 
BRANCH   4   6
ATOM      5  C   UNL     1      -1.647   9.927  17.359  0.00  0.00    +0.000 C 
ATOM      6  N   UNL     1      -0.868  10.857  18.201  0.00  0.00    +0.000 NA
BRANCH   6   7
ATOM      7  C   UNL     1      -1.753  11.797  18.919  0.00  0.00    +0.000 C 
BRANCH   7   8
ATOM      8  C   UNL     1      -1.029  13.035  19.350  0.00  0.00    +0.000 C 
ATOM      9  O   UNL     1      -0.969  13.273  20.544  0.00  0.00    +0.000 OA
ATOM     10  N   UNL     1      -0.541  13.907  18.415  0.00  0.00    +0.000 N 
ATOM     11  H   UNL     1      -0.723  13.668  17.431  0.00  0.00    +0.000 HD
BRANCH  10  12
ATOM     12  C   UNL     1       0.107  15.157  18.691  0.00  0.00    +0.000 A 
ATOM     13  C   UNL     1      -0.608  16.374  18.825  0.00  0.00    +0.000 A 
ATOM     14  C   UNL     1       0.059  17.572  19.072  0.00  0.00    +0.000 A 
ATOM     15  C   UNL     1       1.444  17.592  19.195  0.00  0.00    +0.000 A 
ATOM     16  C   UNL     1       2.170  16.407  19.082  0.00  0.00    +0.000 A 
ATOM     17  C   UNL     1       1.515  15.194  18.839  0.00  0.00    +0.000 A 
ATOM     18 CL   UNL     1       2.516  13.749  18.689  0.00  0.00    +0.000 Cl
ENDBRANCH  10  12
ENDBRANCH   7   8
ENDBRANCH   6   7
ENDBRANCH   4   6
ENDBRANCH   1   4
BRANCH   1  19
ATOM     19  C   UNL     1       2.168   8.720  19.375  0.00  0.00    +0.000 C 
BRANCH  19  20
ATOM     20  N   UNL     1       2.381   7.259  19.204  0.00  0.00    +0.000 N 
ATOM     21  C   UNL     1       1.779   6.369  20.070  0.00  0.00    +0.000 A 
ATOM     22  O   UNL     1       1.086   6.782  20.988  0.00  0.00    +0.000 OA
ATOM     23  C   UNL     1       1.963   4.990  19.915  0.00  0.00    +0.000 A 
ATOM     24  C   UNL     1       1.328   4.085  20.793  0.00  0.00    +0.000 A 
ATOM     25  C   UNL     1       1.518   2.716  20.656  0.00  0.00    +0.000 A 
ATOM     26  C   UNL     1       2.339   2.228  19.648  0.00  0.00    +0.000 A 
ATOM     27  C   UNL     1       2.970   3.103  18.764  0.00  0.00    +0.000 A 
ATOM     28  C   UNL     1       2.795   4.512  18.870  0.00  0.00    +0.000 A 
ATOM     29  N   UNL     1       3.394   5.416  18.011  0.00  0.00    +0.000 N 
ATOM     30  C   UNL     1       4.274   5.030  16.885  0.00  0.00    +0.000 C 
ATOM     31  C   UNL     1       3.180   6.779  18.181  0.00  0.00    +0.000 A 
ATOM     32  O   UNL     1       3.711   7.568  17.409  0.00  0.00    +0.000 OA
ENDBRANCH  19  20
ENDBRANCH   1  19
TORSDOF 8
ENDMDL
MODEL 2
REMARK VINA RESULT:      -6.9      2.873      3.652
REMARK  Name = 
REMARK  10 active torsions:
REMARK  status: ('A' for Active; 'I' for Inactive)
REMARK    1  A    between atoms: C_1  and  N_2
REMARK    2  A    between atoms: N_2  and  C_3
REMARK    3  A    between atoms: N_2  and  C_14
REMARK    4  A    between atoms: C_3  and  C_4
REMARK    5  A    between atoms: N_6  and  C_7
REMARK    6  A    between atoms: C_14  and  C_15
REMARK    7  A    between atoms: C_15  and  O_16
REMARK    8  A    between atoms: C_15  and  C_17
REMARK    9  A    between atoms: C_17  and  N_18
REMARK   10  A    between atoms: N_27  and  C_28
REMARK                            x       y       z     vdW  Elec       q    Type
REMARK                         _______ _______ _______ _____ _____    ______ ____
ROOT
ATOM      1  C   UNL     1       1.401   9.147  18.260  0.00  0.00    +0.000 C 
ENDROOT
BRANCH   1   2
ATOM      2  O   UNL     1       2.061   9.634  17.117  0.00  0.00    +0.000 OA
ATOM      3  H   UNL     1       2.518  10.479  17.362  0.00  0.00    +0.000 HD
ENDBRANCH   1   2
BRANCH   1   4
ATOM      4  C   UNL     1       0.541  10.234  18.969  0.00  0.00    +0.000 C 
BRANCH   4   6
ATOM      5  C   UNL     1       1.082  11.724  20.789  0.00  0.00    +0.000 C 
ATOM      6  N   UNL     1       0.757  10.327  20.436  0.00  0.00    +0.000 NA
BRANCH   6   7
ATOM      7  C   UNL     1      -0.390   9.829  21.225  0.00  0.00    +0.000 C 
BRANCH   7   8
ATOM      8  C   UNL     1      -0.775  10.778  22.318  0.00  0.00    +0.000 C 
ATOM      9  O   UNL     1      -0.284  10.606  23.421  0.00  0.00    +0.000 OA
ATOM     10  N   UNL     1      -1.721  11.739  22.093  0.00  0.00    +0.000 N 
ATOM     11  H   UNL     1      -2.149  11.747  21.156  0.00  0.00    +0.000 HD
BRANCH  10  12
ATOM     12  C   UNL     1      -2.229  12.662  23.067  0.00  0.00    +0.000 A 
ATOM     13  C   UNL     1      -3.415  12.416  23.804  0.00  0.00    +0.000 A 
ATOM     14  C   UNL     1      -3.889  13.346  24.728  0.00  0.00    +0.000 A 
ATOM     15  C   UNL     1      -3.201  14.535  24.943  0.00  0.00    +0.000 A 
ATOM     16  C   UNL     1      -2.024  14.794  24.243  0.00  0.00    +0.000 A 
ATOM     17  C   UNL     1      -1.531  13.869  23.316  0.00  0.00    +0.000 A 
ATOM     18 CL   UNL     1      -0.047  14.292  22.459  0.00  0.00    +0.000 Cl
ENDBRANCH  10  12
ENDBRANCH   7   8
ENDBRANCH   6   7
ENDBRANCH   4   6
ENDBRANCH   1   4
BRANCH   1  19
ATOM     19  C   UNL     1       2.470   8.567  19.207  0.00  0.00    +0.000 C 
BRANCH  19  20
ATOM     20  N   UNL     1       2.568   7.091  19.071  0.00  0.00    +0.000 N 
ATOM     21  C   UNL     1       1.896   6.270  19.954  0.00  0.00    +0.000 A 
ATOM     22  O   UNL     1       1.234   6.757  20.859  0.00  0.00    +0.000 OA
ATOM     23  C   UNL     1       1.971   4.878  19.831  0.00  0.00    +0.000 A 
ATOM     24  C   UNL     1       1.265   4.046  20.726  0.00  0.00    +0.000 A 
ATOM     25  C   UNL     1       1.347   2.663  20.622  0.00  0.00    +0.000 A 
ATOM     26  C   UNL     1       2.130   2.090  19.630  0.00  0.00    +0.000 A 
ATOM     27  C   UNL     1       2.831   2.892  18.729  0.00  0.00    +0.000 A 
ATOM     28  C   UNL     1       2.767   4.312  18.802  0.00  0.00    +0.000 A 
ATOM     29  N   UNL     1       3.437   5.146  17.925  0.00  0.00    +0.000 N 
ATOM     30  C   UNL     1       4.287   4.666  16.813  0.00  0.00    +0.000 C 
ATOM     31  C   UNL     1       3.330   6.525  18.063  0.00  0.00    +0.000 A 
ATOM     32  O   UNL     1       3.924   7.253  17.276  0.00  0.00    +0.000 OA
ENDBRANCH  19  20
ENDBRANCH   1  19
TORSDOF 8
ENDMDL
MODEL 3
REMARK VINA RESULT:      -6.8      3.142      9.600
REMARK  Name = 
REMARK  10 active torsions:
REMARK  status: ('A' for Active; 'I' for Inactive)
REMARK    1  A    between atoms: C_1  and  N_2
REMARK    2  A    between atoms: N_2  and  C_3
REMARK    3  A    between atoms: N_2  and  C_14
REMARK    4  A    between atoms: C_3  and  C_4
REMARK    5  A    between atoms: N_6  and  C_7
REMARK    6  A    between atoms: C_14  and  C_15
REMARK    7  A    between atoms: C_15  and  O_16
REMARK    8  A    between atoms: C_15  and  C_17
REMARK    9  A    between atoms: C_17  and  N_18
REMARK   10  A    between atoms: N_27  and  C_28
REMARK                            x       y       z     vdW  Elec       q    Type
REMARK                         _______ _______ _______ _____ _____    ______ ____
ROOT
ATOM      1  C   UNL     1       0.375   9.281  20.731  0.00  0.00    +0.000 C 
ENDROOT
BRANCH   1   2
ATOM      2  O   UNL     1      -0.370   8.358  21.485  0.00  0.00    +0.000 OA
ATOM      3  H   UNL     1      -0.720   7.667  20.866  0.00  0.00    +0.000 HD
ENDBRANCH   1   2
BRANCH   1   4
ATOM      4  C   UNL     1       1.598   8.632  20.018  0.00  0.00    +0.000 C 
BRANCH   4   6
ATOM      5  C   UNL     1       0.889   9.790  18.023  0.00  0.00    +0.000 C 
ATOM      6  N   UNL     1       1.466   8.533  18.541  0.00  0.00    +0.000 NA
BRANCH   6   7
ATOM      7  C   UNL     1       2.740   8.211  17.864  0.00  0.00    +0.000 C 
BRANCH   7   8
ATOM      8  C   UNL     1       3.149   6.786  18.082  0.00  0.00    +0.000 C 
ATOM      9  O   UNL     1       4.337   6.521  18.031  0.00  0.00    +0.000 OA
ATOM     10  N   UNL     1       2.199   5.814  18.234  0.00  0.00    +0.000 N 
ATOM     11  H   UNL     1       1.218   6.121  18.168  0.00  0.00    +0.000 HD
BRANCH  10  12
ATOM     12  C   UNL     1       2.452   4.409  18.379  0.00  0.00    +0.000 A 
ATOM     13  C   UNL     1       2.658   3.553  17.268  0.00  0.00    +0.000 A 
ATOM     14  C   UNL     1       2.880   2.189  17.447  0.00  0.00    +0.000 A 
ATOM     15  C   UNL     1       2.905   1.644  18.726  0.00  0.00    +0.000 A 
ATOM     16  C   UNL     1       2.719   2.466  19.836  0.00  0.00    +0.000 A 
ATOM     17  C   UNL     1       2.500   3.839  19.674  0.00  0.00    +0.000 A 
ATOM     18 CL   UNL     1       2.253   4.798  21.134  0.00  0.00    +0.000 Cl
ENDBRANCH  10  12
ENDBRANCH   7   8
ENDBRANCH   6   7
ENDBRANCH   4   6
ENDBRANCH   1   4
BRANCH   1  19
ATOM     19  C   UNL     1       0.812  10.417  21.677  0.00  0.00    +0.000 C 
BRANCH  19  20
ATOM     20  N   UNL     1      -0.223  11.480  21.758  0.00  0.00    +0.000 N 
ATOM     21  C   UNL     1      -1.250  11.375  22.674  0.00  0.00    +0.000 A 
ATOM     22  O   UNL     1      -1.319  10.400  23.406  0.00  0.00    +0.000 OA
ATOM     23  C   UNL     1      -2.226  12.374  22.766  0.00  0.00    +0.000 A 
ATOM     24  C   UNL     1      -3.263  12.269  23.719  0.00  0.00    +0.000 A 
ATOM     25  C   UNL     1      -4.244  13.248  23.808  0.00  0.00    +0.000 A 
ATOM     26  C   UNL     1      -4.211  14.340  22.953  0.00  0.00    +0.000 A 
ATOM     27  C   UNL     1      -3.192  14.470  22.009  0.00  0.00    +0.000 A 
ATOM     28  C   UNL     1      -2.166  13.490  21.892  0.00  0.00    +0.000 A 
ATOM     29  N   UNL     1      -1.132  13.581  20.977  0.00  0.00    +0.000 N 
ATOM     30  C   UNL     1      -0.967  14.702  20.024  0.00  0.00    +0.000 C 
ATOM     31  C   UNL     1      -0.169  12.581  20.919  0.00  0.00    +0.000 A 
ATOM     32  O   UNL     1       0.745  12.677  20.109  0.00  0.00    +0.000 OA
ENDBRANCH  19  20
ENDBRANCH   1  19
TORSDOF 8
ENDMDL
MODEL 4
REMARK VINA RESULT:      -6.8      3.319      8.979
REMARK  Name = 
REMARK  10 active torsions:
REMARK  status: ('A' for Active; 'I' for Inactive)
REMARK    1  A    between atoms: C_1  and  N_2
REMARK    2  A    between atoms: N_2  and  C_3
REMARK    3  A    between atoms: N_2  and  C_14
REMARK    4  A    between atoms: C_3  and  C_4
REMARK    5  A    between atoms: N_6  and  C_7
REMARK    6  A    between atoms: C_14  and  C_15
REMARK    7  A    between atoms: C_15  and  O_16
REMARK    8  A    between atoms: C_15  and  C_17
REMARK    9  A    between atoms: C_17  and  N_18
REMARK   10  A    between atoms: N_27  and  C_28
REMARK                            x       y       z     vdW  Elec       q    Type
REMARK                         _______ _______ _______ _____ _____    ______ ____
ROOT
ATOM      1  C   UNL     1       2.730   6.205  19.928  0.00  0.00    +0.000 C 
ENDROOT
BRANCH   1   2
ATOM      2  O   UNL     1       4.121   6.095  19.751  0.00  0.00    +0.000 OA
ATOM      3  H   UNL     1       4.555   6.818  20.273  0.00  0.00    +0.000 HD
ENDBRANCH   1   2
BRANCH   1   4
ATOM      4  C   UNL     1       2.003   4.829  19.868  0.00  0.00    +0.000 C 
BRANCH   4   6
ATOM      5  C   UNL     1       2.226   3.112  21.549  0.00  0.00    +0.000 C 
ATOM      6  N   UNL     1       2.827   3.680  20.324  0.00  0.00    +0.000 NA
BRANCH   6   7
ATOM      7  C   UNL     1       3.004   2.643  19.286  0.00  0.00    +0.000 C 
BRANCH   7   8
ATOM      8  C   UNL     1       3.587   3.203  18.025  0.00  0.00    +0.000 C 
ATOM      9  O   UNL     1       2.859   3.290  17.050  0.00  0.00    +0.000 OA
ATOM     10  N   UNL     1       4.918   3.510  17.960  0.00  0.00    +0.000 N 
ATOM     11  H   UNL     1       5.473   3.314  18.805  0.00  0.00    +0.000 HD
BRANCH  10  12
ATOM     12  C   UNL     1       5.614   3.986  16.799  0.00  0.00    +0.000 A 
ATOM     13  C   UNL     1       5.245   3.611  15.482  0.00  0.00    +0.000 A 
ATOM     14  C   UNL     1       5.958   4.076  14.379  0.00  0.00    +0.000 A 
ATOM     15  C   UNL     1       7.049   4.922  14.554  0.00  0.00    +0.000 A 
ATOM     16  C   UNL     1       7.423   5.318  15.837  0.00  0.00    +0.000 A 
ATOM     17  C   UNL     1       6.714   4.864  16.955  0.00  0.00    +0.000 A 
ATOM     18 CL   UNL     1       7.273   5.398  18.541  0.00  0.00    +0.000 Cl
ENDBRANCH  10  12
ENDBRANCH   7   8
ENDBRANCH   6   7
ENDBRANCH   4   6
ENDBRANCH   1   4
BRANCH   1  19
ATOM     19  C   UNL     1       2.195   7.173  18.853  0.00  0.00    +0.000 C 
BRANCH  19  20
ATOM     20  N   UNL     1       1.577   8.375  19.470  0.00  0.00    +0.000 N 
ATOM     21  C   UNL     1       0.994   8.289  20.718  0.00  0.00    +0.000 A 
ATOM     22  O   UNL     1       0.970   7.219  21.309  0.00  0.00    +0.000 OA
ATOM     23  C   UNL     1       0.417   9.416  21.314  0.00  0.00    +0.000 A 
ATOM     24  C   UNL     1      -0.160   9.324  22.600  0.00  0.00    +0.000 A 
ATOM     25  C   UNL     1      -0.748  10.433  23.193  0.00  0.00    +0.000 A 
ATOM     26  C   UNL     1      -0.774  11.646  22.518  0.00  0.00    +0.000 A 
ATOM     27  C   UNL     1      -0.202  11.763  21.251  0.00  0.00    +0.000 A 
ATOM     28  C   UNL     1       0.414  10.650  20.614  0.00  0.00    +0.000 A 
ATOM     29  N   UNL     1       1.000  10.721  19.363  0.00  0.00    +0.000 N 
ATOM     30  C   UNL     1       1.061  11.955  18.547  0.00  0.00    +0.000 C 
ATOM     31  C   UNL     1       1.579   9.589  18.803  0.00  0.00    +0.000 A 
ATOM     32  O   UNL     1       2.100   9.668  17.697  0.00  0.00    +0.000 OA
ENDBRANCH  19  20
ENDBRANCH   1  19
TORSDOF 8
ENDMDL
MODEL 5
REMARK VINA RESULT:      -6.8      2.479      4.780
REMARK  Name = 
REMARK  10 active torsions:
REMARK  status: ('A' for Active; 'I' for Inactive)
REMARK    1  A    between atoms: C_1  and  N_2
REMARK    2  A    between atoms: N_2  and  C_3
REMARK    3  A    between atoms: N_2  and  C_14
REMARK    4  A    between atoms: C_3  and  C_4
REMARK    5  A    between atoms: N_6  and  C_7
REMARK    6  A    between atoms: C_14  and  C_15
REMARK    7  A    between atoms: C_15  and  O_16
REMARK    8  A    between atoms: C_15  and  C_17
REMARK    9  A    between atoms: C_17  and  N_18
REMARK   10  A    between atoms: N_27  and  C_28
REMARK                            x       y       z     vdW  Elec       q    Type
REMARK                         _______ _______ _______ _____ _____    ______ ____
ROOT
ATOM      1  C   UNL     1       2.894   5.562  19.964  0.00  0.00    +0.000 C 
ENDROOT
BRANCH   1   2
ATOM      2  O   UNL     1       2.171   5.336  21.149  0.00  0.00    +0.000 OA
ATOM      3  H   UNL     1       2.274   4.381  21.394  0.00  0.00    +0.000 HD
ENDBRANCH   1   2
BRANCH   1   4
ATOM      4  C   UNL     1       2.053   6.284  18.871  0.00  0.00    +0.000 C 
BRANCH   4   6
ATOM      5  C   UNL     1       3.692   7.550  17.632  0.00  0.00    +0.000 C 
ATOM      6  N   UNL     1       2.528   7.652  18.536  0.00  0.00    +0.000 NA
BRANCH   6   7
ATOM      7  C   UNL     1       1.472   8.507  17.953  0.00  0.00    +0.000 C 
BRANCH   7   8
ATOM      8  C   UNL     1       1.333   9.806  18.686  0.00  0.00    +0.000 C 
ATOM      9  O   UNL     1       1.009   9.766  19.860  0.00  0.00    +0.000 OA
ATOM     10  N   UNL     1       1.474  10.991  18.017  0.00  0.00    +0.000 N 
ATOM     11  H   UNL     1       1.654  10.925  17.005  0.00  0.00    +0.000 HD
BRANCH  10  12
ATOM     12  C   UNL     1       1.297  12.299  18.580  0.00  0.00    +0.000 A 
ATOM     13  C   UNL     1       2.376  13.052  19.110  0.00  0.00    +0.000 A 
ATOM     14  C   UNL     1       2.163  14.311  19.668  0.00  0.00    +0.000 A 
ATOM     15  C   UNL     1       0.882  14.851  19.714  0.00  0.00    +0.000 A 
ATOM     16  C   UNL     1      -0.193  14.138  19.186  0.00  0.00    +0.000 A 
ATOM     17  C   UNL     1       0.004  12.875  18.617  0.00  0.00    +0.000 A 
ATOM     18 CL   UNL     1      -1.417  12.035  17.995  0.00  0.00    +0.000 Cl
ENDBRANCH  10  12
ENDBRANCH   7   8
ENDBRANCH   6   7
ENDBRANCH   4   6
ENDBRANCH   1   4
BRANCH   1  19
ATOM     19  C   UNL     1       3.416   4.199  19.466  0.00  0.00    +0.000 C 
BRANCH  19  20
ATOM     20  N   UNL     1       4.475   4.370  18.438  0.00  0.00    +0.000 N 
ATOM     21  C   UNL     1       4.206   4.084  17.115  0.00  0.00    +0.000 A 
ATOM     22  O   UNL     1       3.102   3.674  16.791  0.00  0.00    +0.000 OA
ATOM     23  C   UNL     1       5.192   4.250  16.135  0.00  0.00    +0.000 A 
ATOM     24  C   UNL     1       4.902   3.974  14.781  0.00  0.00    +0.000 A 
ATOM     25  C   UNL     1       5.879   4.121  13.805  0.00  0.00    +0.000 A 
ATOM     26  C   UNL     1       7.154   4.541  14.159  0.00  0.00    +0.000 A 
ATOM     27  C   UNL     1       7.461   4.828  15.489  0.00  0.00    +0.000 A 
ATOM     28  C   UNL     1       6.484   4.694  16.516  0.00  0.00    +0.000 A 
ATOM     29  N   UNL     1       6.741   4.974  17.847  0.00  0.00    +0.000 N 
ATOM     30  C   UNL     1       8.048   5.450  18.355  0.00  0.00    +0.000 C 
ATOM     31  C   UNL     1       5.737   4.815  18.795  0.00  0.00    +0.000 A 
ATOM     32  O   UNL     1       5.976   5.073  19.968  0.00  0.00    +0.000 OA
ENDBRANCH  19  20
ENDBRANCH   1  19
TORSDOF 8
ENDMDL
MODEL 6
REMARK VINA RESULT:      -6.8      3.085      4.251
REMARK  Name = 
REMARK  10 active torsions:
REMARK  status: ('A' for Active; 'I' for Inactive)
REMARK    1  A    between atoms: C_1  and  N_2
REMARK    2  A    between atoms: N_2  and  C_3
REMARK    3  A    between atoms: N_2  and  C_14
REMARK    4  A    between atoms: C_3  and  C_4
REMARK    5  A    between atoms: N_6  and  C_7
REMARK    6  A    between atoms: C_14  and  C_15
REMARK    7  A    between atoms: C_15  and  O_16
REMARK    8  A    between atoms: C_15  and  C_17
REMARK    9  A    between atoms: C_17  and  N_18
REMARK   10  A    between atoms: N_27  and  C_28
REMARK                            x       y       z     vdW  Elec       q    Type
REMARK                         _______ _______ _______ _____ _____    ______ ____
ROOT
ATOM      1  C   UNL     1       1.499   9.034  18.373  0.00  0.00    +0.000 C 
ENDROOT
BRANCH   1   2
ATOM      2  O   UNL     1       1.953   9.156  17.048  0.00  0.00    +0.000 OA
ATOM      3  H   UNL     1       2.581   9.921  17.007  0.00  0.00    +0.000 HD
ENDBRANCH   1   2
BRANCH   1   4
ATOM      4  C   UNL     1       1.029  10.390  18.977  0.00  0.00    +0.000 C 
BRANCH   4   6
ATOM      5  C   UNL     1      -0.635  10.704  20.697  0.00  0.00    +0.000 C 
ATOM      6  N   UNL     1      -0.429  10.466  19.254  0.00  0.00    +0.000 NA
BRANCH   6   7
ATOM      7  C   UNL     1      -1.123  11.486  18.440  0.00  0.00    +0.000 C 
BRANCH   7   8
ATOM      8  C   UNL     1      -2.611  11.320  18.478  0.00  0.00    +0.000 C 
ATOM      9  O   UNL     1      -3.077  10.270  18.068  0.00  0.00    +0.000 OA
ATOM     10  N   UNL     1      -3.409  12.359  18.870  0.00  0.00    +0.000 N 
ATOM     11  H   UNL     1      -2.929  13.238  19.108  0.00  0.00    +0.000 HD
BRANCH  10  12
ATOM     12  C   UNL     1      -4.844  12.355  18.886  0.00  0.00    +0.000 A 
ATOM     13  C   UNL     1      -5.619  12.241  17.703  0.00  0.00    +0.000 A 
ATOM     14  C   UNL     1      -7.011  12.263  17.756  0.00  0.00    +0.000 A 
ATOM     15  C   UNL     1      -7.666  12.395  18.976  0.00  0.00    +0.000 A 
ATOM     16  C   UNL     1      -6.928  12.493  20.154  0.00  0.00    +0.000 A 
ATOM     17  C   UNL     1      -5.529  12.468  20.120  0.00  0.00    +0.000 A 
ATOM     18 CL   UNL     1      -4.678  12.621  21.658  0.00  0.00    +0.000 Cl
ENDBRANCH  10  12
ENDBRANCH   7   8
ENDBRANCH   6   7
ENDBRANCH   4   6
ENDBRANCH   1   4
BRANCH   1  19
ATOM     19  C   UNL     1       2.638   8.411  19.204  0.00  0.00    +0.000 C 
BRANCH  19  20
ATOM     20  N   UNL     1       2.663   6.932  19.061  0.00  0.00    +0.000 N 
ATOM     21  C   UNL     1       1.957   6.141  19.945  0.00  0.00    +0.000 A 
ATOM     22  O   UNL     1       1.326   6.655  20.856  0.00  0.00    +0.000 OA
ATOM     23  C   UNL     1       1.965   4.747  19.816  0.00  0.00    +0.000 A 
ATOM     24  C   UNL     1       1.224   3.946  20.712  0.00  0.00    +0.000 A 
ATOM     25  C   UNL     1       1.238   2.562  20.601  0.00  0.00    +0.000 A 
ATOM     26  C   UNL     1       1.987   1.955  19.602  0.00  0.00    +0.000 A 
ATOM     27  C   UNL     1       2.720   2.727  18.700  0.00  0.00    +0.000 A 
ATOM     28  C   UNL     1       2.725   4.148  18.779  0.00  0.00    +0.000 A 
ATOM     29  N   UNL     1       3.430   4.953  17.902  0.00  0.00    +0.000 N 
ATOM     30  C   UNL     1       4.249   4.437  16.782  0.00  0.00    +0.000 C 
ATOM     31  C   UNL     1       3.391   6.335  18.045  0.00  0.00    +0.000 A 
ATOM     32  O   UNL     1       4.014   7.036  17.258  0.00  0.00    +0.000 OA
ENDBRANCH  19  20
ENDBRANCH   1  19
TORSDOF 8
ENDMDL
MODEL 7
REMARK VINA RESULT:      -6.7      1.485      2.926
REMARK  Name = 
REMARK  10 active torsions:
REMARK  status: ('A' for Active; 'I' for Inactive)
REMARK    1  A    between atoms: C_1  and  N_2
REMARK    2  A    between atoms: N_2  and  C_3
REMARK    3  A    between atoms: N_2  and  C_14
REMARK    4  A    between atoms: C_3  and  C_4
REMARK    5  A    between atoms: N_6  and  C_7
REMARK    6  A    between atoms: C_14  and  C_15
REMARK    7  A    between atoms: C_15  and  O_16
REMARK    8  A    between atoms: C_15  and  C_17
REMARK    9  A    between atoms: C_17  and  N_18
REMARK   10  A    between atoms: N_27  and  C_28
REMARK                            x       y       z     vdW  Elec       q    Type
REMARK                         _______ _______ _______ _____ _____    ______ ____
ROOT
ATOM      1  C   UNL     1       1.011   9.386  18.252  0.00  0.00    +0.000 C 
ENDROOT
BRANCH   1   2
ATOM      2  O   UNL     1       1.622  10.411  17.507  0.00  0.00    +0.000 OA
ATOM      3  H   UNL     1       2.511  10.086  17.210  0.00  0.00    +0.000 HD
ENDBRANCH   1   2
BRANCH   1   4
ATOM      4  C   UNL     1      -0.342   9.825  18.885  0.00  0.00    +0.000 C 
BRANCH   4   6
ATOM      5  C   UNL     1      -1.911  11.659  18.873  0.00  0.00    +0.000 C 
ATOM      6  N   UNL     1      -0.492  11.294  19.056  0.00  0.00    +0.000 NA
BRANCH   6   7
ATOM      7  C   UNL     1       0.023  11.784  20.352  0.00  0.00    +0.000 C 
BRANCH   7   8
ATOM      8  C   UNL     1       1.075  12.836  20.177  0.00  0.00    +0.000 C 
ATOM      9  O   UNL     1       1.593  13.295  21.181  0.00  0.00    +0.000 OA
ATOM     10  N   UNL     1       1.361  13.323  18.932  0.00  0.00    +0.000 N 
ATOM     11  H   UNL     1       0.804  12.942  18.154  0.00  0.00    +0.000 HD
BRANCH  10  12
ATOM     12  C   UNL     1       2.291  14.375  18.635  0.00  0.00    +0.000 A 
ATOM     13  C   UNL     1       3.664  14.128  18.380  0.00  0.00    +0.000 A 
ATOM     14  C   UNL     1       4.542  15.178  18.116  0.00  0.00    +0.000 A 
ATOM     15  C   UNL     1       4.082  16.491  18.096  0.00  0.00    +0.000 A 
ATOM     16  C   UNL     1       2.733  16.758  18.328  0.00  0.00    +0.000 A 
ATOM     17  C   UNL     1       1.837  15.715  18.590  0.00  0.00    +0.000 A 
ATOM     18 CL   UNL     1       0.155  16.150  18.895  0.00  0.00    +0.000 Cl
ENDBRANCH  10  12
ENDBRANCH   7   8
ENDBRANCH   6   7
ENDBRANCH   4   6
ENDBRANCH   1   4
BRANCH   1  19
ATOM     19  C   UNL     1       2.014   8.925  19.327  0.00  0.00    +0.000 C 
BRANCH  19  20
ATOM     20  N   UNL     1       2.369   7.492  19.156  0.00  0.00    +0.000 N 
ATOM     21  C   UNL     1       3.150   7.098  18.088  0.00  0.00    +0.000 A 
ATOM     22  O   UNL     1       3.535   7.924  17.275  0.00  0.00    +0.000 OA
ATOM     23  C   UNL     1       3.499   5.753  17.920  0.00  0.00    +0.000 A 
ATOM     24  C   UNL     1       4.315   5.360  16.837  0.00  0.00    +0.000 A 
ATOM     25  C   UNL     1       4.653   4.026  16.653  0.00  0.00    +0.000 A 
ATOM     26  C   UNL     1       4.186   3.065  17.540  0.00  0.00    +0.000 A 
ATOM     27  C   UNL     1       3.386   3.430  18.622  0.00  0.00    +0.000 A 
ATOM     28  C   UNL     1       3.022   4.788  18.845  0.00  0.00    +0.000 A 
ATOM     29  N   UNL     1       2.238   5.198  19.909  0.00  0.00    +0.000 N 
ATOM     30  C   UNL     1       1.694   4.281  20.937  0.00  0.00    +0.000 C 
ATOM     31  C   UNL     1       1.921   6.543  20.059  0.00  0.00    +0.000 A 
ATOM     32  O   UNL     1       1.231   6.892  21.009  0.00  0.00    +0.000 OA
ENDBRANCH  19  20
ENDBRANCH   1  19
TORSDOF 8
ENDMDL
MODEL 8
REMARK VINA RESULT:      -6.7      2.835      8.920
REMARK  Name = 
REMARK  10 active torsions:
REMARK  status: ('A' for Active; 'I' for Inactive)
REMARK    1  A    between atoms: C_1  and  N_2
REMARK    2  A    between atoms: N_2  and  C_3
REMARK    3  A    between atoms: N_2  and  C_14
REMARK    4  A    between atoms: C_3  and  C_4
REMARK    5  A    between atoms: N_6  and  C_7
REMARK    6  A    between atoms: C_14  and  C_15
REMARK    7  A    between atoms: C_15  and  O_16
REMARK    8  A    between atoms: C_15  and  C_17
REMARK    9  A    between atoms: C_17  and  N_18
REMARK   10  A    between atoms: N_27  and  C_28
REMARK                            x       y       z     vdW  Elec       q    Type
REMARK                         _______ _______ _______ _____ _____    ______ ____
ROOT
ATOM      1  C   UNL     1       0.399  11.127  19.282  0.00  0.00    +0.000 C 
ENDROOT
BRANCH   1   2
ATOM      2  O   UNL     1       0.466  10.322  18.131  0.00  0.00    +0.000 OA
ATOM      3  H   UNL     1       0.044   9.450  18.342  0.00  0.00    +0.000 HD
ENDBRANCH   1   2
BRANCH   1   4
ATOM      4  C   UNL     1      -0.351  10.437  20.460  0.00  0.00    +0.000 C 
BRANCH   4   6
ATOM      5  C   UNL     1      -0.756  10.663  22.828  0.00  0.00    +0.000 C 
ATOM      6  N   UNL     1       0.291  10.619  21.787  0.00  0.00    +0.000 NA
BRANCH   6   7
ATOM      7  C   UNL     1       1.303   9.586  22.090  0.00  0.00    +0.000 C 
BRANCH   7   8
ATOM      8  C   UNL     1       1.057   8.318  21.332  0.00  0.00    +0.000 C 
ATOM      9  O   UNL     1      -0.073   7.860  21.340  0.00  0.00    +0.000 OA
ATOM     10  N   UNL     1       2.098   7.658  20.739  0.00  0.00    +0.000 N 
ATOM     11  H   UNL     1       3.032   8.072  20.866  0.00  0.00    +0.000 HD
BRANCH  10  12
ATOM     12  C   UNL     1       2.011   6.405  20.045  0.00  0.00    +0.000 A 
ATOM     13  C   UNL     1       1.623   5.203  20.690  0.00  0.00    +0.000 A 
ATOM     14  C   UNL     1       1.571   4.000  19.988  0.00  0.00    +0.000 A 
ATOM     15  C   UNL     1       1.898   3.960  18.637  0.00  0.00    +0.000 A 
ATOM     16  C   UNL     1       2.269   5.131  17.976  0.00  0.00    +0.000 A 
ATOM     17  C   UNL     1       2.322   6.348  18.665  0.00  0.00    +0.000 A 
ATOM     18 CL   UNL     1       2.823   7.773  17.754  0.00  0.00    +0.000 Cl
ENDBRANCH  10  12
ENDBRANCH   7   8
ENDBRANCH   6   7
ENDBRANCH   4   6
ENDBRANCH   1   4
BRANCH   1  19
ATOM     19  C   UNL     1      -0.274  12.457  18.887  0.00  0.00    +0.000 C 
BRANCH  19  20
ATOM     20  N   UNL     1      -1.726  12.443  19.207  0.00  0.00    +0.000 N 
ATOM     21  C   UNL     1      -2.609  11.784  18.376  0.00  0.00    +0.000 A 
ATOM     22  O   UNL     1      -2.202  11.227  17.368  0.00  0.00    +0.000 OA
ATOM     23  C   UNL     1      -3.977  11.756  18.672  0.00  0.00    +0.000 A 
ATOM     24  C   UNL     1      -4.872  11.063  17.828  0.00  0.00    +0.000 A 
ATOM     25  C   UNL     1      -6.233  11.043  18.104  0.00  0.00    +0.000 A 
ATOM     26  C   UNL     1      -6.723  11.709  19.219  0.00  0.00    +0.000 A 
ATOM     27  C   UNL     1      -5.856  12.393  20.072  0.00  0.00    +0.000 A 
ATOM     28  C   UNL     1      -4.455  12.432  19.824  0.00  0.00    +0.000 A 
ATOM     29  N   UNL     1      -3.558  13.090  20.646  0.00  0.00    +0.000 N 
ATOM     30  C   UNL     1      -3.944  13.820  21.875  0.00  0.00    +0.000 C 
ATOM     31  C   UNL     1      -2.203  13.088  20.336  0.00  0.00    +0.000 A 
ATOM     32  O   UNL     1      -1.419  13.669  21.075  0.00  0.00    +0.000 OA
ENDBRANCH  19  20
ENDBRANCH   1  19
TORSDOF 8
ENDMDL
MODEL 9
REMARK VINA RESULT:      -6.7      3.379      9.496
REMARK  Name = 
REMARK  10 active torsions:
REMARK  status: ('A' for Active; 'I' for Inactive)
REMARK    1  A    between atoms: C_1  and  N_2
REMARK    2  A    between atoms: N_2  and  C_3
REMARK    3  A    between atoms: N_2  and  C_14
REMARK    4  A    between atoms: C_3  and  C_4
REMARK    5  A    between atoms: N_6  and  C_7
REMARK    6  A    between atoms: C_14  and  C_15
REMARK    7  A    between atoms: C_15  and  O_16
REMARK    8  A    between atoms: C_15  and  C_17
REMARK    9  A    between atoms: C_17  and  N_18
REMARK   10  A    between atoms: N_27  and  C_28
REMARK                            x       y       z     vdW  Elec       q    Type
REMARK                         _______ _______ _______ _____ _____    ______ ____
ROOT
ATOM      1  C   UNL     1       0.956  10.396  19.118  0.00  0.00    +0.000 C 
ENDROOT
BRANCH   1   2
ATOM      2  O   UNL     1       0.505  10.001  17.845  0.00  0.00    +0.000 OA
ATOM      3  H   UNL     1      -0.280  10.560  17.611  0.00  0.00    +0.000 HD
ENDBRANCH   1   2
BRANCH   1   4
ATOM      4  C   UNL     1       0.315   9.567  20.270  0.00  0.00    +0.000 C 
BRANCH   4   6
ATOM      5  C   UNL     1       1.492   9.407  22.370  0.00  0.00    +0.000 C 
ATOM      6  N   UNL     1       1.284   8.762  21.058  0.00  0.00    +0.000 NA
BRANCH   6   7
ATOM      7  C   UNL     1       0.873   7.351  21.216  0.00  0.00    +0.000 C 
BRANCH   7   8
ATOM      8  C   UNL     1       1.679   6.430  20.351  0.00  0.00    +0.000 C 
ATOM      9  O   UNL     1       2.595   6.911  19.707  0.00  0.00    +0.000 OA
ATOM     10  N   UNL     1       1.322   5.116  20.227  0.00  0.00    +0.000 N 
ATOM     11  H   UNL     1       0.476   4.823  20.736  0.00  0.00    +0.000 HD
BRANCH  10  12
ATOM     12  C   UNL     1       1.962   4.149  19.382  0.00  0.00    +0.000 A 
ATOM     13  C   UNL     1       2.028   4.293  17.973  0.00  0.00    +0.000 A 
ATOM     14  C   UNL     1       2.640   3.322  17.182  0.00  0.00    +0.000 A 
ATOM     15  C   UNL     1       3.200   2.191  17.767  0.00  0.00    +0.000 A 
ATOM     16  C   UNL     1       3.162   2.033  19.152  0.00  0.00    +0.000 A 
ATOM     17  C   UNL     1       2.556   3.001  19.960  0.00  0.00    +0.000 A 
ATOM     18 CL   UNL     1       2.534   2.705  21.700  0.00  0.00    +0.000 Cl
ENDBRANCH  10  12
ENDBRANCH   7   8
ENDBRANCH   6   7
ENDBRANCH   4   6
ENDBRANCH   1   4
BRANCH   1  19
ATOM     19  C   UNL     1       0.662  11.901  19.274  0.00  0.00    +0.000 C 
BRANCH  19  20
ATOM     20  N   UNL     1      -0.659  12.129  19.915  0.00  0.00    +0.000 N 
ATOM     21  C   UNL     1      -0.729  12.461  21.253  0.00  0.00    +0.000 A 
ATOM     22  O   UNL     1       0.294  12.552  21.914  0.00  0.00    +0.000 OA
ATOM     23  C   UNL     1      -1.966  12.688  21.867  0.00  0.00    +0.000 A 
ATOM     24  C   UNL     1      -2.028  13.048  23.231  0.00  0.00    +0.000 A 
ATOM     25  C   UNL     1      -3.252  13.259  23.852  0.00  0.00    +0.000 A 
ATOM     26  C   UNL     1      -4.428  13.115  23.130  0.00  0.00    +0.000 A 
ATOM     27  C   UNL     1      -4.392  12.769  21.779  0.00  0.00    +0.000 A 
ATOM     28  C   UNL     1      -3.156  12.549  21.107  0.00  0.00    +0.000 A 
ATOM     29  N   UNL     1      -3.072  12.213  19.768  0.00  0.00    +0.000 N 
ATOM     30  C   UNL     1      -4.245  12.049  18.880  0.00  0.00    +0.000 C 
ATOM     31  C   UNL     1      -1.828  12.009  19.182  0.00  0.00    +0.000 A 
ATOM     32  O   UNL     1      -1.767  11.718  17.994  0.00  0.00    +0.000 OA
ENDBRANCH  19  20
ENDBRANCH   1  19
TORSDOF 8
ENDMDL
