MODEL 1
REMARK VINA RESULT:      -8.5      0.000      0.000
REMARK  Name = 
REMARK  10 active torsions:
REMARK  status: ('A' for Active; 'I' for Inactive)
REMARK    1  A    between atoms: C_1  and  S_2
REMARK    2  A    between atoms: S_2  and  C_3
REMARK    3  A    between atoms: C_6  and  C_7
REMARK    4  A    between atoms: C_12  and  C_13
REMARK    5  A    between atoms: C_13  and  C_14
REMARK    6  A    between atoms: C_13  and  C_15
REMARK    7  A    between atoms: C_17  and  N_18
REMARK    8  A    between atoms: N_18  and  C_19
REMARK    9  A    between atoms: C_19  and  C_20
REMARK   10  A    between atoms: C_23  and  C_24
REMARK                            x       y       z     vdW  Elec       q    Type
REMARK                         _______ _______ _______ _____ _____    ______ ____
ROOT
ATOM      1  C   UNL     1       2.897   4.445  19.782  0.00  0.00    +0.000 A 
ATOM      2  C   UNL     1       3.527   3.376  19.177  0.00  0.00    +0.000 A 
ATOM      3  N   UNL     1       4.168   3.431  17.995  0.00  0.00    +0.000 NA
ATOM      4  C   UNL     1       4.192   4.627  17.380  0.00  0.00    +0.000 A 
ATOM      5  N   UNL     1       3.534   5.708  17.841  0.00  0.00    +0.000 NA
ATOM      6  C   UNL     1       2.888   5.623  19.031  0.00  0.00    +0.000 A 
ENDROOT
BRANCH   4   7
ATOM      7  C   UNL     1       5.255   4.812  16.351  0.00  0.00    +0.000 A 
ATOM      8  C   UNL     1       5.052   4.141  15.113  0.00  0.00    +0.000 A 
ATOM      9  C   UNL     1       6.000   4.120  14.092  0.00  0.00    +0.000 A 
ATOM     10  C   UNL     1       7.200   4.776  14.274  0.00  0.00    +0.000 A 
ATOM     11  C   UNL     1       7.432   5.471  15.460  0.00  0.00    +0.000 A 
ATOM     12  C   UNL     1       6.476   5.529  16.507  0.00  0.00    +0.000 A 
BRANCH  12  13
ATOM     13  C   UNL     1       6.824   6.350  17.751  0.00  0.00    +0.000 C 
ATOM     14  C   UNL     1       7.635   5.511  18.745  0.00  0.00    +0.000 C 
ATOM     15  C   UNL     1       7.607   7.645  17.459  0.00  0.00    +0.000 C 
ENDBRANCH  12  13
ENDBRANCH   4   7
BRANCH   1  17
ATOM     16  C   UNL     1       1.540   2.515  21.182  0.00  0.00    +0.000 C 
ATOM     17  S   UNL     1       2.249   4.169  21.419  0.00  0.00    +0.000 S 
ENDBRANCH   1  17
BRANCH   6  18
ATOM     18  N   UNL     1       2.364   6.846  19.426  0.00  0.00    +0.000 N 
ATOM     19  H   UNL     1       2.821   7.095  20.301  0.00  0.00    +0.000 HD
BRANCH  18  20
ATOM     20  C   UNL     1       2.231   7.963  18.511  0.00  0.00    +0.000 C 
BRANCH  20  21
ATOM     21  C   UNL     1       1.373   9.054  19.119  0.00  0.00    +0.000 A 
ATOM     22  C   UNL     1       0.698   9.969  18.313  0.00  0.00    +0.000 A 
ATOM     23  C   UNL     1      -0.221  10.872  18.878  0.00  0.00    +0.000 A 
ATOM     24  C   UNL     1      -0.510  10.860  20.254  0.00  0.00    +0.000 A 
ATOM     25  C   UNL     1       0.214   9.961  21.056  0.00  0.00    +0.000 A 
ATOM     26  C   UNL     1       1.142   9.076  20.499  0.00  0.00    +0.000 A 
BRANCH  24  27
ATOM     27  C   UNL     1      -1.558  11.733  20.828  0.00  0.00    +0.000 A 
ATOM     28  C   UNL     1      -1.665  11.961  22.209  0.00  0.00    +0.000 A 
ATOM     29  C   UNL     1      -2.644  12.812  22.720  0.00  0.00    +0.000 A 
ATOM     30  C   UNL     1      -3.502  13.434  21.831  0.00  0.00    +0.000 A 
ATOM     31  N   UNL     1      -3.445  13.258  20.497  0.00  0.00    +0.000 NA
ATOM     32  C   UNL     1      -2.485  12.418  20.036  0.00  0.00    +0.000 A 
ENDBRANCH  24  27
ENDBRANCH  20  21
ENDBRANCH  18  20
ENDBRANCH   6  18
TORSDOF 7
ENDMDL
MODEL 2
REMARK VINA RESULT:      -8.3      0.658      1.082
REMARK  Name = 
REMARK  10 active torsions:
REMARK  status: ('A' for Active; 'I' for Inactive)
REMARK    1  A    between atoms: C_1  and  S_2
REMARK    2  A    between atoms: S_2  and  C_3
REMARK    3  A    between atoms: C_6  and  C_7
REMARK    4  A    between atoms: C_12  and  C_13
REMARK    5  A    between atoms: C_13  and  C_14
REMARK    6  A    between atoms: C_13  and  C_15
REMARK    7  A    between atoms: C_17  and  N_18
REMARK    8  A    between atoms: N_18  and  C_19
REMARK    9  A    between atoms: C_19  and  C_20
REMARK   10  A    between atoms: C_23  and  C_24
REMARK                            x       y       z     vdW  Elec       q    Type
REMARK                         _______ _______ _______ _____ _____    ______ ____
ROOT
ATOM      1  C   UNL     1       3.084   4.127  19.872  0.00  0.00    +0.000 A 
ATOM      2  C   UNL     1       3.752   3.111  19.217  0.00  0.00    +0.000 A 
ATOM      3  N   UNL     1       4.350   3.233  18.018  0.00  0.00    +0.000 NA
ATOM      4  C   UNL     1       4.285   4.443  17.435  0.00  0.00    +0.000 A 
ATOM      5  N   UNL     1       3.584   5.472  17.946  0.00  0.00    +0.000 NA
ATOM      6  C   UNL     1       2.983   5.321  19.154  0.00  0.00    +0.000 A 
ENDROOT
BRANCH   4   7
ATOM      7  C   UNL     1       5.301   4.714  16.378  0.00  0.00    +0.000 A 
ATOM      8  C   UNL     1       5.085   4.079  15.124  0.00  0.00    +0.000 A 
ATOM      9  C   UNL     1       5.996   4.139  14.071  0.00  0.00    +0.000 A 
ATOM     10  C   UNL     1       7.171   4.843  14.237  0.00  0.00    +0.000 A 
ATOM     11  C   UNL     1       7.413   5.505  15.439  0.00  0.00    +0.000 A 
ATOM     12  C   UNL     1       6.493   5.482  16.519  0.00  0.00    +0.000 A 
BRANCH  12  13
ATOM     13  C   UNL     1       6.848   6.272  17.780  0.00  0.00    +0.000 C 
ATOM     14  C   UNL     1       7.676   5.415  18.745  0.00  0.00    +0.000 C 
ATOM     15  C   UNL     1       7.618   7.581  17.514  0.00  0.00    +0.000 C 
ENDBRANCH  12  13
ENDBRANCH   4   7
BRANCH   1  17
ATOM     16  C   UNL     1       1.053   2.764  21.115  0.00  0.00    +0.000 C 
ATOM     17  S   UNL     1       2.507   3.773  21.520  0.00  0.00    +0.000 S 
ENDBRANCH   1  17
BRANCH   6  18
ATOM     18  N   UNL     1       2.405   6.502  19.598  0.00  0.00    +0.000 N 
ATOM     19  H   UNL     1       2.777   6.681  20.528  0.00  0.00    +0.000 HD
BRANCH  18  20
ATOM     20  C   UNL     1       2.336   7.690  18.769  0.00  0.00    +0.000 C 
BRANCH  20  21
ATOM     21  C   UNL     1       1.387   8.707  19.369  0.00  0.00    +0.000 A 
ATOM     22  C   UNL     1       1.074   8.683  20.727  0.00  0.00    +0.000 A 
ATOM     23  C   UNL     1       0.324   9.725  21.302  0.00  0.00    +0.000 A 
ATOM     24  C   UNL     1      -0.103  10.828  20.543  0.00  0.00    +0.000 A 
ATOM     25  C   UNL     1       0.184  10.811  19.167  0.00  0.00    +0.000 A 
ATOM     26  C   UNL     1       0.912   9.768  18.588  0.00  0.00    +0.000 A 
BRANCH  24  27
ATOM     27  C   UNL     1      -0.794  11.975  21.172  0.00  0.00    +0.000 A 
ATOM     28  C   UNL     1      -0.870  12.127  22.566  0.00  0.00    +0.000 A 
ATOM     29  C   UNL     1      -1.503  13.233  23.131  0.00  0.00    +0.000 A 
ATOM     30  C   UNL     1      -2.045  14.184  22.286  0.00  0.00    +0.000 A 
ATOM     31  N   UNL     1      -1.999  14.095  20.942  0.00  0.00    +0.000 NA
ATOM     32  C   UNL     1      -1.382  13.003  20.426  0.00  0.00    +0.000 A 
ENDBRANCH  24  27
ENDBRANCH  20  21
ENDBRANCH  18  20
ENDBRANCH   6  18
TORSDOF 7
ENDMDL
MODEL 3
REMARK VINA RESULT:      -8.3      1.090      1.133
REMARK  Name = 
REMARK  10 active torsions:
REMARK  status: ('A' for Active; 'I' for Inactive)
REMARK    1  A    between atoms: C_1  and  S_2
REMARK    2  A    between atoms: S_2  and  C_3
REMARK    3  A    between atoms: C_6  and  C_7
REMARK    4  A    between atoms: C_12  and  C_13
REMARK    5  A    between atoms: C_13  and  C_14
REMARK    6  A    between atoms: C_13  and  C_15
REMARK    7  A    between atoms: C_17  and  N_18
REMARK    8  A    between atoms: N_18  and  C_19
REMARK    9  A    between atoms: C_19  and  C_20
REMARK   10  A    between atoms: C_23  and  C_24
REMARK                            x       y       z     vdW  Elec       q    Type
REMARK                         _______ _______ _______ _____ _____    ______ ____
ROOT
ATOM      1  C   UNL     1       2.556   4.531  19.457  0.00  0.00    +0.000 A 
ATOM      2  C   UNL     1       2.998   3.451  18.717  0.00  0.00    +0.000 A 
ATOM      3  N   UNL     1       3.722   3.541  17.586  0.00  0.00    +0.000 NA
ATOM      4  C   UNL     1       4.033   4.781  17.168  0.00  0.00    +0.000 A 
ATOM      5  N   UNL     1       3.577   5.898  17.766  0.00  0.00    +0.000 NA
ATOM      6  C   UNL     1       2.841   5.780  18.901  0.00  0.00    +0.000 A 
ENDROOT
BRANCH   4   7
ATOM      7  C   UNL     1       5.184   4.884  16.226  0.00  0.00    +0.000 A 
ATOM      8  C   UNL     1       5.027   4.232  14.971  0.00  0.00    +0.000 A 
ATOM      9  C   UNL     1       6.046   4.138  14.027  0.00  0.00    +0.000 A 
ATOM     10  C   UNL     1       7.276   4.699  14.306  0.00  0.00    +0.000 A 
ATOM     11  C   UNL     1       7.468   5.373  15.510  0.00  0.00    +0.000 A 
ATOM     12  C   UNL     1       6.440   5.505  16.480  0.00  0.00    +0.000 A 
BRANCH  12  13
ATOM     13  C   UNL     1       6.753   6.295  17.753  0.00  0.00    +0.000 C 
ATOM     14  C   UNL     1       7.541   5.434  18.748  0.00  0.00    +0.000 C 
ATOM     15  C   UNL     1       7.539   7.599  17.515  0.00  0.00    +0.000 C 
ENDBRANCH  12  13
ENDBRANCH   4   7
BRANCH   1  17
ATOM     16  C   UNL     1       2.670   2.672  21.471  0.00  0.00    +0.000 C 
ATOM     17  S   UNL     1       1.747   4.163  21.001  0.00  0.00    +0.000 S 
ENDBRANCH   1  17
BRANCH   6  18
ATOM     18  N   UNL     1       2.549   7.016  19.461  0.00  0.00    +0.000 N 
ATOM     19  H   UNL     1       3.373   7.305  19.985  0.00  0.00    +0.000 HD
BRANCH  18  20
ATOM     20  C   UNL     1       1.951   8.092  18.694  0.00  0.00    +0.000 C 
BRANCH  20  21
ATOM     21  C   UNL     1       1.399   9.161  19.613  0.00  0.00    +0.000 A 
ATOM     22  C   UNL     1       1.143  10.449  19.144  0.00  0.00    +0.000 A 
ATOM     23  C   UNL     1       0.481  11.385  19.959  0.00  0.00    +0.000 A 
ATOM     24  C   UNL     1       0.031  11.046  21.248  0.00  0.00    +0.000 A 
ATOM     25  C   UNL     1       0.338   9.758  21.719  0.00  0.00    +0.000 A 
ATOM     26  C   UNL     1       1.013   8.833  20.918  0.00  0.00    +0.000 A 
BRANCH  24  27
ATOM     27  C   UNL     1      -0.763  11.995  22.060  0.00  0.00    +0.000 A 
ATOM     28  C   UNL     1      -1.899  11.592  22.780  0.00  0.00    +0.000 A 
ATOM     29  C   UNL     1      -2.612  12.502  23.560  0.00  0.00    +0.000 A 
ATOM     30  C   UNL     1      -2.167  13.810  23.615  0.00  0.00    +0.000 A 
ATOM     31  N   UNL     1      -1.082  14.254  22.950  0.00  0.00    +0.000 NA
ATOM     32  C   UNL     1      -0.417  13.344  22.196  0.00  0.00    +0.000 A 
ENDBRANCH  24  27
ENDBRANCH  20  21
ENDBRANCH  18  20
ENDBRANCH   6  18
TORSDOF 7
ENDMDL
MODEL 4
REMARK VINA RESULT:      -8.2      1.089      1.544
REMARK  Name = 
REMARK  10 active torsions:
REMARK  status: ('A' for Active; 'I' for Inactive)
REMARK    1  A    between atoms: C_1  and  S_2
REMARK    2  A    between atoms: S_2  and  C_3
REMARK    3  A    between atoms: C_6  and  C_7
REMARK    4  A    between atoms: C_12  and  C_13
REMARK    5  A    between atoms: C_13  and  C_14
REMARK    6  A    between atoms: C_13  and  C_15
REMARK    7  A    between atoms: C_17  and  N_18
REMARK    8  A    between atoms: N_18  and  C_19
REMARK    9  A    between atoms: C_19  and  C_20
REMARK   10  A    between atoms: C_23  and  C_24
REMARK                            x       y       z     vdW  Elec       q    Type
REMARK                         _______ _______ _______ _____ _____    ______ ____
ROOT
ATOM      1  C   UNL     1       3.122   3.593  19.474  0.00  0.00    +0.000 A 
ATOM      2  C   UNL     1       3.763   2.626  18.725  0.00  0.00    +0.000 A 
ATOM      3  N   UNL     1       4.350   2.842  17.533  0.00  0.00    +0.000 NA
ATOM      4  C   UNL     1       4.304   4.099  17.060  0.00  0.00    +0.000 A 
ATOM      5  N   UNL     1       3.630   5.093  17.667  0.00  0.00    +0.000 NA
ATOM      6  C   UNL     1       3.039   4.847  18.865  0.00  0.00    +0.000 A 
ENDROOT
BRANCH   4   7
ATOM      7  C   UNL     1       5.314   4.443  16.019  0.00  0.00    +0.000 A 
ATOM      8  C   UNL     1       5.105   3.875  14.731  0.00  0.00    +0.000 A 
ATOM      9  C   UNL     1       6.013   4.006  13.682  0.00  0.00    +0.000 A 
ATOM     10  C   UNL     1       7.178   4.717  13.886  0.00  0.00    +0.000 A 
ATOM     11  C   UNL     1       7.413   5.315  15.122  0.00  0.00    +0.000 A 
ATOM     12  C   UNL     1       6.496   5.218  16.200  0.00  0.00    +0.000 A 
BRANCH  12  13
ATOM     13  C   UNL     1       6.841   5.943  17.503  0.00  0.00    +0.000 C 
ATOM     14  C   UNL     1       7.746   5.074  18.385  0.00  0.00    +0.000 C 
ATOM     15  C   UNL     1       7.527   7.310  17.307  0.00  0.00    +0.000 C 
ENDBRANCH  12  13
ENDBRANCH   4   7
BRANCH   1  17
ATOM     16  C   UNL     1       0.782   2.938  20.746  0.00  0.00    +0.000 C 
ATOM     17  S   UNL     1       2.556   3.106  21.092  0.00  0.00    +0.000 S 
ENDBRANCH   1  17
BRANCH   6  18
ATOM     18  N   UNL     1       2.489   5.996  19.418  0.00  0.00    +0.000 N 
ATOM     19  H   UNL     1       2.325   5.799  20.404  0.00  0.00    +0.000 HD
BRANCH  18  20
ATOM     20  C   UNL     1       3.046   7.313  19.181  0.00  0.00    +0.000 C 
BRANCH  20  21
ATOM     21  C   UNL     1       1.956   8.364  19.182  0.00  0.00    +0.000 A 
ATOM     22  C   UNL     1       1.521   8.951  17.995  0.00  0.00    +0.000 A 
ATOM     23  C   UNL     1       0.401   9.802  17.989  0.00  0.00    +0.000 A 
ATOM     24  C   UNL     1      -0.329  10.061  19.163  0.00  0.00    +0.000 A 
ATOM     25  C   UNL     1       0.151   9.497  20.357  0.00  0.00    +0.000 A 
ATOM     26  C   UNL     1       1.276   8.666  20.369  0.00  0.00    +0.000 A 
BRANCH  24  27
ATOM     27  C   UNL     1      -1.571  10.865  19.134  0.00  0.00    +0.000 A 
ATOM     28  C   UNL     1      -2.567  10.667  18.165  0.00  0.00    +0.000 A 
ATOM     29  C   UNL     1      -3.740  11.420  18.180  0.00  0.00    +0.000 A 
ATOM     30  C   UNL     1      -3.904  12.361  19.180  0.00  0.00    +0.000 A 
ATOM     31  N   UNL     1      -2.986  12.593  20.139  0.00  0.00    +0.000 NA
ATOM     32  C   UNL     1      -1.854  11.848  20.090  0.00  0.00    +0.000 A 
ENDBRANCH  24  27
ENDBRANCH  20  21
ENDBRANCH  18  20
ENDBRANCH   6  18
TORSDOF 7
ENDMDL
MODEL 5
REMARK VINA RESULT:      -8.2      0.776      1.335
REMARK  Name = 
REMARK  10 active torsions:
REMARK  status: ('A' for Active; 'I' for Inactive)
REMARK    1  A    between atoms: C_1  and  S_2
REMARK    2  A    between atoms: S_2  and  C_3
REMARK    3  A    between atoms: C_6  and  C_7
REMARK    4  A    between atoms: C_12  and  C_13
REMARK    5  A    between atoms: C_13  and  C_14
REMARK    6  A    between atoms: C_13  and  C_15
REMARK    7  A    between atoms: C_17  and  N_18
REMARK    8  A    between atoms: N_18  and  C_19
REMARK    9  A    between atoms: C_19  and  C_20
REMARK   10  A    between atoms: C_23  and  C_24
REMARK                            x       y       z     vdW  Elec       q    Type
REMARK                         _______ _______ _______ _____ _____    ______ ____
ROOT
ATOM      1  C   UNL     1       2.462   4.321  19.299  0.00  0.00    +0.000 A 
ATOM      2  C   UNL     1       2.928   3.265  18.541  0.00  0.00    +0.000 A 
ATOM      3  N   UNL     1       3.677   3.390  17.430  0.00  0.00    +0.000 NA
ATOM      4  C   UNL     1       3.989   4.642  17.053  0.00  0.00    +0.000 A 
ATOM      5  N   UNL     1       3.512   5.739  17.670  0.00  0.00    +0.000 NA
ATOM      6  C   UNL     1       2.751   5.586  18.784  0.00  0.00    +0.000 A 
ENDROOT
BRANCH   4   7
ATOM      7  C   UNL     1       5.160   4.777  16.141  0.00  0.00    +0.000 A 
ATOM      8  C   UNL     1       5.036   4.158  14.866  0.00  0.00    +0.000 A 
ATOM      9  C   UNL     1       6.078   4.097  13.943  0.00  0.00    +0.000 A 
ATOM     10  C   UNL     1       7.297   4.657  14.265  0.00  0.00    +0.000 A 
ATOM     11  C   UNL     1       7.457   5.300  15.491  0.00  0.00    +0.000 A 
ATOM     12  C   UNL     1       6.407   5.399  16.441  0.00  0.00    +0.000 A 
BRANCH  12  13
ATOM     13  C   UNL     1       6.685   6.156  17.741  0.00  0.00    +0.000 C 
ATOM     14  C   UNL     1       7.542   5.310  18.690  0.00  0.00    +0.000 C 
ATOM     15  C   UNL     1       7.380   7.518  17.547  0.00  0.00    +0.000 C 
ENDBRANCH  12  13
ENDBRANCH   4   7
BRANCH   1  17
ATOM     16  C   UNL     1       2.748   2.629  21.440  0.00  0.00    +0.000 C 
ATOM     17  S   UNL     1       1.620   3.907  20.815  0.00  0.00    +0.000 S 
ENDBRANCH   1  17
BRANCH   6  18
ATOM     18  N   UNL     1       2.438   6.805  19.370  0.00  0.00    +0.000 N 
ATOM     19  H   UNL     1       3.067   6.922  20.163  0.00  0.00    +0.000 HD
BRANCH  18  20
ATOM     20  C   UNL     1       2.265   8.017  18.593  0.00  0.00    +0.000 C 
BRANCH  20  21
ATOM     21  C   UNL     1       1.246   8.929  19.244  0.00  0.00    +0.000 A 
ATOM     22  C   UNL     1       1.044   8.911  20.623  0.00  0.00    +0.000 A 
ATOM     23  C   UNL     1       0.217   9.872  21.233  0.00  0.00    +0.000 A 
ATOM     24  C   UNL     1      -0.401  10.890  20.485  0.00  0.00    +0.000 A 
ATOM     25  C   UNL     1      -0.221  10.864  19.092  0.00  0.00    +0.000 A 
ATOM     26  C   UNL     1       0.585   9.899  18.480  0.00  0.00    +0.000 A 
BRANCH  24  27
ATOM     27  C   UNL     1      -1.178  11.964  21.142  0.00  0.00    +0.000 A 
ATOM     28  C   UNL     1      -1.948  12.883  20.411  0.00  0.00    +0.000 A 
ATOM     29  C   UNL     1      -2.693  13.867  21.058  0.00  0.00    +0.000 A 
ATOM     30  C   UNL     1      -2.665  13.911  22.440  0.00  0.00    +0.000 A 
ATOM     31  N   UNL     1      -1.949  13.054  23.195  0.00  0.00    +0.000 NA
ATOM     32  C   UNL     1      -1.231  12.115  22.532  0.00  0.00    +0.000 A 
ENDBRANCH  24  27
ENDBRANCH  20  21
ENDBRANCH  18  20
ENDBRANCH   6  18
TORSDOF 7
ENDMDL
MODEL 6
REMARK VINA RESULT:      -7.9      2.505      4.111
REMARK  Name = 
REMARK  10 active torsions:
REMARK  status: ('A' for Active; 'I' for Inactive)
REMARK    1  A    between atoms: C_1  and  S_2
REMARK    2  A    between atoms: S_2  and  C_3
REMARK    3  A    between atoms: C_6  and  C_7
REMARK    4  A    between atoms: C_12  and  C_13
REMARK    5  A    between atoms: C_13  and  C_14
REMARK    6  A    between atoms: C_13  and  C_15
REMARK    7  A    between atoms: C_17  and  N_18
REMARK    8  A    between atoms: N_18  and  C_19
REMARK    9  A    between atoms: C_19  and  C_20
REMARK   10  A    between atoms: C_23  and  C_24
REMARK                            x       y       z     vdW  Elec       q    Type
REMARK                         _______ _______ _______ _____ _____    ______ ____
ROOT
ATOM      1  C   UNL     1       1.620   8.123  20.705  0.00  0.00    +0.000 A 
ATOM      2  C   UNL     1       2.051   6.827  20.911  0.00  0.00    +0.000 A 
ATOM      3  N   UNL     1       2.558   6.026  19.957  0.00  0.00    +0.000 NA
ATOM      4  C   UNL     1       2.650   6.547  18.721  0.00  0.00    +0.000 A 
ATOM      5  N   UNL     1       2.178   7.765  18.396  0.00  0.00    +0.000 NA
ATOM      6  C   UNL     1       1.664   8.551  19.376  0.00  0.00    +0.000 A 
ENDROOT
BRANCH   4   7
ATOM      7  C   UNL     1       3.606   5.872  17.797  0.00  0.00    +0.000 A 
ATOM      8  C   UNL     1       4.379   6.727  16.962  0.00  0.00    +0.000 A 
ATOM      9  C   UNL     1       5.234   6.253  15.968  0.00  0.00    +0.000 A 
ATOM     10  C   UNL     1       5.346   4.892  15.770  0.00  0.00    +0.000 A 
ATOM     11  C   UNL     1       4.630   4.016  16.582  0.00  0.00    +0.000 A 
ATOM     12  C   UNL     1       3.771   4.469  17.617  0.00  0.00    +0.000 A 
BRANCH  12  13
ATOM     13  C   UNL     1       3.058   3.416  18.470  0.00  0.00    +0.000 C 
ATOM     14  C   UNL     1       2.443   2.325  17.585  0.00  0.00    +0.000 C 
ATOM     15  C   UNL     1       3.957   2.735  19.521  0.00  0.00    +0.000 C 
ENDBRANCH  12  13
ENDBRANCH   4   7
BRANCH   1  17
ATOM     16  C   UNL     1      -0.663   8.781  22.076  0.00  0.00    +0.000 C 
ATOM     17  S   UNL     1       1.132   9.043  22.151  0.00  0.00    +0.000 S 
ENDBRANCH   1  17
BRANCH   6  18
ATOM     18  N   UNL     1       1.332   9.815  18.908  0.00  0.00    +0.000 N 
ATOM     19  H   UNL     1       2.179  10.379  18.953  0.00  0.00    +0.000 HD
BRANCH  18  20
ATOM     20  C   UNL     1       0.576  10.015  17.686  0.00  0.00    +0.000 C 
BRANCH  20  21
ATOM     21  C   UNL     1      -0.860  10.380  18.000  0.00  0.00    +0.000 A 
ATOM     22  C   UNL     1      -1.165  11.321  18.982  0.00  0.00    +0.000 A 
ATOM     23  C   UNL     1      -2.487  11.770  19.151  0.00  0.00    +0.000 A 
ATOM     24  C   UNL     1      -3.529  11.314  18.324  0.00  0.00    +0.000 A 
ATOM     25  C   UNL     1      -3.210  10.332  17.370  0.00  0.00    +0.000 A 
ATOM     26  C   UNL     1      -1.900   9.870  17.213  0.00  0.00    +0.000 A 
BRANCH  24  27
ATOM     27  C   UNL     1      -4.895  11.871  18.430  0.00  0.00    +0.000 A 
ATOM     28  C   UNL     1      -5.425  12.322  19.650  0.00  0.00    +0.000 A 
ATOM     29  C   UNL     1      -6.706  12.868  19.715  0.00  0.00    +0.000 A 
ATOM     30  C   UNL     1      -7.439  12.966  18.547  0.00  0.00    +0.000 A 
ATOM     31  N   UNL     1      -6.983  12.555  17.347  0.00  0.00    +0.000 NA
ATOM     32  C   UNL     1      -5.736  12.022  17.322  0.00  0.00    +0.000 A 
ENDBRANCH  24  27
ENDBRANCH  20  21
ENDBRANCH  18  20
ENDBRANCH   6  18
TORSDOF 7
ENDMDL
MODEL 7
REMARK VINA RESULT:      -7.9      4.260      8.267
REMARK  Name = 
REMARK  10 active torsions:
REMARK  status: ('A' for Active; 'I' for Inactive)
REMARK    1  A    between atoms: C_1  and  S_2
REMARK    2  A    between atoms: S_2  and  C_3
REMARK    3  A    between atoms: C_6  and  C_7
REMARK    4  A    between atoms: C_12  and  C_13
REMARK    5  A    between atoms: C_13  and  C_14
REMARK    6  A    between atoms: C_13  and  C_15
REMARK    7  A    between atoms: C_17  and  N_18
REMARK    8  A    between atoms: N_18  and  C_19
REMARK    9  A    between atoms: C_19  and  C_20
REMARK   10  A    between atoms: C_23  and  C_24
REMARK                            x       y       z     vdW  Elec       q    Type
REMARK                         _______ _______ _______ _____ _____    ______ ____
ROOT
ATOM      1  C   UNL     1       6.088   4.731  15.957  0.00  0.00    +0.000 A 
ATOM      2  C   UNL     1       4.866   4.092  16.036  0.00  0.00    +0.000 A 
ATOM      3  N   UNL     1       4.009   4.200  17.068  0.00  0.00    +0.000 NA
ATOM      4  C   UNL     1       4.386   5.000  18.082  0.00  0.00    +0.000 A 
ATOM      5  N   UNL     1       5.592   5.595  18.142  0.00  0.00    +0.000 NA
ATOM      6  C   UNL     1       6.442   5.464  17.092  0.00  0.00    +0.000 A 
ENDROOT
BRANCH   4   7
ATOM      7  C   UNL     1       3.294   5.486  18.972  0.00  0.00    +0.000 A 
ATOM      8  C   UNL     1       2.988   6.873  18.889  0.00  0.00    +0.000 A 
ATOM      9  C   UNL     1       2.075   7.505  19.730  0.00  0.00    +0.000 A 
ATOM     10  C   UNL     1       1.427   6.764  20.698  0.00  0.00    +0.000 A 
ATOM     11  C   UNL     1       1.673   5.397  20.798  0.00  0.00    +0.000 A 
ATOM     12  C   UNL     1       2.580   4.722  19.940  0.00  0.00    +0.000 A 
BRANCH  12  13
ATOM     13  C   UNL     1       2.748   3.211  20.119  0.00  0.00    +0.000 C 
ATOM     14  C   UNL     1       2.476   2.803  21.572  0.00  0.00    +0.000 C 
ATOM     15  C   UNL     1       1.849   2.359  19.202  0.00  0.00    +0.000 C 
ENDBRANCH  12  13
ENDBRANCH   4   7
BRANCH   1  17
ATOM     16  C   UNL     1       5.673   3.832  13.399  0.00  0.00    +0.000 C 
ATOM     17  S   UNL     1       6.981   4.559  14.424  0.00  0.00    +0.000 S 
ENDBRANCH   1  17
BRANCH   6  18
ATOM     18  N   UNL     1       7.588   6.230  17.252  0.00  0.00    +0.000 N 
ATOM     19  H   UNL     1       7.559   6.958  16.540  0.00  0.00    +0.000 HD
BRANCH  18  20
ATOM     20  C   UNL     1       8.022   6.714  18.548  0.00  0.00    +0.000 C 
BRANCH  20  21
ATOM     21  C   UNL     1       8.227   8.214  18.518  0.00  0.00    +0.000 A 
ATOM     22  C   UNL     1       9.057   8.845  19.444  0.00  0.00    +0.000 A 
ATOM     23  C   UNL     1       9.368  10.209  19.307  0.00  0.00    +0.000 A 
ATOM     24  C   UNL     1       8.884  10.968  18.226  0.00  0.00    +0.000 A 
ATOM     25  C   UNL     1       8.013  10.326  17.329  0.00  0.00    +0.000 A 
ATOM     26  C   UNL     1       7.686   8.975  17.474  0.00  0.00    +0.000 A 
BRANCH  24  27
ATOM     27  C   UNL     1       9.302  12.373  18.023  0.00  0.00    +0.000 A 
ATOM     28  C   UNL     1       8.500  13.455  18.418  0.00  0.00    +0.000 A 
ATOM     29  C   UNL     1       8.932  14.768  18.240  0.00  0.00    +0.000 A 
ATOM     30  C   UNL     1      10.177  14.980  17.675  0.00  0.00    +0.000 A 
ATOM     31  N   UNL     1      10.993  13.982  17.281  0.00  0.00    +0.000 NA
ATOM     32  C   UNL     1      10.537  12.718  17.462  0.00  0.00    +0.000 A 
ENDBRANCH  24  27
ENDBRANCH  20  21
ENDBRANCH  18  20
ENDBRANCH   6  18
TORSDOF 7
ENDMDL
MODEL 8
REMARK VINA RESULT:      -7.9      1.841      2.368
REMARK  Name = 
REMARK  10 active torsions:
REMARK  status: ('A' for Active; 'I' for Inactive)
REMARK    1  A    between atoms: C_1  and  S_2
REMARK    2  A    between atoms: S_2  and  C_3
REMARK    3  A    between atoms: C_6  and  C_7
REMARK    4  A    between atoms: C_12  and  C_13
REMARK    5  A    between atoms: C_13  and  C_14
REMARK    6  A    between atoms: C_13  and  C_15
REMARK    7  A    between atoms: C_17  and  N_18
REMARK    8  A    between atoms: N_18  and  C_19
REMARK    9  A    between atoms: C_19  and  C_20
REMARK   10  A    between atoms: C_23  and  C_24
REMARK                            x       y       z     vdW  Elec       q    Type
REMARK                         _______ _______ _______ _____ _____    ______ ____
ROOT
ATOM      1  C   UNL     1       2.637   4.387  19.653  0.00  0.00    +0.000 A 
ATOM      2  C   UNL     1       2.953   3.375  18.769  0.00  0.00    +0.000 A 
ATOM      3  N   UNL     1       3.631   3.544  17.619  0.00  0.00    +0.000 NA
ATOM      4  C   UNL     1       4.026   4.797  17.333  0.00  0.00    +0.000 A 
ATOM      5  N   UNL     1       3.693   5.865  18.081  0.00  0.00    +0.000 NA
ATOM      6  C   UNL     1       3.001   5.669  19.233  0.00  0.00    +0.000 A 
ENDROOT
BRANCH   4   7
ATOM      7  C   UNL     1       5.138   4.923  16.348  0.00  0.00    +0.000 A 
ATOM      8  C   UNL     1       4.954   4.253  15.106  0.00  0.00    +0.000 A 
ATOM      9  C   UNL     1       5.941   4.178  14.126  0.00  0.00    +0.000 A 
ATOM     10  C   UNL     1       7.163   4.777  14.354  0.00  0.00    +0.000 A 
ATOM     11  C   UNL     1       7.379   5.469  15.544  0.00  0.00    +0.000 A 
ATOM     12  C   UNL     1       6.384   5.582  16.550  0.00  0.00    +0.000 A 
BRANCH  12  13
ATOM     13  C   UNL     1       6.720   6.394  17.803  0.00  0.00    +0.000 C 
ATOM     14  C   UNL     1       7.454   5.526  18.833  0.00  0.00    +0.000 C 
ATOM     15  C   UNL     1       7.572   7.651  17.536  0.00  0.00    +0.000 C 
ENDBRANCH  12  13
ENDBRANCH   4   7
BRANCH   1  17
ATOM     16  C   UNL     1       2.844   2.411  21.545  0.00  0.00    +0.000 C 
ATOM     17  S   UNL     1       1.870   3.900  21.186  0.00  0.00    +0.000 S 
ENDBRANCH   1  17
BRANCH   6  18
ATOM     18  N   UNL     1       2.839   6.847  19.949  0.00  0.00    +0.000 N 
ATOM     19  H   UNL     1       3.290   7.584  19.410  0.00  0.00    +0.000 HD
BRANCH  18  20
ATOM     20  C   UNL     1       1.562   7.245  20.508  0.00  0.00    +0.000 C 
BRANCH  20  21
ATOM     21  C   UNL     1       1.263   8.693  20.181  0.00  0.00    +0.000 A 
ATOM     22  C   UNL     1       0.883   9.590  21.179  0.00  0.00    +0.000 A 
ATOM     23  C   UNL     1       0.767  10.963  20.893  0.00  0.00    +0.000 A 
ATOM     24  C   UNL     1       1.057  11.475  19.616  0.00  0.00    +0.000 A 
ATOM     25  C   UNL     1       1.394  10.548  18.614  0.00  0.00    +0.000 A 
ATOM     26  C   UNL     1       1.491   9.181  18.889  0.00  0.00    +0.000 A 
BRANCH  24  27
ATOM     27  C   UNL     1       1.042  12.929  19.348  0.00  0.00    +0.000 A 
ATOM     28  C   UNL     1       2.206  13.712  19.412  0.00  0.00    +0.000 A 
ATOM     29  C   UNL     1       2.168  15.076  19.126  0.00  0.00    +0.000 A 
ATOM     30  C   UNL     1       0.957  15.638  18.768  0.00  0.00    +0.000 A 
ATOM     31  N   UNL     1      -0.191  14.938  18.684  0.00  0.00    +0.000 NA
ATOM     32  C   UNL     1      -0.119  13.616  18.976  0.00  0.00    +0.000 A 
ENDBRANCH  24  27
ENDBRANCH  20  21
ENDBRANCH  18  20
ENDBRANCH   6  18
TORSDOF 7
ENDMDL
MODEL 9
REMARK VINA RESULT:      -7.8      1.046      1.476
REMARK  Name = 
REMARK  10 active torsions:
REMARK  status: ('A' for Active; 'I' for Inactive)
REMARK    1  A    between atoms: C_1  and  S_2
REMARK    2  A    between atoms: S_2  and  C_3
REMARK    3  A    between atoms: C_6  and  C_7
REMARK    4  A    between atoms: C_12  and  C_13
REMARK    5  A    between atoms: C_13  and  C_14
REMARK    6  A    between atoms: C_13  and  C_15
REMARK    7  A    between atoms: C_17  and  N_18
REMARK    8  A    between atoms: N_18  and  C_19
REMARK    9  A    between atoms: C_19  and  C_20
REMARK   10  A    between atoms: C_23  and  C_24
REMARK                            x       y       z     vdW  Elec       q    Type
REMARK                         _______ _______ _______ _____ _____    ______ ____
ROOT
ATOM      1  C   UNL     1       2.609   4.972  19.285  0.00  0.00    +0.000 A 
ATOM      2  C   UNL     1       3.075   3.838  18.650  0.00  0.00    +0.000 A 
ATOM      3  N   UNL     1       3.832   3.838  17.538  0.00  0.00    +0.000 NA
ATOM      4  C   UNL     1       4.153   5.041  17.029  0.00  0.00    +0.000 A 
ATOM      5  N   UNL     1       3.677   6.201  17.520  0.00  0.00    +0.000 NA
ATOM      6  C   UNL     1       2.908   6.173  18.638  0.00  0.00    +0.000 A 
ENDROOT
BRANCH   4   7
ATOM      7  C   UNL     1       5.331   5.072  16.116  0.00  0.00    +0.000 A 
ATOM      8  C   UNL     1       5.167   4.426  14.859  0.00  0.00    +0.000 A 
ATOM      9  C   UNL     1       6.203   4.268  13.941  0.00  0.00    +0.000 A 
ATOM     10  C   UNL     1       7.457   4.755  14.250  0.00  0.00    +0.000 A 
ATOM     11  C   UNL     1       7.658   5.420  15.458  0.00  0.00    +0.000 A 
ATOM     12  C   UNL     1       6.617   5.617  16.402  0.00  0.00    +0.000 A 
BRANCH  12  13
ATOM     13  C   UNL     1       6.944   6.390  17.681  0.00  0.00    +0.000 C 
ATOM     14  C   UNL     1       7.747   5.518  18.653  0.00  0.00    +0.000 C 
ATOM     15  C   UNL     1       7.724   7.700  17.449  0.00  0.00    +0.000 C 
ENDBRANCH  12  13
ENDBRANCH   4   7
BRANCH   1  17
ATOM     16  C   UNL     1       0.884   3.183  20.447  0.00  0.00    +0.000 C 
ATOM     17  S   UNL     1       1.755   4.729  20.831  0.00  0.00    +0.000 S 
ENDBRANCH   1  17
BRANCH   6  18
ATOM     18  N   UNL     1       2.597   7.450  19.086  0.00  0.00    +0.000 N 
ATOM     19  H   UNL     1       3.294   7.694  19.788  0.00  0.00    +0.000 HD
BRANCH  18  20
ATOM     20  C   UNL     1       2.294   8.537  18.177  0.00  0.00    +0.000 C 
BRANCH  20  21
ATOM     21  C   UNL     1       0.965   9.174  18.528  0.00  0.00    +0.000 A 
ATOM     22  C   UNL     1       0.730   9.691  19.801  0.00  0.00    +0.000 A 
ATOM     23  C   UNL     1      -0.441  10.423  20.067  0.00  0.00    +0.000 A 
ATOM     24  C   UNL     1      -1.390  10.681  19.061  0.00  0.00    +0.000 A 
ATOM     25  C   UNL     1      -1.157  10.113  17.797  0.00  0.00    +0.000 A 
ATOM     26  C   UNL     1      -0.003   9.370  17.535  0.00  0.00    +0.000 A 
BRANCH  24  27
ATOM     27  C   UNL     1      -2.564  11.544  19.314  0.00  0.00    +0.000 A 
ATOM     28  C   UNL     1      -2.569  12.521  20.322  0.00  0.00    +0.000 A 
ATOM     29  C   UNL     1      -3.680  13.340  20.520  0.00  0.00    +0.000 A 
ATOM     30  C   UNL     1      -4.774  13.174  19.691  0.00  0.00    +0.000 A 
ATOM     31  N   UNL     1      -4.826  12.257  18.704  0.00  0.00    +0.000 NA
ATOM     32  C   UNL     1      -3.731  11.473  18.546  0.00  0.00    +0.000 A 
ENDBRANCH  24  27
ENDBRANCH  20  21
ENDBRANCH  18  20
ENDBRANCH   6  18
TORSDOF 7
ENDMDL
