MODEL 1
REMARK VINA RESULT:      -9.2      0.000      0.000
REMARK  Name = 
REMARK  7 active torsions:
REMARK  status: ('A' for Active; 'I' for Inactive)
REMARK    1  A    between atoms: C_1  and  C_2
REMARK    2  A    between atoms: C_6  and  C_8
REMARK    3  A    between atoms: C_11  and  C_12
REMARK    4  A    between atoms: C_12  and  S_13
REMARK    5  A    between atoms: S_13  and  C_14
REMARK    6  A    between atoms: N_22  and  C_23
REMARK    7  A    between atoms: C_23  and  C_24
REMARK                            x       y       z     vdW  Elec       q    Type
REMARK                         _______ _______ _______ _____ _____    ______ ____
ROOT
ATOM      1  S   UNL     1       2.389   7.480  18.798  0.00  0.00    +0.000 S 
ENDROOT
BRANCH   1   2
ATOM      2  C   UNL     1       3.655   6.646  17.965  0.00  0.00    +0.000 A 
ATOM      3  N   UNL     1       4.863   7.121  17.767  0.00  0.00    +0.000 NA
ATOM      4  C   UNL     1       5.546   6.119  17.113  0.00  0.00    +0.000 A 
ATOM      5  C   UNL     1       6.876   6.083  16.692  0.00  0.00    +0.000 A 
ATOM      6  C   UNL     1       7.275   4.914  16.071  0.00  0.00    +0.000 A 
ATOM      7  N   UNL     1       6.475   3.846  15.841  0.00  0.00    +0.000 NA
ATOM      8  C   UNL     1       5.186   3.884  16.246  0.00  0.00    +0.000 A 
ATOM      9  C   UNL     1       4.729   5.023  16.895  0.00  0.00    +0.000 A 
ATOM     10  N   UNL     1       3.521   5.371  17.467  0.00  0.00    +0.000 N 
BRANCH  10  11
ATOM     11  C   UNL     1       2.358   4.497  17.531  0.00  0.00    +0.000 C 
BRANCH  11  12
ATOM     12  C   UNL     1       2.181   3.764  18.849  0.00  0.00    +0.000 A 
ATOM     13  C   UNL     1       3.248   3.383  19.683  0.00  0.00    +0.000 A 
ATOM     14  C   UNL     1       3.007   2.802  20.931  0.00  0.00    +0.000 A 
ATOM     15  C   UNL     1       1.702   2.587  21.349  0.00  0.00    +0.000 A 
ATOM     16  F   UNL     1       1.473   2.065  22.562  0.00  0.00    +0.000 F 
ATOM     17  C   UNL     1       0.630   2.914  20.531  0.00  0.00    +0.000 A 
ATOM     18  C   UNL     1       0.868   3.496  19.284  0.00  0.00    +0.000 A 
ENDBRANCH  11  12
ENDBRANCH  10  11
ENDBRANCH   1   2
BRANCH   1  19
ATOM     19  C   UNL     1       2.368   9.077  17.913  0.00  0.00    +0.000 C 
BRANCH  19  23
ATOM     20  C   UNL     1      -1.292  11.214  18.875  0.00  0.00    +0.000 A 
ATOM     21  C   UNL     1      -0.063  11.653  19.381  0.00  0.00    +0.000 A 
ATOM     22  C   UNL     1       1.126  10.982  19.059  0.00  0.00    +0.000 A 
ATOM     23  C   UNL     1       1.106   9.857  18.219  0.00  0.00    +0.000 A 
ATOM     24  C   UNL     1      -0.125   9.431  17.703  0.00  0.00    +0.000 A 
ATOM     25  C   UNL     1      -1.313  10.069  18.072  0.00  0.00    +0.000 A 
BRANCH  20  31
ATOM     26  C   UNL     1      -4.148  12.296  24.600  0.00  0.00    +0.000 C 
ATOM     27  C   UNL     1      -3.504  12.845  23.329  0.00  0.00    +0.000 C 
ATOM     28  C   UNL     1      -4.500  12.901  22.163  0.00  0.00    +0.000 C 
ATOM     29  C   UNL     1      -3.822  13.336  20.860  0.00  0.00    +0.000 C 
ATOM     30  N   UNL     1      -2.643  12.516  20.564  0.00  0.00    +0.000 N 
ATOM     31  C   UNL     1      -2.531  11.933  19.294  0.00  0.00    +0.000 C 
ATOM     32  O   UNL     1      -3.449  11.979  18.472  0.00  0.00    +0.000 OA
ATOM     33  C   UNL     1      -1.667  12.428  21.650  0.00  0.00    +0.000 C 
ATOM     34  C   UNL     1      -2.309  11.970  22.950  0.00  0.00    +0.000 C 
ENDBRANCH  20  31
ENDBRANCH  19  23
ENDBRANCH   1  19
TORSDOF 6
ENDMDL
MODEL 2
REMARK VINA RESULT:      -9.1      3.701      9.661
REMARK  Name = 
REMARK  7 active torsions:
REMARK  status: ('A' for Active; 'I' for Inactive)
REMARK    1  A    between atoms: C_1  and  C_2
REMARK    2  A    between atoms: C_6  and  C_8
REMARK    3  A    between atoms: C_11  and  C_12
REMARK    4  A    between atoms: C_12  and  S_13
REMARK    5  A    between atoms: S_13  and  C_14
REMARK    6  A    between atoms: N_22  and  C_23
REMARK    7  A    between atoms: C_23  and  C_24
REMARK                            x       y       z     vdW  Elec       q    Type
REMARK                         _______ _______ _______ _____ _____    ______ ____
ROOT
ATOM      1  S   UNL     1      -0.184   9.510  21.105  0.00  0.00    +0.000 S 
ENDROOT
BRANCH   1   2
ATOM      2  C   UNL     1       0.598  10.969  20.599  0.00  0.00    +0.000 A 
ATOM      3  N   UNL     1       1.227  11.799  21.398  0.00  0.00    +0.000 NA
ATOM      4  C   UNL     1       1.729  12.785  20.577  0.00  0.00    +0.000 A 
ATOM      5  C   UNL     1       2.507  13.897  20.904  0.00  0.00    +0.000 A 
ATOM      6  C   UNL     1       2.873  14.702  19.840  0.00  0.00    +0.000 A 
ATOM      7  N   UNL     1       2.521  14.492  18.551  0.00  0.00    +0.000 NA
ATOM      8  C   UNL     1       1.764  13.416  18.238  0.00  0.00    +0.000 A 
ATOM      9  C   UNL     1       1.381  12.556  19.258  0.00  0.00    +0.000 A 
ATOM     10  N   UNL     1       0.669  11.373  19.287  0.00  0.00    +0.000 N 
BRANCH  10  11
ATOM     11  C   UNL     1       0.139  10.702  18.108  0.00  0.00    +0.000 C 
BRANCH  11  12
ATOM     12  C   UNL     1      -1.373  10.756  17.967  0.00  0.00    +0.000 A 
ATOM     13  C   UNL     1      -2.189  11.688  18.634  0.00  0.00    +0.000 A 
ATOM     14  C   UNL     1      -3.562  11.746  18.379  0.00  0.00    +0.000 A 
ATOM     15  C   UNL     1      -4.131  10.868  17.468  0.00  0.00    +0.000 A 
ATOM     16  F   UNL     1      -5.440  10.952  17.197  0.00  0.00    +0.000 F 
ATOM     17  C   UNL     1      -3.358   9.910  16.826  0.00  0.00    +0.000 A 
ATOM     18  C   UNL     1      -1.985   9.851  17.078  0.00  0.00    +0.000 A 
ENDBRANCH  11  12
ENDBRANCH  10  11
ENDBRANCH   1   2
BRANCH   1  19
ATOM     19  C   UNL     1       1.230   8.548  21.743  0.00  0.00    +0.000 C 
BRANCH  19  23
ATOM     20  C   UNL     1       2.460   5.590  18.807  0.00  0.00    +0.000 A 
ATOM     21  C   UNL     1       2.491   6.954  18.492  0.00  0.00    +0.000 A 
ATOM     22  C   UNL     1       2.115   7.916  19.440  0.00  0.00    +0.000 A 
ATOM     23  C   UNL     1       1.704   7.530  20.726  0.00  0.00    +0.000 A 
ATOM     24  C   UNL     1       1.690   6.165  21.041  0.00  0.00    +0.000 A 
ATOM     25  C   UNL     1       2.012   5.207  20.075  0.00  0.00    +0.000 A 
BRANCH  20  31
ATOM     26  C   UNL     1       7.305   5.175  14.510  0.00  0.00    +0.000 C 
ATOM     27  C   UNL     1       6.537   4.576  15.685  0.00  0.00    +0.000 C 
ATOM     28  C   UNL     1       5.284   3.821  15.222  0.00  0.00    +0.000 C 
ATOM     29  C   UNL     1       4.452   3.325  16.409  0.00  0.00    +0.000 C 
ATOM     30  N   UNL     1       4.149   4.409  17.348  0.00  0.00    +0.000 N 
ATOM     31  C   UNL     1       2.818   4.607  17.742  0.00  0.00    +0.000 C 
ATOM     32  O   UNL     1       1.886   3.987  17.224  0.00  0.00    +0.000 OA
ATOM     33  C   UNL     1       5.314   5.163  17.813  0.00  0.00    +0.000 C 
ATOM     34  C   UNL     1       6.144   5.691  16.653  0.00  0.00    +0.000 C 
ENDBRANCH  20  31
ENDBRANCH  19  23
ENDBRANCH   1  19
TORSDOF 6
ENDMDL
MODEL 3
REMARK VINA RESULT:      -9.1      3.611     10.082
REMARK  Name = 
REMARK  7 active torsions:
REMARK  status: ('A' for Active; 'I' for Inactive)
REMARK    1  A    between atoms: C_1  and  C_2
REMARK    2  A    between atoms: C_6  and  C_8
REMARK    3  A    between atoms: C_11  and  C_12
REMARK    4  A    between atoms: C_12  and  S_13
REMARK    5  A    between atoms: S_13  and  C_14
REMARK    6  A    between atoms: N_22  and  C_23
REMARK    7  A    between atoms: C_23  and  C_24
REMARK                            x       y       z     vdW  Elec       q    Type
REMARK                         _______ _______ _______ _____ _____    ______ ____
ROOT
ATOM      1  S   UNL     1      -0.415   9.830  20.708  0.00  0.00    +0.000 S 
ENDROOT
BRANCH   1   2
ATOM      2  C   UNL     1       0.054  11.428  20.235  0.00  0.00    +0.000 A 
ATOM      3  N   UNL     1       1.292  11.862  20.185  0.00  0.00    +0.000 NA
ATOM      4  C   UNL     1       1.205  13.156  19.719  0.00  0.00    +0.000 A 
ATOM      5  C   UNL     1       2.226  14.068  19.448  0.00  0.00    +0.000 A 
ATOM      6  C   UNL     1       1.814  15.299  18.968  0.00  0.00    +0.000 A 
ATOM      7  N   UNL     1       0.525  15.662  18.769  0.00  0.00    +0.000 NA
ATOM      8  C   UNL     1      -0.461  14.777  19.036  0.00  0.00    +0.000 A 
ATOM      9  C   UNL     1      -0.113  13.516  19.501  0.00  0.00    +0.000 A 
ATOM     10  N   UNL     1      -0.840  12.386  19.819  0.00  0.00    +0.000 N 
BRANCH  10  11
ATOM     11  C   UNL     1      -2.286  12.274  19.690  0.00  0.00    +0.000 C 
BRANCH  11  12
ATOM     12  C   UNL     1      -2.770  11.771  18.341  0.00  0.00    +0.000 A 
ATOM     13  C   UNL     1      -1.921  11.249  17.348  0.00  0.00    +0.000 A 
ATOM     14  C   UNL     1      -2.446  10.711  16.171  0.00  0.00    +0.000 A 
ATOM     15  C   UNL     1      -3.818  10.700  15.970  0.00  0.00    +0.000 A 
ATOM     16  F   UNL     1      -4.320  10.149  14.857  0.00  0.00    +0.000 F 
ATOM     17  C   UNL     1      -4.678  11.247  16.912  0.00  0.00    +0.000 A 
ATOM     18  C   UNL     1      -4.156  11.784  18.091  0.00  0.00    +0.000 A 
ENDBRANCH  11  12
ENDBRANCH  10  11
ENDBRANCH   1   2
BRANCH   1  19
ATOM     19  C   UNL     1       1.189   9.121  21.218  0.00  0.00    +0.000 C 
BRANCH  19  23
ATOM     20  C   UNL     1       2.485   5.882  18.627  0.00  0.00    +0.000 A 
ATOM     21  C   UNL     1       2.079   5.618  19.941  0.00  0.00    +0.000 A 
ATOM     22  C   UNL     1       1.641   6.654  20.777  0.00  0.00    +0.000 A 
ATOM     23  C   UNL     1       1.596   7.978  20.312  0.00  0.00    +0.000 A 
ATOM     24  C   UNL     1       1.987   8.235  18.992  0.00  0.00    +0.000 A 
ATOM     25  C   UNL     1       2.477   7.208  18.180  0.00  0.00    +0.000 A 
BRANCH  20  31
ATOM     26  C   UNL     1       7.370   5.239  14.406  0.00  0.00    +0.000 C 
ATOM     27  C   UNL     1       6.691   4.810  15.704  0.00  0.00    +0.000 C 
ATOM     28  C   UNL     1       5.569   3.794  15.453  0.00  0.00    +0.000 C 
ATOM     29  C   UNL     1       4.811   3.459  16.741  0.00  0.00    +0.000 C 
ATOM     30  N   UNL     1       4.343   4.668  17.424  0.00  0.00    +0.000 N 
ATOM     31  C   UNL     1       2.994   4.750  17.799  0.00  0.00    +0.000 C 
ATOM     32  O   UNL     1       2.170   3.900  17.455  0.00  0.00    +0.000 OA
ATOM     33  C   UNL     1       5.378   5.670  17.680  0.00  0.00    +0.000 C 
ATOM     34  C   UNL     1       6.128   6.043  16.410  0.00  0.00    +0.000 C 
ENDBRANCH  20  31
ENDBRANCH  19  23
ENDBRANCH   1  19
TORSDOF 6
ENDMDL
MODEL 4
REMARK VINA RESULT:      -9.1      3.637      9.688
REMARK  Name = 
REMARK  7 active torsions:
REMARK  status: ('A' for Active; 'I' for Inactive)
REMARK    1  A    between atoms: C_1  and  C_2
REMARK    2  A    between atoms: C_6  and  C_8
REMARK    3  A    between atoms: C_11  and  C_12
REMARK    4  A    between atoms: C_12  and  S_13
REMARK    5  A    between atoms: S_13  and  C_14
REMARK    6  A    between atoms: N_22  and  C_23
REMARK    7  A    between atoms: C_23  and  C_24
REMARK                            x       y       z     vdW  Elec       q    Type
REMARK                         _______ _______ _______ _____ _____    ______ ____
ROOT
ATOM      1  S   UNL     1      -0.165   9.728  21.235  0.00  0.00    +0.000 S 
ENDROOT
BRANCH   1   2
ATOM      2  C   UNL     1       0.537  11.226  20.724  0.00  0.00    +0.000 A 
ATOM      3  N   UNL     1       1.078  12.113  21.526  0.00  0.00    +0.000 NA
ATOM      4  C   UNL     1       1.544  13.113  20.701  0.00  0.00    +0.000 A 
ATOM      5  C   UNL     1       2.232  14.282  21.029  0.00  0.00    +0.000 A 
ATOM      6  C   UNL     1       2.584  15.087  19.962  0.00  0.00    +0.000 A 
ATOM      7  N   UNL     1       2.297  14.826  18.665  0.00  0.00    +0.000 NA
ATOM      8  C   UNL     1       1.627  13.694  18.350  0.00  0.00    +0.000 A 
ATOM      9  C   UNL     1       1.263  12.833  19.375  0.00  0.00    +0.000 A 
ATOM     10  N   UNL     1       0.631  11.605  19.406  0.00  0.00    +0.000 N 
BRANCH  10  11
ATOM     11  C   UNL     1       0.194  10.875  18.224  0.00  0.00    +0.000 C 
BRANCH  11  12
ATOM     12  C   UNL     1      -1.311  10.830  18.022  0.00  0.00    +0.000 A 
ATOM     13  C   UNL     1      -1.977   9.811  17.316  0.00  0.00    +0.000 A 
ATOM     14  C   UNL     1      -3.373   9.779  17.256  0.00  0.00    +0.000 A 
ATOM     15  C   UNL     1      -4.112  10.768  17.888  0.00  0.00    +0.000 A 
ATOM     16  F   UNL     1      -5.450  10.714  17.861  0.00  0.00    +0.000 F 
ATOM     17  C   UNL     1      -3.482  11.809  18.556  0.00  0.00    +0.000 A 
ATOM     18  C   UNL     1      -2.087  11.842  18.619  0.00  0.00    +0.000 A 
ENDBRANCH  11  12
ENDBRANCH  10  11
ENDBRANCH   1   2
BRANCH   1  19
ATOM     19  C   UNL     1       1.323   8.774  21.696  0.00  0.00    +0.000 C 
BRANCH  19  23
ATOM     20  C   UNL     1       2.362   5.777  18.727  0.00  0.00    +0.000 A 
ATOM     21  C   UNL     1       1.984   5.391  20.018  0.00  0.00    +0.000 A 
ATOM     22  C   UNL     1       1.627   6.350  20.977  0.00  0.00    +0.000 A 
ATOM     23  C   UNL     1       1.640   7.717  20.658  0.00  0.00    +0.000 A 
ATOM     24  C   UNL     1       2.004   8.097  19.360  0.00  0.00    +0.000 A 
ATOM     25  C   UNL     1       2.413   7.142  18.425  0.00  0.00    +0.000 A 
BRANCH  20  31
ATOM     26  C   UNL     1       7.307   5.192  14.566  0.00  0.00    +0.000 C 
ATOM     27  C   UNL     1       6.542   4.668  15.779  0.00  0.00    +0.000 C 
ATOM     28  C   UNL     1       5.333   3.817  15.367  0.00  0.00    +0.000 C 
ATOM     29  C   UNL     1       4.499   3.395  16.581  0.00  0.00    +0.000 C 
ATOM     30  N   UNL     1       4.131   4.545  17.411  0.00  0.00    +0.000 N 
ATOM     31  C   UNL     1       2.785   4.717  17.763  0.00  0.00    +0.000 C 
ATOM     32  O   UNL     1       1.892   4.012  17.290  0.00  0.00    +0.000 OA
ATOM     33  C   UNL     1       5.252   5.390  17.824  0.00  0.00    +0.000 C 
ATOM     34  C   UNL     1       6.081   5.848  16.634  0.00  0.00    +0.000 C 
ENDBRANCH  20  31
ENDBRANCH  19  23
ENDBRANCH   1  19
TORSDOF 6
ENDMDL
MODEL 5
REMARK VINA RESULT:      -9.1      3.584     10.032
REMARK  Name = 
REMARK  7 active torsions:
REMARK  status: ('A' for Active; 'I' for Inactive)
REMARK    1  A    between atoms: C_1  and  C_2
REMARK    2  A    between atoms: C_6  and  C_8
REMARK    3  A    between atoms: C_11  and  C_12
REMARK    4  A    between atoms: C_12  and  S_13
REMARK    5  A    between atoms: S_13  and  C_14
REMARK    6  A    between atoms: N_22  and  C_23
REMARK    7  A    between atoms: C_23  and  C_24
REMARK                            x       y       z     vdW  Elec       q    Type
REMARK                         _______ _______ _______ _____ _____    ______ ____
ROOT
ATOM      1  S   UNL     1      -0.432   9.696  20.736  0.00  0.00    +0.000 S 
ENDROOT
BRANCH   1   2
ATOM      2  C   UNL     1       0.059  11.270  20.209  0.00  0.00    +0.000 A 
ATOM      3  N   UNL     1       1.305  11.670  20.100  0.00  0.00    +0.000 NA
ATOM      4  C   UNL     1       1.233  12.955  19.610  0.00  0.00    +0.000 A 
ATOM      5  C   UNL     1       2.265  13.834  19.277  0.00  0.00    +0.000 A 
ATOM      6  C   UNL     1       1.866  15.064  18.788  0.00  0.00    +0.000 A 
ATOM      7  N   UNL     1       0.580  15.458  18.632  0.00  0.00    +0.000 NA
ATOM      8  C   UNL     1      -0.417  14.605  18.958  0.00  0.00    +0.000 A 
ATOM      9  C   UNL     1      -0.083  13.346  19.437  0.00  0.00    +0.000 A 
ATOM     10  N   UNL     1      -0.825  12.243  19.809  0.00  0.00    +0.000 N 
BRANCH  10  11
ATOM     11  C   UNL     1      -2.278  12.167  19.741  0.00  0.00    +0.000 C 
BRANCH  11  12
ATOM     12  C   UNL     1      -2.828  11.602  18.442  0.00  0.00    +0.000 A 
ATOM     13  C   UNL     1      -4.152  11.789  18.004  0.00  0.00    +0.000 A 
ATOM     14  C   UNL     1      -4.561  11.327  16.751  0.00  0.00    +0.000 A 
ATOM     15  C   UNL     1      -3.658  10.666  15.931  0.00  0.00    +0.000 A 
ATOM     16  F   UNL     1      -4.043  10.259  14.715  0.00  0.00    +0.000 F 
ATOM     17  C   UNL     1      -2.357  10.430  16.353  0.00  0.00    +0.000 A 
ATOM     18  C   UNL     1      -1.945  10.892  17.606  0.00  0.00    +0.000 A 
ENDBRANCH  11  12
ENDBRANCH  10  11
ENDBRANCH   1   2
BRANCH   1  19
ATOM     19  C   UNL     1       1.145   9.018  21.360  0.00  0.00    +0.000 C 
BRANCH  19  23
ATOM     20  C   UNL     1       2.525   5.833  18.747  0.00  0.00    +0.000 A 
ATOM     21  C   UNL     1       2.429   7.146  18.271  0.00  0.00    +0.000 A 
ATOM     22  C   UNL     1       2.004   8.183  19.113  0.00  0.00    +0.000 A 
ATOM     23  C   UNL     1       1.670   7.925  20.452  0.00  0.00    +0.000 A 
ATOM     24  C   UNL     1       1.783   6.613  20.927  0.00  0.00    +0.000 A 
ATOM     25  C   UNL     1       2.152   5.572  20.070  0.00  0.00    +0.000 A 
BRANCH  20  31
ATOM     26  C   UNL     1       7.299   5.249  14.392  0.00  0.00    +0.000 C 
ATOM     27  C   UNL     1       6.599   4.740  15.649  0.00  0.00    +0.000 C 
ATOM     28  C   UNL     1       5.393   3.853  15.310  0.00  0.00    +0.000 C 
ATOM     29  C   UNL     1       4.622   3.444  16.569  0.00  0.00    +0.000 C 
ATOM     30  N   UNL     1       4.263   4.607  17.386  0.00  0.00    +0.000 N 
ATOM     31  C   UNL     1       2.930   4.759  17.792  0.00  0.00    +0.000 C 
ATOM     32  O   UNL     1       2.034   4.022  17.375  0.00  0.00    +0.000 OA
ATOM     33  C   UNL     1       5.381   5.486  17.729  0.00  0.00    +0.000 C 
ATOM     34  C   UNL     1       6.148   5.931  16.493  0.00  0.00    +0.000 C 
ENDBRANCH  20  31
ENDBRANCH  19  23
ENDBRANCH   1  19
TORSDOF 6
ENDMDL
MODEL 6
REMARK VINA RESULT:      -9.0      3.258     10.261
REMARK  Name = 
REMARK  7 active torsions:
REMARK  status: ('A' for Active; 'I' for Inactive)
REMARK    1  A    between atoms: C_1  and  C_2
REMARK    2  A    between atoms: C_6  and  C_8
REMARK    3  A    between atoms: C_11  and  C_12
REMARK    4  A    between atoms: C_12  and  S_13
REMARK    5  A    between atoms: S_13  and  C_14
REMARK    6  A    between atoms: N_22  and  C_23
REMARK    7  A    between atoms: C_23  and  C_24
REMARK                            x       y       z     vdW  Elec       q    Type
REMARK                         _______ _______ _______ _____ _____    ______ ____
ROOT
ATOM      1  S   UNL     1       0.871  11.438  19.499  0.00  0.00    +0.000 S 
ENDROOT
BRANCH   1   2
ATOM      2  C   UNL     1      -0.751  11.314  18.909  0.00  0.00    +0.000 A 
ATOM      3  N   UNL     1      -1.189  10.368  18.111  0.00  0.00    +0.000 NA
ATOM      4  C   UNL     1      -2.530  10.629  17.938  0.00  0.00    +0.000 A 
ATOM      5  C   UNL     1      -3.483   9.916  17.209  0.00  0.00    +0.000 A 
ATOM      6  C   UNL     1      -4.767  10.430  17.243  0.00  0.00    +0.000 A 
ATOM      7  N   UNL     1      -5.137  11.552  17.904  0.00  0.00    +0.000 NA
ATOM      8  C   UNL     1      -4.210  12.242  18.607  0.00  0.00    +0.000 A 
ATOM      9  C   UNL     1      -2.906  11.767  18.630  0.00  0.00    +0.000 A 
ATOM     10  N   UNL     1      -1.754  12.185  19.265  0.00  0.00    +0.000 N 
BRANCH  10  11
ATOM     11  C   UNL     1      -1.677  13.329  20.163  0.00  0.00    +0.000 C 
BRANCH  11  12
ATOM     12  C   UNL     1      -2.353  13.131  21.508  0.00  0.00    +0.000 A 
ATOM     13  C   UNL     1      -3.402  13.939  21.985  0.00  0.00    +0.000 A 
ATOM     14  C   UNL     1      -4.047  13.637  23.187  0.00  0.00    +0.000 A 
ATOM     15  C   UNL     1      -3.642  12.536  23.928  0.00  0.00    +0.000 A 
ATOM     16  F   UNL     1      -4.287  12.227  25.061  0.00  0.00    +0.000 F 
ATOM     17  C   UNL     1      -2.583  11.745  23.505  0.00  0.00    +0.000 A 
ATOM     18  C   UNL     1      -1.938  12.044  22.302  0.00  0.00    +0.000 A 
ENDBRANCH  11  12
ENDBRANCH  10  11
ENDBRANCH   1   2
BRANCH   1  19
ATOM     19  C   UNL     1       0.905  10.102  20.743  0.00  0.00    +0.000 C 
BRANCH  19  23
ATOM     20  C   UNL     1       2.356   6.402  18.986  0.00  0.00    +0.000 A 
ATOM     21  C   UNL     1       1.953   6.438  20.326  0.00  0.00    +0.000 A 
ATOM     22  C   UNL     1       1.464   7.622  20.896  0.00  0.00    +0.000 A 
ATOM     23  C   UNL     1       1.367   8.795  20.131  0.00  0.00    +0.000 A 
ATOM     24  C   UNL     1       1.757   8.750  18.786  0.00  0.00    +0.000 A 
ATOM     25  C   UNL     1       2.296   7.583  18.238  0.00  0.00    +0.000 A 
BRANCH  20  31
ATOM     26  C   UNL     1       6.688   5.002  14.363  0.00  0.00    +0.000 C 
ATOM     27  C   UNL     1       6.259   4.928  15.826  0.00  0.00    +0.000 C 
ATOM     28  C   UNL     1       5.281   3.771  16.075  0.00  0.00    +0.000 C 
ATOM     29  C   UNL     1       4.759   3.773  17.515  0.00  0.00    +0.000 C 
ATOM     30  N   UNL     1       4.205   5.078  17.888  0.00  0.00    +0.000 N 
ATOM     31  C   UNL     1       2.920   5.129  18.447  0.00  0.00    +0.000 C 
ATOM     32  O   UNL     1       2.197   4.132  18.511  0.00  0.00    +0.000 OA
ATOM     33  C   UNL     1       5.099   6.214  17.662  0.00  0.00    +0.000 C 
ATOM     34  C   UNL     1       5.611   6.252  16.230  0.00  0.00    +0.000 C 
ENDBRANCH  20  31
ENDBRANCH  19  23
ENDBRANCH   1  19
TORSDOF 6
ENDMDL
MODEL 7
REMARK VINA RESULT:      -8.9      3.521     10.411
REMARK  Name = 
REMARK  7 active torsions:
REMARK  status: ('A' for Active; 'I' for Inactive)
REMARK    1  A    between atoms: C_1  and  C_2
REMARK    2  A    between atoms: C_6  and  C_8
REMARK    3  A    between atoms: C_11  and  C_12
REMARK    4  A    between atoms: C_12  and  S_13
REMARK    5  A    between atoms: S_13  and  C_14
REMARK    6  A    between atoms: N_22  and  C_23
REMARK    7  A    between atoms: C_23  and  C_24
REMARK                            x       y       z     vdW  Elec       q    Type
REMARK                         _______ _______ _______ _____ _____    ______ ____
ROOT
ATOM      1  S   UNL     1       0.554  12.155  18.807  0.00  0.00    +0.000 S 
ENDROOT
BRANCH   1   2
ATOM      2  C   UNL     1      -0.809  12.889  19.580  0.00  0.00    +0.000 A 
ATOM      3  N   UNL     1      -0.843  14.122  20.029  0.00  0.00    +0.000 NA
ATOM      4  C   UNL     1      -2.119  14.296  20.518  0.00  0.00    +0.000 A 
ATOM      5  C   UNL     1      -2.704  15.432  21.082  0.00  0.00    +0.000 A 
ATOM      6  C   UNL     1      -4.025  15.294  21.466  0.00  0.00    +0.000 A 
ATOM      7  N   UNL     1      -4.754  14.160  21.347  0.00  0.00    +0.000 NA
ATOM      8  C   UNL     1      -4.185  13.061  20.804  0.00  0.00    +0.000 A 
ATOM      9  C   UNL     1      -2.866  13.139  20.379  0.00  0.00    +0.000 A 
ATOM     10  N   UNL     1      -2.013  12.249  19.755  0.00  0.00    +0.000 N 
BRANCH  10  11
ATOM     11  C   UNL     1      -2.384  10.900  19.351  0.00  0.00    +0.000 C 
BRANCH  11  12
ATOM     12  C   UNL     1      -2.713  10.742  17.877  0.00  0.00    +0.000 A 
ATOM     13  C   UNL     1      -1.963   9.952  16.986  0.00  0.00    +0.000 A 
ATOM     14  C   UNL     1      -2.382   9.771  15.666  0.00  0.00    +0.000 A 
ATOM     15  C   UNL     1      -3.544  10.385  15.221  0.00  0.00    +0.000 A 
ATOM     16  F   UNL     1      -3.963  10.179  13.966  0.00  0.00    +0.000 F 
ATOM     17  C   UNL     1      -4.282  11.204  16.065  0.00  0.00    +0.000 A 
ATOM     18  C   UNL     1      -3.866  11.385  17.386  0.00  0.00    +0.000 A 
ENDBRANCH  11  12
ENDBRANCH  10  11
ENDBRANCH   1   2
BRANCH   1  19
ATOM     19  C   UNL     1       1.177  11.066  20.134  0.00  0.00    +0.000 C 
BRANCH  19  23
ATOM     20  C   UNL     1       2.153   7.118  18.605  0.00  0.00    +0.000 A 
ATOM     21  C   UNL     1       1.944   7.313  19.975  0.00  0.00    +0.000 A 
ATOM     22  C   UNL     1       1.609   8.580  20.475  0.00  0.00    +0.000 A 
ATOM     23  C   UNL     1       1.473   9.676  19.609  0.00  0.00    +0.000 A 
ATOM     24  C   UNL     1       1.667   9.472  18.237  0.00  0.00    +0.000 A 
ATOM     25  C   UNL     1       2.056   8.221  17.750  0.00  0.00    +0.000 A 
BRANCH  20  31
ATOM     26  C   UNL     1       6.684   4.956  14.494  0.00  0.00    +0.000 C 
ATOM     27  C   UNL     1       6.091   4.980  15.901  0.00  0.00    +0.000 C 
ATOM     28  C   UNL     1       4.920   3.998  16.042  0.00  0.00    +0.000 C 
ATOM     29  C   UNL     1       4.250   4.113  17.415  0.00  0.00    +0.000 C 
ATOM     30  N   UNL     1       3.874   5.496  17.721  0.00  0.00    +0.000 N 
ATOM     31  C   UNL     1       2.561   5.761  18.134  0.00  0.00    +0.000 C 
ATOM     32  O   UNL     1       1.685   4.893  18.119  0.00  0.00    +0.000 OA
ATOM     33  C   UNL     1       4.959   6.470  17.593  0.00  0.00    +0.000 C 
ATOM     34  C   UNL     1       5.624   6.398  16.227  0.00  0.00    +0.000 C 
ENDBRANCH  20  31
ENDBRANCH  19  23
ENDBRANCH   1  19
TORSDOF 6
ENDMDL
MODEL 8
REMARK VINA RESULT:      -8.9      2.188      2.562
REMARK  Name = 
REMARK  7 active torsions:
REMARK  status: ('A' for Active; 'I' for Inactive)
REMARK    1  A    between atoms: C_1  and  C_2
REMARK    2  A    between atoms: C_6  and  C_8
REMARK    3  A    between atoms: C_11  and  C_12
REMARK    4  A    between atoms: C_12  and  S_13
REMARK    5  A    between atoms: S_13  and  C_14
REMARK    6  A    between atoms: N_22  and  C_23
REMARK    7  A    between atoms: C_23  and  C_24
REMARK                            x       y       z     vdW  Elec       q    Type
REMARK                         _______ _______ _______ _____ _____    ______ ____
ROOT
ATOM      1  S   UNL     1       2.104   8.337  18.181  0.00  0.00    +0.000 S 
ENDROOT
BRANCH   1   2
ATOM      2  C   UNL     1       3.378   7.260  17.721  0.00  0.00    +0.000 A 
ATOM      3  N   UNL     1       4.628   7.614  17.531  0.00  0.00    +0.000 NA
ATOM      4  C   UNL     1       5.295   6.447  17.228  0.00  0.00    +0.000 A 
ATOM      5  C   UNL     1       6.651   6.245  16.967  0.00  0.00    +0.000 A 
ATOM      6  C   UNL     1       7.021   4.938  16.709  0.00  0.00    +0.000 A 
ATOM      7  N   UNL     1       6.173   3.883  16.680  0.00  0.00    +0.000 NA
ATOM      8  C   UNL     1       4.860   4.082  16.930  0.00  0.00    +0.000 A 
ATOM      9  C   UNL     1       4.427   5.369  17.216  0.00  0.00    +0.000 A 
ATOM     10  N   UNL     1       3.201   5.907  17.554  0.00  0.00    +0.000 N 
BRANCH  10  11
ATOM     11  C   UNL     1       1.979   5.131  17.721  0.00  0.00    +0.000 C 
BRANCH  11  12
ATOM     12  C   UNL     1       1.924   4.290  18.985  0.00  0.00    +0.000 A 
ATOM     13  C   UNL     1       2.354   4.741  20.246  0.00  0.00    +0.000 A 
ATOM     14  C   UNL     1       2.180   3.950  21.385  0.00  0.00    +0.000 A 
ATOM     15  C   UNL     1       1.588   2.701  21.272  0.00  0.00    +0.000 A 
ATOM     16  F   UNL     1       1.388   1.961  22.370  0.00  0.00    +0.000 F 
ATOM     17  C   UNL     1       1.192   2.211  20.035  0.00  0.00    +0.000 A 
ATOM     18  C   UNL     1       1.364   3.001  18.895  0.00  0.00    +0.000 A 
ENDBRANCH  11  12
ENDBRANCH  10  11
ENDBRANCH   1   2
BRANCH   1  19
ATOM     19  C   UNL     1       1.939   7.960  19.960  0.00  0.00    +0.000 C 
BRANCH  19  23
ATOM     20  C   UNL     1      -0.557  10.908  21.950  0.00  0.00    +0.000 A 
ATOM     21  C   UNL     1       0.163   9.970  22.699  0.00  0.00    +0.000 A 
ATOM     22  C   UNL     1       0.986   9.028  22.066  0.00  0.00    +0.000 A 
ATOM     23  C   UNL     1       1.108   9.010  20.668  0.00  0.00    +0.000 A 
ATOM     24  C   UNL     1       0.398   9.961  19.924  0.00  0.00    +0.000 A 
ATOM     25  C   UNL     1      -0.465  10.862  20.555  0.00  0.00    +0.000 A 
BRANCH  20  31
ATOM     26  C   UNL     1       0.058  17.026  24.023  0.00  0.00    +0.000 C 
ATOM     27  C   UNL     1      -0.669  15.999  23.159  0.00  0.00    +0.000 C 
ATOM     28  C   UNL     1      -1.716  15.216  23.963  0.00  0.00    +0.000 C 
ATOM     29  C   UNL     1      -2.357  14.106  23.125  0.00  0.00    +0.000 C 
ATOM     30  N   UNL     1      -1.347  13.240  22.509  0.00  0.00    +0.000 N 
ATOM     31  C   UNL     1      -1.460  11.852  22.672  0.00  0.00    +0.000 C 
ATOM     32  O   UNL     1      -2.301  11.350  23.422  0.00  0.00    +0.000 OA
ATOM     33  C   UNL     1      -0.323  13.944  21.737  0.00  0.00    +0.000 C 
ATOM     34  C   UNL     1       0.351  15.035  22.555  0.00  0.00    +0.000 C 
ENDBRANCH  20  31
ENDBRANCH  19  23
ENDBRANCH   1  19
TORSDOF 6
ENDMDL
MODEL 9
REMARK VINA RESULT:      -8.9      2.745      4.624
REMARK  Name = 
REMARK  7 active torsions:
REMARK  status: ('A' for Active; 'I' for Inactive)
REMARK    1  A    between atoms: C_1  and  C_2
REMARK    2  A    between atoms: C_6  and  C_8
REMARK    3  A    between atoms: C_11  and  C_12
REMARK    4  A    between atoms: C_12  and  S_13
REMARK    5  A    between atoms: S_13  and  C_14
REMARK    6  A    between atoms: N_22  and  C_23
REMARK    7  A    between atoms: C_23  and  C_24
REMARK                            x       y       z     vdW  Elec       q    Type
REMARK                         _______ _______ _______ _____ _____    ______ ____
ROOT
ATOM      1  S   UNL     1       1.847   7.782  21.104  0.00  0.00    +0.000 S 
ENDROOT
BRANCH   1   2
ATOM      2  C   UNL     1       1.768   6.234  20.332  0.00  0.00    +0.000 A 
ATOM      3  N   UNL     1       1.086   5.206  20.781  0.00  0.00    +0.000 NA
ATOM      4  C   UNL     1       1.265   4.213  19.844  0.00  0.00    +0.000 A 
ATOM      5  C   UNL     1       0.735   2.922  19.809  0.00  0.00    +0.000 A 
ATOM      6  C   UNL     1       1.093   2.159  18.712  0.00  0.00    +0.000 A 
ATOM      7  N   UNL     1       1.909   2.570  17.714  0.00  0.00    +0.000 NA
ATOM      8  C   UNL     1       2.424   3.820  17.752  0.00  0.00    +0.000 A 
ATOM      9  C   UNL     1       2.087   4.644  18.817  0.00  0.00    +0.000 A 
ATOM     10  N   UNL     1       2.386   5.953  19.137  0.00  0.00    +0.000 N 
BRANCH  10  11
ATOM     11  C   UNL     1       3.190   6.841  18.308  0.00  0.00    +0.000 C 
BRANCH  11  12
ATOM     12  C   UNL     1       4.516   6.260  17.850  0.00  0.00    +0.000 A 
ATOM     13  C   UNL     1       5.435   5.630  18.709  0.00  0.00    +0.000 A 
ATOM     14  C   UNL     1       6.589   5.028  18.202  0.00  0.00    +0.000 A 
ATOM     15  C   UNL     1       6.842   5.060  16.838  0.00  0.00    +0.000 A 
ATOM     16  F   UNL     1       7.929   4.449  16.352  0.00  0.00    +0.000 F 
ATOM     17  C   UNL     1       5.975   5.711  15.971  0.00  0.00    +0.000 A 
ATOM     18  C   UNL     1       4.819   6.313  16.475  0.00  0.00    +0.000 A 
ENDBRANCH  11  12
ENDBRANCH  10  11
ENDBRANCH   1   2
BRANCH   1  19
ATOM     19  C   UNL     1       0.674   8.748  20.092  0.00  0.00    +0.000 C 
BRANCH  19  23
ATOM     20  C   UNL     1      -0.925  12.034  22.444  0.00  0.00    +0.000 A 
ATOM     21  C   UNL     1      -0.562  12.233  21.107  0.00  0.00    +0.000 A 
ATOM     22  C   UNL     1      -0.064  11.174  20.335  0.00  0.00    +0.000 A 
ATOM     23  C   UNL     1       0.077   9.891  20.888  0.00  0.00    +0.000 A 
ATOM     24  C   UNL     1      -0.303   9.693  22.221  0.00  0.00    +0.000 A 
ATOM     25  C   UNL     1      -0.745  10.764  23.003  0.00  0.00    +0.000 A 
BRANCH  20  31
ATOM     26  C   UNL     1      -6.627  15.078  23.009  0.00  0.00    +0.000 C 
ATOM     27  C   UNL     1      -5.481  14.306  23.657  0.00  0.00    +0.000 C 
ATOM     28  C   UNL     1      -4.297  15.221  23.999  0.00  0.00    +0.000 C 
ATOM     29  C   UNL     1      -3.104  14.425  24.536  0.00  0.00    +0.000 C 
ATOM     30  N   UNL     1      -2.735  13.329  23.636  0.00  0.00    +0.000 N 
ATOM     31  C   UNL     1      -1.397  13.209  23.235  0.00  0.00    +0.000 C 
ATOM     32  O   UNL     1      -0.555  14.067  23.508  0.00  0.00    +0.000 OA
ATOM     33  C   UNL     1      -3.834  12.432  23.276  0.00  0.00    +0.000 C 
ATOM     34  C   UNL     1      -5.023  13.195  22.712  0.00  0.00    +0.000 C 
ENDBRANCH  20  31
ENDBRANCH  19  23
ENDBRANCH   1  19
TORSDOF 6
ENDMDL
