MODEL 1
REMARK VINA RESULT:      -8.3      0.000      0.000
REMARK  Name = 
REMARK  6 active torsions:
REMARK  status: ('A' for Active; 'I' for Inactive)
REMARK    1  A    between atoms: C_1  and  N_2
REMARK    2  A    between atoms: N_2  and  C_3
REMARK    3  A    between atoms: C_3  and  C_4
REMARK    4  A    between atoms: C_10  and  C_12
REMARK    5  A    between atoms: C_19  and  C_20
REMARK    6  A    between atoms: C_20  and  N_21
REMARK                            x       y       z     vdW  Elec       q    Type
REMARK                         _______ _______ _______ _____ _____    ______ ____
ROOT
ATOM      1  C   UNL     1       4.798   3.680  18.512  0.00  0.00    +0.000 A 
ATOM      2  C   UNL     1       4.171   3.657  17.279  0.00  0.00    +0.000 A 
ATOM      3  C   UNL     1       4.813   4.186  16.165  0.00  0.00    +0.000 A 
ATOM      4  C   UNL     1       6.051   4.805  16.307  0.00  0.00    +0.000 A 
ATOM      5  N   UNL     1       6.752   5.315  15.210  0.00  0.00    +0.000 N 
ATOM      6  C   UNL     1       6.781   4.753  13.978  0.00  0.00    +0.000 A 
ATOM      7  N   UNL     1       6.093   3.699  13.588  0.00  0.00    +0.000 NA
ATOM      8  C   UNL     1       6.401   3.344  12.284  0.00  0.00    +0.000 A 
ATOM      9  C   UNL     1       7.312   4.180  11.669  0.00  0.00    +0.000 A 
ATOM     10  S   UNL     1       7.826   5.395  12.761  0.00  0.00    +0.000 S 
ATOM     11  N   UNL     1       6.621   4.958  17.523  0.00  0.00    +0.000 NA
ATOM     12  C   UNL     1       5.991   4.389  18.593  0.00  0.00    +0.000 A 
ATOM     13  H   UNL     1       7.576   5.815  15.520  0.00  0.00    +0.000 HD
ENDROOT
BRANCH   1  16
ATOM     14  C   UNL     1       2.508   2.710  21.394  0.00  0.00    +0.000 C 
ATOM     15  N   UNL     1       2.948   3.396  20.189  0.00  0.00    +0.000 N 
ATOM     16  C   UNL     1       4.227   3.045  19.721  0.00  0.00    +0.000 C 
ATOM     17  O   UNL     1       4.917   2.195  20.278  0.00  0.00    +0.000 OA
BRANCH  15  18
ATOM     18  C   UNL     1       1.902   4.071  19.403  0.00  0.00    +0.000 C 
BRANCH  18  19
ATOM     19  C   UNL     1       1.931   5.589  19.476  0.00  0.00    +0.000 A 
ATOM     20  C   UNL     1       1.552   6.230  20.669  0.00  0.00    +0.000 A 
ATOM     21  C   UNL     1       1.533   7.624  20.765  0.00  0.00    +0.000 A 
ATOM     22  C   UNL     1       1.914   8.402  19.674  0.00  0.00    +0.000 A 
ATOM     23  C   UNL     1       2.317   7.787  18.494  0.00  0.00    +0.000 A 
ATOM     24  C   UNL     1       2.329   6.393  18.396  0.00  0.00    +0.000 A 
ENDBRANCH  18  19
ENDBRANCH  15  18
ENDBRANCH   1  16
BRANCH   8  25
ATOM     25  C   UNL     1       5.735   2.143  11.696  0.00  0.00    +0.000 C 
BRANCH  25  26
ATOM     26  N   UNL     1       6.760   1.248  11.166  0.00  0.00    +0.000 NA
ATOM     27  H   UNL     1       7.666   1.583  11.496  0.00  0.00    +0.000 HD
ATOM     28  H   UNL     1       6.778   1.331  10.153  0.00  0.00    +0.000 HD
ENDBRANCH  25  26
ENDBRANCH   8  25
TORSDOF 5
ENDMDL
MODEL 2
REMARK VINA RESULT:      -7.9      4.605      8.075
REMARK  Name = 
REMARK  6 active torsions:
REMARK  status: ('A' for Active; 'I' for Inactive)
REMARK    1  A    between atoms: C_1  and  N_2
REMARK    2  A    between atoms: N_2  and  C_3
REMARK    3  A    between atoms: C_3  and  C_4
REMARK    4  A    between atoms: C_10  and  C_12
REMARK    5  A    between atoms: C_19  and  C_20
REMARK    6  A    between atoms: C_20  and  N_21
REMARK                            x       y       z     vdW  Elec       q    Type
REMARK                         _______ _______ _______ _____ _____    ______ ____
ROOT
ATOM      1  C   UNL     1       3.255   6.940  18.054  0.00  0.00    +0.000 A 
ATOM      2  C   UNL     1       2.596   7.979  17.421  0.00  0.00    +0.000 A 
ATOM      3  C   UNL     1       1.776   8.829  18.155  0.00  0.00    +0.000 A 
ATOM      4  C   UNL     1       1.561   8.588  19.509  0.00  0.00    +0.000 A 
ATOM      5  N   UNL     1       0.778   9.438  20.295  0.00  0.00    +0.000 N 
ATOM      6  C   UNL     1       0.727  10.785  20.168  0.00  0.00    +0.000 A 
ATOM      7  N   UNL     1       1.327  11.502  19.239  0.00  0.00    +0.000 NA
ATOM      8  C   UNL     1       1.123  12.858  19.432  0.00  0.00    +0.000 A 
ATOM      9  C   UNL     1       0.315  13.163  20.510  0.00  0.00    +0.000 A 
ATOM     10  S   UNL     1      -0.151  11.727  21.319  0.00  0.00    +0.000 S 
ATOM     11  N   UNL     1       2.087   7.501  20.117  0.00  0.00    +0.000 NA
ATOM     12  C   UNL     1       2.925   6.710  19.385  0.00  0.00    +0.000 A 
ATOM     13  H   UNL     1       0.654   9.046  21.221  0.00  0.00    +0.000 HD
ENDROOT
BRANCH   1  16
ATOM     14  C   UNL     1       5.037   3.918  16.577  0.00  0.00    +0.000 C 
ATOM     15  N   UNL     1       4.003   4.674  17.267  0.00  0.00    +0.000 N 
ATOM     16  C   UNL     1       4.224   6.060  17.364  0.00  0.00    +0.000 C 
ATOM     17  O   UNL     1       5.213   6.600  16.876  0.00  0.00    +0.000 OA
BRANCH  15  18
ATOM     18  C   UNL     1       2.707   3.997  17.443  0.00  0.00    +0.000 C 
BRANCH  18  19
ATOM     19  C   UNL     1       2.432   3.508  18.856  0.00  0.00    +0.000 A 
ATOM     20  C   UNL     1       1.119   3.550  19.357  0.00  0.00    +0.000 A 
ATOM     21  C   UNL     1       0.831   3.142  20.662  0.00  0.00    +0.000 A 
ATOM     22  C   UNL     1       1.851   2.664  21.482  0.00  0.00    +0.000 A 
ATOM     23  C   UNL     1       3.152   2.590  20.996  0.00  0.00    +0.000 A 
ATOM     24  C   UNL     1       3.440   3.006  19.694  0.00  0.00    +0.000 A 
ENDBRANCH  18  19
ENDBRANCH  15  18
ENDBRANCH   1  16
BRANCH   8  25
ATOM     25  C   UNL     1       1.767  13.818  18.486  0.00  0.00    +0.000 C 
BRANCH  25  26
ATOM     26  N   UNL     1       2.507  13.063  17.478  0.00  0.00    +0.000 NA
ATOM     27  H   UNL     1       3.083  13.724  16.956  0.00  0.00    +0.000 HD
ATOM     28  H   UNL     1       1.847  12.673  16.810  0.00  0.00    +0.000 HD
ENDBRANCH  25  26
ENDBRANCH   8  25
TORSDOF 5
ENDMDL
MODEL 3
REMARK VINA RESULT:      -7.7      3.938      8.242
REMARK  Name = 
REMARK  6 active torsions:
REMARK  status: ('A' for Active; 'I' for Inactive)
REMARK    1  A    between atoms: C_1  and  N_2
REMARK    2  A    between atoms: N_2  and  C_3
REMARK    3  A    between atoms: C_3  and  C_4
REMARK    4  A    between atoms: C_10  and  C_12
REMARK    5  A    between atoms: C_19  and  C_20
REMARK    6  A    between atoms: C_20  and  N_21
REMARK                            x       y       z     vdW  Elec       q    Type
REMARK                         _______ _______ _______ _____ _____    ______ ____
ROOT
ATOM      1  C   UNL     1       2.213   5.224  19.017  0.00  0.00    +0.000 A 
ATOM      2  C   UNL     1       2.307   5.928  20.205  0.00  0.00    +0.000 A 
ATOM      3  C   UNL     1       2.155   7.310  20.205  0.00  0.00    +0.000 A 
ATOM      4  C   UNL     1       1.985   7.989  19.002  0.00  0.00    +0.000 A 
ATOM      5  N   UNL     1       1.789   9.373  18.957  0.00  0.00    +0.000 N 
ATOM      6  C   UNL     1       1.081  10.086  19.865  0.00  0.00    +0.000 A 
ATOM      7  N   UNL     1       0.543   9.619  20.972  0.00  0.00    +0.000 NA
ATOM      8  C   UNL     1      -0.169  10.598  21.645  0.00  0.00    +0.000 A 
ATOM      9  C   UNL     1      -0.128  11.842  21.046  0.00  0.00    +0.000 A 
ATOM     10  S   UNL     1       0.774  11.764  19.592  0.00  0.00    +0.000 S 
ATOM     11  N   UNL     1       2.025   7.337  17.819  0.00  0.00    +0.000 NA
ATOM     12  C   UNL     1       2.129   5.976  17.850  0.00  0.00    +0.000 A 
ATOM     13  H   UNL     1       1.789   9.697  17.997  0.00  0.00    +0.000 HD
ENDROOT
BRANCH   1  16
ATOM     14  C   UNL     1       3.378   1.615  18.678  0.00  0.00    +0.000 C 
ATOM     15  N   UNL     1       3.471   3.066  18.740  0.00  0.00    +0.000 N 
ATOM     16  C   UNL     1       2.258   3.746  18.949  0.00  0.00    +0.000 C 
ATOM     17  O   UNL     1       1.192   3.153  19.096  0.00  0.00    +0.000 OA
BRANCH  15  18
ATOM     18  C   UNL     1       4.816   3.626  18.954  0.00  0.00    +0.000 C 
BRANCH  18  19
ATOM     19  C   UNL     1       5.475   4.193  17.707  0.00  0.00    +0.000 A 
ATOM     20  C   UNL     1       4.918   3.915  16.445  0.00  0.00    +0.000 A 
ATOM     21  C   UNL     1       5.513   4.390  15.274  0.00  0.00    +0.000 A 
ATOM     22  C   UNL     1       6.666   5.169  15.345  0.00  0.00    +0.000 A 
ATOM     23  C   UNL     1       7.218   5.476  16.584  0.00  0.00    +0.000 A 
ATOM     24  C   UNL     1       6.626   4.994  17.755  0.00  0.00    +0.000 A 
ENDBRANCH  18  19
ENDBRANCH  15  18
ENDBRANCH   1  16
BRANCH   8  25
ATOM     25  C   UNL     1      -0.876  10.226  22.908  0.00  0.00    +0.000 C 
BRANCH  25  26
ATOM     26  N   UNL     1       0.090   9.647  23.837  0.00  0.00    +0.000 NA
ATOM     27  H   UNL     1       0.848   9.243  23.285  0.00  0.00    +0.000 HD
ATOM     28  H   UNL     1      -0.348   8.871  24.327  0.00  0.00    +0.000 HD
ENDBRANCH  25  26
ENDBRANCH   8  25
TORSDOF 5
ENDMDL
MODEL 4
REMARK VINA RESULT:      -7.7      4.030      8.158
REMARK  Name = 
REMARK  6 active torsions:
REMARK  status: ('A' for Active; 'I' for Inactive)
REMARK    1  A    between atoms: C_1  and  N_2
REMARK    2  A    between atoms: N_2  and  C_3
REMARK    3  A    between atoms: C_3  and  C_4
REMARK    4  A    between atoms: C_10  and  C_12
REMARK    5  A    between atoms: C_19  and  C_20
REMARK    6  A    between atoms: C_20  and  N_21
REMARK                            x       y       z     vdW  Elec       q    Type
REMARK                         _______ _______ _______ _____ _____    ______ ____
ROOT
ATOM      1  C   UNL     1       2.217   5.304  18.895  0.00  0.00    +0.000 A 
ATOM      2  C   UNL     1       2.303   5.957  20.112  0.00  0.00    +0.000 A 
ATOM      3  C   UNL     1       2.161   7.339  20.169  0.00  0.00    +0.000 A 
ATOM      4  C   UNL     1       2.009   8.069  18.994  0.00  0.00    +0.000 A 
ATOM      5  N   UNL     1       1.822   9.455  19.006  0.00  0.00    +0.000 N 
ATOM      6  C   UNL     1       1.109  10.134  19.936  0.00  0.00    +0.000 A 
ATOM      7  N   UNL     1       0.557   9.624  21.017  0.00  0.00    +0.000 NA
ATOM      8  C   UNL     1      -0.156  10.580  21.724  0.00  0.00    +0.000 A 
ATOM      9  C   UNL     1      -0.100  11.847  21.178  0.00  0.00    +0.000 A 
ATOM     10  S   UNL     1       0.817  11.825  19.732  0.00  0.00    +0.000 S 
ATOM     11  N   UNL     1       2.057   7.467  17.785  0.00  0.00    +0.000 NA
ATOM     12  C   UNL     1       2.151   6.105  17.760  0.00  0.00    +0.000 A 
ATOM     13  H   UNL     1       1.834   9.819  18.061  0.00  0.00    +0.000 HD
ENDROOT
BRANCH   1  16
ATOM     14  C   UNL     1       3.369   1.682  18.678  0.00  0.00    +0.000 C 
ATOM     15  N   UNL     1       3.468   3.125  18.836  0.00  0.00    +0.000 N 
ATOM     16  C   UNL     1       2.253   3.830  18.764  0.00  0.00    +0.000 C 
ATOM     17  O   UNL     1       1.175   3.263  18.605  0.00  0.00    +0.000 OA
BRANCH  15  18
ATOM     18  C   UNL     1       4.723   3.634  19.413  0.00  0.00    +0.000 C 
BRANCH  18  19
ATOM     19  C   UNL     1       5.569   4.466  18.463  0.00  0.00    +0.000 A 
ATOM     20  C   UNL     1       6.505   5.375  18.988  0.00  0.00    +0.000 A 
ATOM     21  C   UNL     1       7.276   6.182  18.148  0.00  0.00    +0.000 A 
ATOM     22  C   UNL     1       7.140   6.078  16.765  0.00  0.00    +0.000 A 
ATOM     23  C   UNL     1       6.239   5.167  16.226  0.00  0.00    +0.000 A 
ATOM     24  C   UNL     1       5.461   4.365  17.067  0.00  0.00    +0.000 A 
ENDBRANCH  18  19
ENDBRANCH  15  18
ENDBRANCH   1  16
BRANCH   8  25
ATOM     25  C   UNL     1      -0.878  10.160  22.962  0.00  0.00    +0.000 C 
BRANCH  25  26
ATOM     26  N   UNL     1       0.083   9.581  23.896  0.00  0.00    +0.000 NA
ATOM     27  H   UNL     1       0.895  10.200  23.930  0.00  0.00    +0.000 HD
ATOM     28  H   UNL     1       0.417   8.697  23.520  0.00  0.00    +0.000 HD
ENDBRANCH  25  26
ENDBRANCH   8  25
TORSDOF 5
ENDMDL
MODEL 5
REMARK VINA RESULT:      -7.6      4.288      7.795
REMARK  Name = 
REMARK  6 active torsions:
REMARK  status: ('A' for Active; 'I' for Inactive)
REMARK    1  A    between atoms: C_1  and  N_2
REMARK    2  A    between atoms: N_2  and  C_3
REMARK    3  A    between atoms: C_3  and  C_4
REMARK    4  A    between atoms: C_10  and  C_12
REMARK    5  A    between atoms: C_19  and  C_20
REMARK    6  A    between atoms: C_20  and  N_21
REMARK                            x       y       z     vdW  Elec       q    Type
REMARK                         _______ _______ _______ _____ _____    ______ ____
ROOT
ATOM      1  C   UNL     1       4.278   6.670  18.016  0.00  0.00    +0.000 A 
ATOM      2  C   UNL     1       3.579   7.626  17.300  0.00  0.00    +0.000 A 
ATOM      3  C   UNL     1       2.505   8.284  17.887  0.00  0.00    +0.000 A 
ATOM      4  C   UNL     1       2.087   7.926  19.166  0.00  0.00    +0.000 A 
ATOM      5  N   UNL     1       1.038   8.587  19.811  0.00  0.00    +0.000 N 
ATOM      6  C   UNL     1       0.781   9.914  19.718  0.00  0.00    +0.000 A 
ATOM      7  N   UNL     1       1.411  10.775  18.945  0.00  0.00    +0.000 NA
ATOM      8  C   UNL     1       0.945  12.066  19.135  0.00  0.00    +0.000 A 
ATOM      9  C   UNL     1      -0.089  12.167  20.045  0.00  0.00    +0.000 A 
ATOM     10  S   UNL     1      -0.444  10.627  20.705  0.00  0.00    +0.000 S 
ATOM     11  N   UNL     1       2.669   6.904  19.831  0.00  0.00    +0.000 NA
ATOM     12  C   UNL     1       3.751   6.306  19.251  0.00  0.00    +0.000 A 
ATOM     13  H   UNL     1       0.814   8.124  20.684  0.00  0.00    +0.000 HD
ENDROOT
BRANCH   1  16
ATOM     14  C   UNL     1       6.686   4.204  16.400  0.00  0.00    +0.000 C 
ATOM     15  N   UNL     1       5.418   4.760  16.847  0.00  0.00    +0.000 N 
ATOM     16  C   UNL     1       5.494   6.004  17.500  0.00  0.00    +0.000 C 
ATOM     17  O   UNL     1       6.559   6.594  17.661  0.00  0.00    +0.000 OA
BRANCH  15  18
ATOM     18  C   UNL     1       4.204   4.176  16.253  0.00  0.00    +0.000 C 
BRANCH  18  19
ATOM     19  C   UNL     1       3.273   3.499  17.246  0.00  0.00    +0.000 A 
ATOM     20  C   UNL     1       3.720   2.366  17.949  0.00  0.00    +0.000 A 
ATOM     21  C   UNL     1       2.882   1.696  18.844  0.00  0.00    +0.000 A 
ATOM     22  C   UNL     1       1.588   2.161  19.069  0.00  0.00    +0.000 A 
ATOM     23  C   UNL     1       1.136   3.295  18.403  0.00  0.00    +0.000 A 
ATOM     24  C   UNL     1       1.972   3.961  17.501  0.00  0.00    +0.000 A 
ENDBRANCH  18  19
ENDBRANCH  15  18
ENDBRANCH   1  16
BRANCH   8  25
ATOM     25  C   UNL     1       1.580  13.174  18.361  0.00  0.00    +0.000 C 
BRANCH  25  26
ATOM     26  N   UNL     1       2.621  12.616  17.503  0.00  0.00    +0.000 NA
ATOM     27  H   UNL     1       3.065  13.390  17.008  0.00  0.00    +0.000 HD
ATOM     28  H   UNL     1       2.185  12.037  16.790  0.00  0.00    +0.000 HD
ENDBRANCH  25  26
ENDBRANCH   8  25
TORSDOF 5
ENDMDL
MODEL 6
REMARK VINA RESULT:      -7.5      4.209      8.151
REMARK  Name = 
REMARK  6 active torsions:
REMARK  status: ('A' for Active; 'I' for Inactive)
REMARK    1  A    between atoms: C_1  and  N_2
REMARK    2  A    between atoms: N_2  and  C_3
REMARK    3  A    between atoms: C_3  and  C_4
REMARK    4  A    between atoms: C_10  and  C_12
REMARK    5  A    between atoms: C_19  and  C_20
REMARK    6  A    between atoms: C_20  and  N_21
REMARK                            x       y       z     vdW  Elec       q    Type
REMARK                         _______ _______ _______ _____ _____    ______ ____
ROOT
ATOM      1  C   UNL     1       4.257   6.301  18.287  0.00  0.00    +0.000 A 
ATOM      2  C   UNL     1       3.382   7.285  17.862  0.00  0.00    +0.000 A 
ATOM      3  C   UNL     1       2.357   7.710  18.699  0.00  0.00    +0.000 A 
ATOM      4  C   UNL     1       2.167   7.092  19.932  0.00  0.00    +0.000 A 
ATOM      5  N   UNL     1       1.176   7.513  20.823  0.00  0.00    +0.000 N 
ATOM      6  C   UNL     1       0.799   8.800  21.015  0.00  0.00    +0.000 A 
ATOM      7  N   UNL     1       1.233   9.845  20.341  0.00  0.00    +0.000 NA
ATOM      8  C   UNL     1       0.696  11.025  20.831  0.00  0.00    +0.000 A 
ATOM      9  C   UNL     1      -0.194  10.854  21.872  0.00  0.00    +0.000 A 
ATOM     10  S   UNL     1      -0.318   9.193  22.273  0.00  0.00    +0.000 S 
ATOM     11  N   UNL     1       2.925   6.039  20.310  0.00  0.00    +0.000 NA
ATOM     12  C   UNL     1       3.953   5.672  19.490  0.00  0.00    +0.000 A 
ATOM     13  H   UNL     1       1.124   6.883  21.615  0.00  0.00    +0.000 HD
ENDROOT
BRANCH   1  16
ATOM     14  C   UNL     1       6.595   4.421  15.943  0.00  0.00    +0.000 C 
ATOM     15  N   UNL     1       5.367   4.748  16.652  0.00  0.00    +0.000 N 
ATOM     16  C   UNL     1       5.433   5.870  17.498  0.00  0.00    +0.000 C 
ATOM     17  O   UNL     1       6.453   6.545  17.612  0.00  0.00    +0.000 OA
BRANCH  15  18
ATOM     18  C   UNL     1       4.132   4.133  16.138  0.00  0.00    +0.000 C 
BRANCH  18  19
ATOM     19  C   UNL     1       3.304   3.401  17.181  0.00  0.00    +0.000 A 
ATOM     20  C   UNL     1       1.975   3.800  17.411  0.00  0.00    +0.000 A 
ATOM     21  C   UNL     1       1.193   3.175  18.385  0.00  0.00    +0.000 A 
ATOM     22  C   UNL     1       1.720   2.124  19.133  0.00  0.00    +0.000 A 
ATOM     23  C   UNL     1       3.024   1.698  18.903  0.00  0.00    +0.000 A 
ATOM     24  C   UNL     1       3.809   2.329  17.934  0.00  0.00    +0.000 A 
ENDBRANCH  18  19
ENDBRANCH  15  18
ENDBRANCH   1  16
BRANCH   8  25
ATOM     25  C   UNL     1       1.114  12.314  20.201  0.00  0.00    +0.000 C 
BRANCH  25  26
ATOM     26  N   UNL     1       2.029  13.006  21.105  0.00  0.00    +0.000 NA
ATOM     27  H   UNL     1       1.504  13.261  21.943  0.00  0.00    +0.000 HD
ATOM     28  H   UNL     1       2.318  13.881  20.674  0.00  0.00    +0.000 HD
ENDBRANCH  25  26
ENDBRANCH   8  25
TORSDOF 5
ENDMDL
MODEL 7
REMARK VINA RESULT:      -7.5      4.747      8.314
REMARK  Name = 
REMARK  6 active torsions:
REMARK  status: ('A' for Active; 'I' for Inactive)
REMARK    1  A    between atoms: C_1  and  N_2
REMARK    2  A    between atoms: N_2  and  C_3
REMARK    3  A    between atoms: C_3  and  C_4
REMARK    4  A    between atoms: C_10  and  C_12
REMARK    5  A    between atoms: C_19  and  C_20
REMARK    6  A    between atoms: C_20  and  N_21
REMARK                            x       y       z     vdW  Elec       q    Type
REMARK                         _______ _______ _______ _____ _____    ______ ____
ROOT
ATOM      1  C   UNL     1       3.109   7.133  18.141  0.00  0.00    +0.000 A 
ATOM      2  C   UNL     1       2.442   8.181  17.530  0.00  0.00    +0.000 A 
ATOM      3  C   UNL     1       1.631   9.020  18.285  0.00  0.00    +0.000 A 
ATOM      4  C   UNL     1       1.430   8.759  19.637  0.00  0.00    +0.000 A 
ATOM      5  N   UNL     1       0.655   9.598  20.444  0.00  0.00    +0.000 N 
ATOM      6  C   UNL     1       0.603  10.947  20.337  0.00  0.00    +0.000 A 
ATOM      7  N   UNL     1       1.193  11.677  19.412  0.00  0.00    +0.000 NA
ATOM      8  C   UNL     1       0.991  13.030  19.626  0.00  0.00    +0.000 A 
ATOM      9  C   UNL     1       0.194  13.319  20.717  0.00  0.00    +0.000 A 
ATOM     10  S   UNL     1      -0.263  11.872  21.511  0.00  0.00    +0.000 S 
ATOM     11  N   UNL     1       1.963   7.664  20.224  0.00  0.00    +0.000 NA
ATOM     12  C   UNL     1       2.792   6.883  19.472  0.00  0.00    +0.000 A 
ATOM     13  H   UNL     1       0.541   9.193  21.365  0.00  0.00    +0.000 HD
ENDROOT
BRANCH   1  16
ATOM     14  C   UNL     1       4.878   4.131  16.609  0.00  0.00    +0.000 C 
ATOM     15  N   UNL     1       3.852   4.877  17.321  0.00  0.00    +0.000 N 
ATOM     16  C   UNL     1       4.070   6.263  17.428  0.00  0.00    +0.000 C 
ATOM     17  O   UNL     1       5.050   6.811  16.931  0.00  0.00    +0.000 OA
BRANCH  15  18
ATOM     18  C   UNL     1       2.561   4.194  17.509  0.00  0.00    +0.000 C 
BRANCH  18  19
ATOM     19  C   UNL     1       2.322   3.662  18.913  0.00  0.00    +0.000 A 
ATOM     20  C   UNL     1       3.405   3.148  19.649  0.00  0.00    +0.000 A 
ATOM     21  C   UNL     1       3.220   2.619  20.929  0.00  0.00    +0.000 A 
ATOM     22  C   UNL     1       1.951   2.613  21.504  0.00  0.00    +0.000 A 
ATOM     23  C   UNL     1       0.872   3.141  20.802  0.00  0.00    +0.000 A 
ATOM     24  C   UNL     1       1.056   3.663  19.519  0.00  0.00    +0.000 A 
ENDBRANCH  18  19
ENDBRANCH  15  18
ENDBRANCH   1  16
BRANCH   8  25
ATOM     25  C   UNL     1       1.626  14.004  18.687  0.00  0.00    +0.000 C 
BRANCH  25  26
ATOM     26  N   UNL     1       3.074  13.824  18.728  0.00  0.00    +0.000 NA
ATOM     27  H   UNL     1       3.411  14.219  19.607  0.00  0.00    +0.000 HD
ATOM     28  H   UNL     1       3.496  14.378  17.988  0.00  0.00    +0.000 HD
ENDBRANCH  25  26
ENDBRANCH   8  25
TORSDOF 5
ENDMDL
MODEL 8
REMARK VINA RESULT:      -7.5      3.799      7.580
REMARK  Name = 
REMARK  6 active torsions:
REMARK  status: ('A' for Active; 'I' for Inactive)
REMARK    1  A    between atoms: C_1  and  N_2
REMARK    2  A    between atoms: N_2  and  C_3
REMARK    3  A    between atoms: C_3  and  C_4
REMARK    4  A    between atoms: C_10  and  C_12
REMARK    5  A    between atoms: C_19  and  C_20
REMARK    6  A    between atoms: C_20  and  N_21
REMARK                            x       y       z     vdW  Elec       q    Type
REMARK                         _______ _______ _______ _____ _____    ______ ____
ROOT
ATOM      1  C   UNL     1       3.503   4.655  18.132  0.00  0.00    +0.000 A 
ATOM      2  C   UNL     1       2.504   5.521  17.724  0.00  0.00    +0.000 A 
ATOM      3  C   UNL     1       1.859   6.324  18.658  0.00  0.00    +0.000 A 
ATOM      4  C   UNL     1       2.166   6.199  20.010  0.00  0.00    +0.000 A 
ATOM      5  N   UNL     1       1.571   7.012  20.979  0.00  0.00    +0.000 N 
ATOM      6  C   UNL     1       1.257   8.319  20.810  0.00  0.00    +0.000 A 
ATOM      7  N   UNL     1       1.374   9.008  19.694  0.00  0.00    +0.000 NA
ATOM      8  C   UNL     1       1.027  10.337  19.878  0.00  0.00    +0.000 A 
ATOM      9  C   UNL     1       0.600  10.640  21.156  0.00  0.00    +0.000 A 
ATOM     10  S   UNL     1       0.686   9.248  22.150  0.00  0.00    +0.000 S 
ATOM     11  N   UNL     1       3.041   5.266  20.445  0.00  0.00    +0.000 NA
ATOM     12  C   UNL     1       3.694   4.523  19.503  0.00  0.00    +0.000 A 
ATOM     13  H   UNL     1       1.840   6.707  21.907  0.00  0.00    +0.000 HD
ENDROOT
BRANCH   1  16
ATOM     14  C   UNL     1       5.768   3.551  15.278  0.00  0.00    +0.000 C 
ATOM     15  N   UNL     1       5.030   4.456  16.146  0.00  0.00    +0.000 N 
ATOM     16  C   UNL     1       4.307   3.847  17.188  0.00  0.00    +0.000 C 
ATOM     17  O   UNL     1       4.319   2.633  17.369  0.00  0.00    +0.000 OA
BRANCH  15  18
ATOM     18  C   UNL     1       5.410   5.877  16.081  0.00  0.00    +0.000 C 
BRANCH  18  19
ATOM     19  C   UNL     1       6.454   6.303  17.100  0.00  0.00    +0.000 A 
ATOM     20  C   UNL     1       6.947   7.621  17.074  0.00  0.00    +0.000 A 
ATOM     21  C   UNL     1       7.931   8.041  17.972  0.00  0.00    +0.000 A 
ATOM     22  C   UNL     1       8.427   7.155  18.927  0.00  0.00    +0.000 A 
ATOM     23  C   UNL     1       7.934   5.856  18.985  0.00  0.00    +0.000 A 
ATOM     24  C   UNL     1       6.955   5.434  18.082  0.00  0.00    +0.000 A 
ENDBRANCH  18  19
ENDBRANCH  15  18
ENDBRANCH   1  16
BRANCH   8  25
ATOM     25  C   UNL     1       1.138  11.271  18.717  0.00  0.00    +0.000 C 
BRANCH  25  26
ATOM     26  N   UNL     1       1.918  10.625  17.665  0.00  0.00    +0.000 NA
ATOM     27  H   UNL     1       2.567   9.976  18.113  0.00  0.00    +0.000 HD
ATOM     28  H   UNL     1       2.493  11.326  17.204  0.00  0.00    +0.000 HD
ENDBRANCH  25  26
ENDBRANCH   8  25
TORSDOF 5
ENDMDL
MODEL 9
REMARK VINA RESULT:      -7.4      5.069      8.770
REMARK  Name = 
REMARK  6 active torsions:
REMARK  status: ('A' for Active; 'I' for Inactive)
REMARK    1  A    between atoms: C_1  and  N_2
REMARK    2  A    between atoms: N_2  and  C_3
REMARK    3  A    between atoms: C_3  and  C_4
REMARK    4  A    between atoms: C_10  and  C_12
REMARK    5  A    between atoms: C_19  and  C_20
REMARK    6  A    between atoms: C_20  and  N_21
REMARK                            x       y       z     vdW  Elec       q    Type
REMARK                         _______ _______ _______ _____ _____    ______ ____
ROOT
ATOM      1  C   UNL     1       2.803   7.399  18.445  0.00  0.00    +0.000 A 
ATOM      2  C   UNL     1       2.002   8.399  17.923  0.00  0.00    +0.000 A 
ATOM      3  C   UNL     1       1.157   9.118  18.761  0.00  0.00    +0.000 A 
ATOM      4  C   UNL     1       1.062   8.779  20.107  0.00  0.00    +0.000 A 
ATOM      5  N   UNL     1       0.256   9.499  20.995  0.00  0.00    +0.000 N 
ATOM      6  C   UNL     1       0.064  10.839  20.956  0.00  0.00    +0.000 A 
ATOM      7  N   UNL     1       0.524  11.664  20.039  0.00  0.00    +0.000 NA
ATOM      8  C   UNL     1       0.202  12.980  20.330  0.00  0.00    +0.000 A 
ATOM      9  C   UNL     1      -0.555  13.139  21.474  0.00  0.00    +0.000 A 
ATOM     10  S   UNL     1      -0.819  11.620  22.219  0.00  0.00    +0.000 S 
ATOM     11  N   UNL     1       1.734   7.720  20.610  0.00  0.00    +0.000 NA
ATOM     12  C   UNL     1       2.591   7.061  19.777  0.00  0.00    +0.000 A 
ATOM     13  H   UNL     1       0.237   9.045  21.900  0.00  0.00    +0.000 HD
ENDROOT
BRANCH   1  16
ATOM     14  C   UNL     1       4.743   4.669  16.635  0.00  0.00    +0.000 C 
ATOM     15  N   UNL     1       3.688   5.277  17.432  0.00  0.00    +0.000 N 
ATOM     16  C   UNL     1       3.803   6.663  17.640  0.00  0.00    +0.000 C 
ATOM     17  O   UNL     1       4.721   7.323  17.159  0.00  0.00    +0.000 OA
BRANCH  15  18
ATOM     18  C   UNL     1       2.460   4.482  17.604  0.00  0.00    +0.000 C 
BRANCH  18  19
ATOM     19  C   UNL     1       2.331   3.795  18.953  0.00  0.00    +0.000 A 
ATOM     20  C   UNL     1       1.068   3.709  19.566  0.00  0.00    +0.000 A 
ATOM     21  C   UNL     1       0.915   3.115  20.822  0.00  0.00    +0.000 A 
ATOM     22  C   UNL     1       2.020   2.577  21.478  0.00  0.00    +0.000 A 
ATOM     23  C   UNL     1       3.273   2.630  20.877  0.00  0.00    +0.000 A 
ATOM     24  C   UNL     1       3.428   3.230  19.624  0.00  0.00    +0.000 A 
ENDBRANCH  18  19
ENDBRANCH  15  18
ENDBRANCH   1  16
BRANCH   8  25
ATOM     25  C   UNL     1       0.681  14.053  19.407  0.00  0.00    +0.000 C 
BRANCH  25  26
ATOM     26  N   UNL     1      -0.387  14.378  18.466  0.00  0.00    +0.000 NA
ATOM     27  H   UNL     1      -1.258  13.999  18.841  0.00  0.00    +0.000 HD
ATOM     28  H   UNL     1      -0.218  13.885  17.592  0.00  0.00    +0.000 HD
ENDBRANCH  25  26
ENDBRANCH   8  25
TORSDOF 5
ENDMDL
