MODEL 1
REMARK VINA RESULT:      -6.0      0.000      0.000
REMARK  Name = 
REMARK  2 active torsions:
REMARK  status: ('A' for Active; 'I' for Inactive)
REMARK    1  A    between atoms: C_1  and  N_2
REMARK    2  A    between atoms: C_12  and  C_14
REMARK                            x       y       z     vdW  Elec       q    Type
REMARK                         _______ _______ _______ _____ _____    ______ ____
ROOT
ATOM      1  C   UNL     1       1.999   5.224  21.635  0.00  0.00    +0.000 C 
ATOM      2  N   UNL     1       2.427   4.026  20.896  0.00  0.00    +0.000 N 
ATOM      3  C   UNL     1       2.600   2.710  21.305  0.00  0.00    +0.000 C 
ATOM      4  O   UNL     1       2.021   2.154  22.228  0.00  0.00    +0.000 OA
ATOM      5  C   UNL     1       3.604   2.035  20.425  0.00  0.00    +0.000 C 
ATOM      6  C   UNL     1       3.378   2.777  19.132  0.00  0.00    +0.000 C 
ATOM      7  C   UNL     1       2.942   4.199  19.565  0.00  0.00    +0.000 C 
ATOM      8  C   UNL     1       1.798   4.692  18.650  0.00  0.00    +0.000 C 
ATOM      9  C   UNL     1       2.303   4.965  17.244  0.00  0.00    +0.000 C 
ATOM     10  C   UNL     1       3.512   5.912  17.297  0.00  0.00    +0.000 C 
ATOM     11  N   UNL     1       4.557   5.384  18.192  0.00  0.00    +0.000 N 
ATOM     12  C   UNL     1       5.816   4.832  17.892  0.00  0.00    +0.000 C 
ATOM     13  O   UNL     1       6.582   4.414  18.750  0.00  0.00    +0.000 OA
ATOM     14  C   UNL     1       4.104   5.207  19.555  0.00  0.00    +0.000 C 
ENDROOT
BRANCH  12  15
ATOM     15  C   UNL     1       6.200   4.696  16.489  0.00  0.00    +0.000 A 
ATOM     16  C   UNL     1       5.733   3.640  15.712  0.00  0.00    +0.000 A 
ATOM     17  C   UNL     1       6.070   3.612  14.378  0.00  0.00    +0.000 A 
ATOM     18  N   UNL     1       6.907   4.501  13.813  0.00  0.00    +0.000 NA
ATOM     19  C   UNL     1       7.429   5.451  14.617  0.00  0.00    +0.000 A 
ATOM     20  C   UNL     1       7.106   5.595  15.956  0.00  0.00    +0.000 A 
ATOM     21  F   UNL     1       7.651   6.582  16.680  0.00  0.00    +0.000 F 
ENDBRANCH  12  15
TORSDOF 1
ENDMDL
MODEL 2
REMARK VINA RESULT:      -6.0      2.145      2.837
REMARK  Name = 
REMARK  2 active torsions:
REMARK  status: ('A' for Active; 'I' for Inactive)
REMARK    1  A    between atoms: C_1  and  N_2
REMARK    2  A    between atoms: C_12  and  C_14
REMARK                            x       y       z     vdW  Elec       q    Type
REMARK                         _______ _______ _______ _____ _____    ______ ____
ROOT
ATOM      1  C   UNL     1       0.156   2.130  19.320  0.00  0.00    +0.000 C 
ATOM      2  N   UNL     1       1.322   2.555  20.110  0.00  0.00    +0.000 N 
ATOM      3  C   UNL     1       1.480   2.762  21.474  0.00  0.00    +0.000 C 
ATOM      4  O   UNL     1       0.847   2.218  22.368  0.00  0.00    +0.000 OA
ATOM      5  C   UNL     1       2.576   3.751  21.712  0.00  0.00    +0.000 C 
ATOM      6  C   UNL     1       3.458   3.475  20.520  0.00  0.00    +0.000 C 
ATOM      7  C   UNL     1       2.482   3.029  19.403  0.00  0.00    +0.000 C 
ATOM      8  C   UNL     1       3.098   1.851  18.615  0.00  0.00    +0.000 C 
ATOM      9  C   UNL     1       4.286   2.311  17.787  0.00  0.00    +0.000 C 
ATOM     10  C   UNL     1       3.882   3.505  16.910  0.00  0.00    +0.000 C 
ATOM     11  N   UNL     1       3.295   4.585  17.725  0.00  0.00    +0.000 N 
ATOM     12  C   UNL     1       3.817   5.843  18.077  0.00  0.00    +0.000 C 
ATOM     13  O   UNL     1       3.214   6.640  18.784  0.00  0.00    +0.000 OA
ATOM     14  C   UNL     1       2.109   4.174  18.446  0.00  0.00    +0.000 C 
ENDROOT
BRANCH  12  15
ATOM     15  C   UNL     1       5.163   6.188  17.628  0.00  0.00    +0.000 A 
ATOM     16  C   UNL     1       5.395   6.668  16.343  0.00  0.00    +0.000 A 
ATOM     17  C   UNL     1       6.675   7.048  16.008  0.00  0.00    +0.000 A 
ATOM     18  N   UNL     1       7.728   6.883  16.830  0.00  0.00    +0.000 NA
ATOM     19  C   UNL     1       7.488   6.314  18.030  0.00  0.00    +0.000 A 
ATOM     20  C   UNL     1       6.228   5.953  18.479  0.00  0.00    +0.000 A 
ATOM     21  F   UNL     1       6.073   5.416  19.696  0.00  0.00    +0.000 F 
ENDBRANCH  12  15
TORSDOF 1
ENDMDL
MODEL 3
REMARK VINA RESULT:      -5.9      2.397      6.167
REMARK  Name = 
REMARK  2 active torsions:
REMARK  status: ('A' for Active; 'I' for Inactive)
REMARK    1  A    between atoms: C_1  and  N_2
REMARK    2  A    between atoms: C_12  and  C_14
REMARK                            x       y       z     vdW  Elec       q    Type
REMARK                         _______ _______ _______ _____ _____    ______ ____
ROOT
ATOM      1  C   UNL     1       5.316   7.055  15.020  0.00  0.00    +0.000 C 
ATOM      2  N   UNL     1       5.614   5.679  15.448  0.00  0.00    +0.000 N 
ATOM      3  C   UNL     1       6.106   4.587  14.745  0.00  0.00    +0.000 C 
ATOM      4  O   UNL     1       6.819   4.625  13.751  0.00  0.00    +0.000 OA
ATOM      5  C   UNL     1       5.653   3.320  15.397  0.00  0.00    +0.000 C 
ATOM      6  C   UNL     1       5.563   3.768  16.834  0.00  0.00    +0.000 C 
ATOM      7  C   UNL     1       5.181   5.267  16.756  0.00  0.00    +0.000 C 
ATOM      8  C   UNL     1       5.977   6.062  17.815  0.00  0.00    +0.000 C 
ATOM      9  C   UNL     1       5.508   5.722  19.219  0.00  0.00    +0.000 C 
ATOM     10  C   UNL     1       3.985   5.901  19.319  0.00  0.00    +0.000 C 
ATOM     11  N   UNL     1       3.292   5.123  18.275  0.00  0.00    +0.000 N 
ATOM     12  C   UNL     1       2.516   3.954  18.379  0.00  0.00    +0.000 C 
ATOM     13  O   UNL     1       2.011   3.403  17.410  0.00  0.00    +0.000 OA
ATOM     14  C   UNL     1       3.672   5.507  16.932  0.00  0.00    +0.000 C 
ENDROOT
BRANCH  12  15
ATOM     15  C   UNL     1       2.359   3.337  19.693  0.00  0.00    +0.000 A 
ATOM     16  C   UNL     1       1.203   3.525  20.445  0.00  0.00    +0.000 A 
ATOM     17  C   UNL     1       1.085   2.854  21.642  0.00  0.00    +0.000 A 
ATOM     18  N   UNL     1       2.075   2.106  22.164  0.00  0.00    +0.000 NA
ATOM     19  C   UNL     1       3.225   2.031  21.462  0.00  0.00    +0.000 A 
ATOM     20  C   UNL     1       3.417   2.622  20.224  0.00  0.00    +0.000 A 
ATOM     21  F   UNL     1       4.583   2.478  19.580  0.00  0.00    +0.000 F 
ENDBRANCH  12  15
TORSDOF 1
ENDMDL
MODEL 4
REMARK VINA RESULT:      -5.7      2.737      6.321
REMARK  Name = 
REMARK  2 active torsions:
REMARK  status: ('A' for Active; 'I' for Inactive)
REMARK    1  A    between atoms: C_1  and  N_2
REMARK    2  A    between atoms: C_12  and  C_14
REMARK                            x       y       z     vdW  Elec       q    Type
REMARK                         _______ _______ _______ _____ _____    ______ ____
ROOT
ATOM      1  C   UNL     1       5.219   7.064  15.006  0.00  0.00    +0.000 C 
ATOM      2  N   UNL     1       5.580   5.699  15.424  0.00  0.00    +0.000 N 
ATOM      3  C   UNL     1       6.103   4.630  14.709  0.00  0.00    +0.000 C 
ATOM      4  O   UNL     1       6.795   4.699  13.703  0.00  0.00    +0.000 OA
ATOM      5  C   UNL     1       5.713   3.344  15.366  0.00  0.00    +0.000 C 
ATOM      6  C   UNL     1       5.631   3.785  16.806  0.00  0.00    +0.000 C 
ATOM      7  C   UNL     1       5.187   5.268  16.738  0.00  0.00    +0.000 C 
ATOM      8  C   UNL     1       5.970   6.092  17.785  0.00  0.00    +0.000 C 
ATOM      9  C   UNL     1       5.540   5.730  19.196  0.00  0.00    +0.000 C 
ATOM     10  C   UNL     1       4.013   5.847  19.324  0.00  0.00    +0.000 C 
ATOM     11  N   UNL     1       3.334   5.044  18.291  0.00  0.00    +0.000 N 
ATOM     12  C   UNL     1       2.608   3.844  18.405  0.00  0.00    +0.000 C 
ATOM     13  O   UNL     1       2.107   3.275  17.444  0.00  0.00    +0.000 OA
ATOM     14  C   UNL     1       3.673   5.446  16.943  0.00  0.00    +0.000 C 
ENDROOT
BRANCH  12  15
ATOM     15  C   UNL     1       2.499   3.219  19.720  0.00  0.00    +0.000 A 
ATOM     16  C   UNL     1       3.516   2.413  20.223  0.00  0.00    +0.000 A 
ATOM     17  C   UNL     1       3.386   1.916  21.500  0.00  0.00    +0.000 A 
ATOM     18  N   UNL     1       2.280   2.091  22.247  0.00  0.00    +0.000 NA
ATOM     19  C   UNL     1       1.267   2.787  21.690  0.00  0.00    +0.000 A 
ATOM     20  C   UNL     1       1.326   3.374  20.436  0.00  0.00    +0.000 A 
ATOM     21  F   UNL     1       0.282   4.070  19.967  0.00  0.00    +0.000 F 
ENDBRANCH  12  15
TORSDOF 1
ENDMDL
MODEL 5
REMARK VINA RESULT:      -5.7      2.721      6.264
REMARK  Name = 
REMARK  2 active torsions:
REMARK  status: ('A' for Active; 'I' for Inactive)
REMARK    1  A    between atoms: C_1  and  N_2
REMARK    2  A    between atoms: C_12  and  C_14
REMARK                            x       y       z     vdW  Elec       q    Type
REMARK                         _______ _______ _______ _____ _____    ______ ____
ROOT
ATOM      1  C   UNL     1       5.163   6.095  14.311  0.00  0.00    +0.000 C 
ATOM      2  N   UNL     1       5.815   5.661  15.557  0.00  0.00    +0.000 N 
ATOM      3  C   UNL     1       7.121   5.269  15.821  0.00  0.00    +0.000 C 
ATOM      4  O   UNL     1       8.120   5.616  15.206  0.00  0.00    +0.000 OA
ATOM      5  C   UNL     1       7.146   4.356  17.005  0.00  0.00    +0.000 C 
ATOM      6  C   UNL     1       5.965   4.882  17.781  0.00  0.00    +0.000 C 
ATOM      7  C   UNL     1       4.984   5.401  16.702  0.00  0.00    +0.000 C 
ATOM      8  C   UNL     1       4.354   6.733  17.170  0.00  0.00    +0.000 C 
ATOM      9  C   UNL     1       3.404   6.508  18.333  0.00  0.00    +0.000 C 
ATOM     10  C   UNL     1       2.377   5.425  17.968  0.00  0.00    +0.000 C 
ATOM     11  N   UNL     1       3.046   4.190  17.523  0.00  0.00    +0.000 N 
ATOM     12  C   UNL     1       3.172   2.944  18.165  0.00  0.00    +0.000 C 
ATOM     13  O   UNL     1       3.780   2.001  17.675  0.00  0.00    +0.000 OA
ATOM     14  C   UNL     1       3.883   4.383  16.358  0.00  0.00    +0.000 C 
ENDROOT
BRANCH  12  15
ATOM     15  C   UNL     1       2.606   2.789  19.502  0.00  0.00    +0.000 A 
ATOM     16  C   UNL     1       3.422   2.667  20.622  0.00  0.00    +0.000 A 
ATOM     17  C   UNL     1       2.826   2.602  21.861  0.00  0.00    +0.000 A 
ATOM     18  N   UNL     1       1.492   2.551  22.032  0.00  0.00    +0.000 NA
ATOM     19  C   UNL     1       0.729   2.563  20.919  0.00  0.00    +0.000 A 
ATOM     20  C   UNL     1       1.233   2.684  19.635  0.00  0.00    +0.000 A 
ATOM     21  F   UNL     1       0.403   2.713  18.583  0.00  0.00    +0.000 F 
ENDBRANCH  12  15
TORSDOF 1
ENDMDL
MODEL 6
REMARK VINA RESULT:      -5.7      2.417      6.118
REMARK  Name = 
REMARK  2 active torsions:
REMARK  status: ('A' for Active; 'I' for Inactive)
REMARK    1  A    between atoms: C_1  and  N_2
REMARK    2  A    between atoms: C_12  and  C_14
REMARK                            x       y       z     vdW  Elec       q    Type
REMARK                         _______ _______ _______ _____ _____    ______ ____
ROOT
ATOM      1  C   UNL     1       5.193   5.834  14.179  0.00  0.00    +0.000 C 
ATOM      2  N   UNL     1       5.841   5.460  15.447  0.00  0.00    +0.000 N 
ATOM      3  C   UNL     1       7.145   5.080  15.732  0.00  0.00    +0.000 C 
ATOM      4  O   UNL     1       8.147   5.396  15.105  0.00  0.00    +0.000 OA
ATOM      5  C   UNL     1       7.166   4.225  16.959  0.00  0.00    +0.000 C 
ATOM      6  C   UNL     1       5.983   4.790  17.706  0.00  0.00    +0.000 C 
ATOM      7  C   UNL     1       5.006   5.257  16.600  0.00  0.00    +0.000 C 
ATOM      8  C   UNL     1       4.377   6.610  17.001  0.00  0.00    +0.000 C 
ATOM      9  C   UNL     1       3.423   6.443  18.171  0.00  0.00    +0.000 C 
ATOM     10  C   UNL     1       2.395   5.346  17.856  0.00  0.00    +0.000 C 
ATOM     11  N   UNL     1       3.064   4.089  17.474  0.00  0.00    +0.000 N 
ATOM     12  C   UNL     1       3.187   2.875  18.175  0.00  0.00    +0.000 C 
ATOM     13  O   UNL     1       3.795   1.910  17.733  0.00  0.00    +0.000 OA
ATOM     14  C   UNL     1       3.905   4.224  16.303  0.00  0.00    +0.000 C 
ENDROOT
BRANCH  12  15
ATOM     15  C   UNL     1       2.616   2.787  19.516  0.00  0.00    +0.000 A 
ATOM     16  C   UNL     1       1.274   3.068  19.750  0.00  0.00    +0.000 A 
ATOM     17  C   UNL     1       0.780   2.892  21.023  0.00  0.00    +0.000 A 
ATOM     18  N   UNL     1       1.556   2.555  22.070  0.00  0.00    +0.000 NA
ATOM     19  C   UNL     1       2.874   2.394  21.832  0.00  0.00    +0.000 A 
ATOM     20  C   UNL     1       3.453   2.493  20.578  0.00  0.00    +0.000 A 
ATOM     21  F   UNL     1       4.769   2.294  20.423  0.00  0.00    +0.000 F 
ENDBRANCH  12  15
TORSDOF 1
ENDMDL
MODEL 7
REMARK VINA RESULT:      -5.7      2.127      2.831
REMARK  Name = 
REMARK  2 active torsions:
REMARK  status: ('A' for Active; 'I' for Inactive)
REMARK    1  A    between atoms: C_1  and  N_2
REMARK    2  A    between atoms: C_12  and  C_14
REMARK                            x       y       z     vdW  Elec       q    Type
REMARK                         _______ _______ _______ _____ _____    ______ ____
ROOT
ATOM      1  C   UNL     1       0.130   2.226  19.274  0.00  0.00    +0.000 C 
ATOM      2  N   UNL     1       1.299   2.587  20.091  0.00  0.00    +0.000 N 
ATOM      3  C   UNL     1       1.447   2.740  21.463  0.00  0.00    +0.000 C 
ATOM      4  O   UNL     1       0.785   2.186  22.330  0.00  0.00    +0.000 OA
ATOM      5  C   UNL     1       2.570   3.685  21.748  0.00  0.00    +0.000 C 
ATOM      6  C   UNL     1       3.458   3.423  20.557  0.00  0.00    +0.000 C 
ATOM      7  C   UNL     1       2.482   3.048  19.414  0.00  0.00    +0.000 C 
ATOM      8  C   UNL     1       3.070   1.879  18.593  0.00  0.00    +0.000 C 
ATOM      9  C   UNL     1       4.282   2.329  17.795  0.00  0.00    +0.000 C 
ATOM     10  C   UNL     1       3.927   3.565  16.956  0.00  0.00    +0.000 C 
ATOM     11  N   UNL     1       3.364   4.634  17.802  0.00  0.00    +0.000 N 
ATOM     12  C   UNL     1       3.921   5.862  18.203  0.00  0.00    +0.000 C 
ATOM     13  O   UNL     1       3.335   6.652  18.931  0.00  0.00    +0.000 OA
ATOM     14  C   UNL     1       2.157   4.236  18.494  0.00  0.00    +0.000 C 
ENDROOT
BRANCH  12  15
ATOM     15  C   UNL     1       5.283   6.179  17.782  0.00  0.00    +0.000 A 
ATOM     16  C   UNL     1       6.371   5.936  18.615  0.00  0.00    +0.000 A 
ATOM     17  C   UNL     1       7.635   6.186  18.130  0.00  0.00    +0.000 A 
ATOM     18  N   UNL     1       7.861   6.746  16.927  0.00  0.00    +0.000 NA
ATOM     19  C   UNL     1       6.781   7.070  16.186  0.00  0.00    +0.000 A 
ATOM     20  C   UNL     1       5.474   6.805  16.564  0.00  0.00    +0.000 A 
ATOM     21  F   UNL     1       4.457   7.138  15.757  0.00  0.00    +0.000 F 
ENDBRANCH  12  15
TORSDOF 1
ENDMDL
MODEL 8
REMARK VINA RESULT:      -5.6      2.751      6.233
REMARK  Name = 
REMARK  2 active torsions:
REMARK  status: ('A' for Active; 'I' for Inactive)
REMARK    1  A    between atoms: C_1  and  N_2
REMARK    2  A    between atoms: C_12  and  C_14
REMARK                            x       y       z     vdW  Elec       q    Type
REMARK                         _______ _______ _______ _____ _____    ______ ____
ROOT
ATOM      1  C   UNL     1       7.723   7.184  16.732  0.00  0.00    +0.000 C 
ATOM      2  N   UNL     1       7.008   6.005  16.218  0.00  0.00    +0.000 N 
ATOM      3  C   UNL     1       6.909   5.480  14.936  0.00  0.00    +0.000 C 
ATOM      4  O   UNL     1       7.731   5.598  14.038  0.00  0.00    +0.000 OA
ATOM      5  C   UNL     1       5.634   4.710  14.803  0.00  0.00    +0.000 C 
ATOM      6  C   UNL     1       5.457   4.224  16.220  0.00  0.00    +0.000 C 
ATOM      7  C   UNL     1       6.089   5.333  17.097  0.00  0.00    +0.000 C 
ATOM      8  C   UNL     1       6.889   4.688  18.251  0.00  0.00    +0.000 C 
ATOM      9  C   UNL     1       5.961   4.026  19.255  0.00  0.00    +0.000 C 
ATOM     10  C   UNL     1       4.892   5.027  19.719  0.00  0.00    +0.000 C 
ATOM     11  N   UNL     1       4.177   5.607  18.568  0.00  0.00    +0.000 N 
ATOM     12  C   UNL     1       2.862   5.396  18.116  0.00  0.00    +0.000 C 
ATOM     13  O   UNL     1       2.404   5.942  17.121  0.00  0.00    +0.000 OA
ATOM     14  C   UNL     1       5.048   6.318  17.655  0.00  0.00    +0.000 C 
ENDROOT
BRANCH  12  15
ATOM     15  C   UNL     1       2.027   4.434  18.830  0.00  0.00    +0.000 A 
ATOM     16  C   UNL     1       1.602   3.256  18.223  0.00  0.00    +0.000 A 
ATOM     17  C   UNL     1       0.881   2.355  18.975  0.00  0.00    +0.000 A 
ATOM     18  N   UNL     1       0.485   2.605  20.237  0.00  0.00    +0.000 NA
ATOM     19  C   UNL     1       0.821   3.802  20.761  0.00  0.00    +0.000 A 
ATOM     20  C   UNL     1       1.591   4.748  20.105  0.00  0.00    +0.000 A 
ATOM     21  F   UNL     1       1.901   5.904  20.707  0.00  0.00    +0.000 F 
ENDBRANCH  12  15
TORSDOF 1
ENDMDL
MODEL 9
REMARK VINA RESULT:      -5.6      2.674      6.243
REMARK  Name = 
REMARK  2 active torsions:
REMARK  status: ('A' for Active; 'I' for Inactive)
REMARK    1  A    between atoms: C_1  and  N_2
REMARK    2  A    between atoms: C_12  and  C_14
REMARK                            x       y       z     vdW  Elec       q    Type
REMARK                         _______ _______ _______ _____ _____    ______ ____
ROOT
ATOM      1  C   UNL     1       7.675   7.163  16.682  0.00  0.00    +0.000 C 
ATOM      2  N   UNL     1       6.976   5.973  16.171  0.00  0.00    +0.000 N 
ATOM      3  C   UNL     1       6.878   5.446  14.890  0.00  0.00    +0.000 C 
ATOM      4  O   UNL     1       7.693   5.577  13.988  0.00  0.00    +0.000 OA
ATOM      5  C   UNL     1       5.614   4.657  14.763  0.00  0.00    +0.000 C 
ATOM      6  C   UNL     1       5.452   4.169  16.181  0.00  0.00    +0.000 C 
ATOM      7  C   UNL     1       6.072   5.287  17.055  0.00  0.00    +0.000 C 
ATOM      8  C   UNL     1       6.888   4.654  18.205  0.00  0.00    +0.000 C 
ATOM      9  C   UNL     1       5.975   3.978  19.214  0.00  0.00    +0.000 C 
ATOM     10  C   UNL     1       4.893   4.963  19.683  0.00  0.00    +0.000 C 
ATOM     11  N   UNL     1       4.163   5.532  18.536  0.00  0.00    +0.000 N 
ATOM     12  C   UNL     1       2.849   5.301  18.091  0.00  0.00    +0.000 C 
ATOM     13  O   UNL     1       2.378   5.840  17.098  0.00  0.00    +0.000 OA
ATOM     14  C   UNL     1       5.018   6.256  17.619  0.00  0.00    +0.000 C 
ENDROOT
BRANCH  12  15
ATOM     15  C   UNL     1       2.032   4.326  18.809  0.00  0.00    +0.000 A 
ATOM     16  C   UNL     1       1.495   4.616  20.060  0.00  0.00    +0.000 A 
ATOM     17  C   UNL     1       0.672   3.684  20.650  0.00  0.00    +0.000 A 
ATOM     18  N   UNL     1       0.441   2.468  20.121  0.00  0.00    +0.000 NA
ATOM     19  C   UNL     1       1.063   2.177  18.959  0.00  0.00    +0.000 A 
ATOM     20  C   UNL     1       1.863   3.067  18.262  0.00  0.00    +0.000 A 
ATOM     21  F   UNL     1       2.424   2.705  17.101  0.00  0.00    +0.000 F 
ENDBRANCH  12  15
TORSDOF 1
ENDMDL
