MODEL 1
REMARK VINA RESULT:      -7.6      0.000      0.000
REMARK  Name = 
REMARK  10 active torsions:
REMARK  status: ('A' for Active; 'I' for Inactive)
REMARK    1  A    between atoms: C_1  and  O_2
REMARK    2  A    between atoms: O_2  and  C_3
REMARK    3  A    between atoms: C_8  and  C_9
REMARK    4  A    between atoms: N_11  and  C_12
REMARK    5  A    between atoms: C_13  and  C_14
REMARK    6  A    between atoms: C_19  and  C_20
REMARK    7  A    between atoms: C_19  and  C_21
REMARK    8  A    between atoms: N_23  and  C_24
REMARK    9  A    between atoms: C_24  and  C_25
REMARK   10  A    between atoms: C_25  and  N_26
REMARK                            x       y       z     vdW  Elec       q    Type
REMARK                         _______ _______ _______ _____ _____    ______ ____
ROOT
ATOM      1  C   UNL     1      -0.032  10.879  22.211  0.00  0.00    +0.000 A 
ATOM      2  C   UNL     1      -0.547   9.760  22.876  0.00  0.00    +0.000 A 
ATOM      3  C   UNL     1      -0.418   8.482  22.346  0.00  0.00    +0.000 A 
ATOM      4  C   UNL     1       0.240   8.286  21.127  0.00  0.00    +0.000 A 
ATOM      5  C   UNL     1       0.773   9.386  20.408  0.00  0.00    +0.000 A 
ATOM      6  C   UNL     1       1.465   9.550  19.150  0.00  0.00    +0.000 A 
ATOM      7  C   UNL     1       1.702  10.902  19.002  0.00  0.00    +0.000 A 
ATOM      8  N   UNL     1       1.174  11.561  20.063  0.00  0.00    +0.000 N 
ATOM      9  C   UNL     1       0.609  10.667  20.964  0.00  0.00    +0.000 A 
ENDROOT
BRANCH   6  10
ATOM     10  C   UNL     1       1.917   8.534  18.172  0.00  0.00    +0.000 C 
ATOM     11  O   UNL     1       1.974   8.743  16.980  0.00  0.00    +0.000 OA
ATOM     12  N   UNL     1       2.251   7.329  18.768  0.00  0.00    +0.000 N 
ATOM     13  H   UNL     1       2.079   7.218  19.755  0.00  0.00    +0.000 HD
BRANCH  12  14
ATOM     14  C   UNL     1       2.667   6.166  18.013  0.00  0.00    +0.000 C 
ATOM     15  C   UNL     1       4.218   6.025  17.901  0.00  0.00    +0.000 C 
ATOM     16  C   UNL     1       4.861   7.029  16.963  0.00  0.00    +0.000 C 
ATOM     17  C   UNL     1       4.886   5.966  19.295  0.00  0.00    +0.000 C 
ATOM     18  C   UNL     1       4.495   4.573  19.805  0.00  0.00    +0.000 C 
ATOM     19  C   UNL     1       3.595   4.025  18.680  0.00  0.00    +0.000 C 
ATOM     20  C   UNL     1       4.349   4.563  17.455  0.00  0.00    +0.000 C 
ATOM     21  C   UNL     1       2.228   4.785  18.609  0.00  0.00    +0.000 C 
ATOM     22  C   UNL     1       1.505   4.849  19.964  0.00  0.00    +0.000 C 
ATOM     23  C   UNL     1       1.266   4.081  17.627  0.00  0.00    +0.000 C 
ENDBRANCH  12  14
ENDBRANCH   6  10
BRANCH   1  25
ATOM     24  C   UNL     1      -1.519  12.570  22.944  0.00  0.00    +0.000 C 
ATOM     25  O   UNL     1      -0.173  12.158  22.701  0.00  0.00    +0.000 OA
ENDBRANCH   1  25
BRANCH   8  26
ATOM     26  C   UNL     1       1.137  12.997  20.239  0.00  0.00    +0.000 C 
BRANCH  26  27
ATOM     27  C   UNL     1       2.383  13.835  19.890  0.00  0.00    +0.000 C 
BRANCH  27  28
ATOM     28  N   UNL     1       2.169  14.592  18.638  0.00  0.00    +0.000 NA
ATOM     29  C   UNL     1       1.290  15.759  18.839  0.00  0.00    +0.000 C 
ATOM     30  C   UNL     1       2.028  16.955  19.444  0.00  0.00    +0.000 C 
ATOM     31  O   UNL     1       3.059  17.394  18.555  0.00  0.00    +0.000 OA
ATOM     32  C   UNL     1       4.030  16.358  18.373  0.00  0.00    +0.000 C 
ATOM     33  C   UNL     1       3.400  15.023  17.935  0.00  0.00    +0.000 C 
ENDBRANCH  27  28
ENDBRANCH  26  27
ENDBRANCH   8  26
TORSDOF 6
ENDMDL
MODEL 2
REMARK VINA RESULT:      -7.4      3.240      8.107
REMARK  Name = 
REMARK  10 active torsions:
REMARK  status: ('A' for Active; 'I' for Inactive)
REMARK    1  A    between atoms: C_1  and  O_2
REMARK    2  A    between atoms: O_2  and  C_3
REMARK    3  A    between atoms: C_8  and  C_9
REMARK    4  A    between atoms: N_11  and  C_12
REMARK    5  A    between atoms: C_13  and  C_14
REMARK    6  A    between atoms: C_19  and  C_20
REMARK    7  A    between atoms: C_19  and  C_21
REMARK    8  A    between atoms: N_23  and  C_24
REMARK    9  A    between atoms: C_24  and  C_25
REMARK   10  A    between atoms: C_25  and  N_26
REMARK                            x       y       z     vdW  Elec       q    Type
REMARK                         _______ _______ _______ _____ _____    ______ ____
ROOT
ATOM      1  C   UNL     1       2.256   2.932  18.658  0.00  0.00    +0.000 A 
ATOM      2  C   UNL     1       1.376   2.331  19.566  0.00  0.00    +0.000 A 
ATOM      3  C   UNL     1       0.748   3.069  20.560  0.00  0.00    +0.000 A 
ATOM      4  C   UNL     1       0.980   4.444  20.673  0.00  0.00    +0.000 A 
ATOM      5  C   UNL     1       1.867   5.102  19.784  0.00  0.00    +0.000 A 
ATOM      6  C   UNL     1       2.348   6.457  19.631  0.00  0.00    +0.000 A 
ATOM      7  C   UNL     1       3.229   6.447  18.569  0.00  0.00    +0.000 A 
ATOM      8  N   UNL     1       3.336   5.181  18.096  0.00  0.00    +0.000 N 
ATOM      9  C   UNL     1       2.500   4.322  18.801  0.00  0.00    +0.000 A 
ENDROOT
BRANCH   6  10
ATOM     10  C   UNL     1       1.990   7.684  20.380  0.00  0.00    +0.000 C 
ATOM     11  O   UNL     1       2.112   7.785  21.581  0.00  0.00    +0.000 OA
ATOM     12  N   UNL     1       1.498   8.686  19.560  0.00  0.00    +0.000 N 
ATOM     13  H   UNL     1       1.341   8.477  18.586  0.00  0.00    +0.000 HD
BRANCH  12  14
ATOM     14  C   UNL     1       1.029   9.959  20.067  0.00  0.00    +0.000 C 
ATOM     15  C   UNL     1       0.723  10.997  18.941  0.00  0.00    +0.000 C 
ATOM     16  C   UNL     1       1.962  11.566  18.276  0.00  0.00    +0.000 C 
ATOM     17  C   UNL     1      -0.324  10.456  17.939  0.00  0.00    +0.000 C 
ATOM     18  C   UNL     1      -1.627  10.497  18.745  0.00  0.00    +0.000 C 
ATOM     19  C   UNL     1      -1.168  10.988  20.133  0.00  0.00    +0.000 C 
ATOM     20  C   UNL     1      -0.117  12.025  19.710  0.00  0.00    +0.000 C 
ATOM     21  C   UNL     1      -0.312   9.908  20.876  0.00  0.00    +0.000 C 
ATOM     22  C   UNL     1      -0.998   8.533  20.934  0.00  0.00    +0.000 C 
ATOM     23  C   UNL     1      -0.050  10.334  22.337  0.00  0.00    +0.000 C 
ENDBRANCH  12  14
ENDBRANCH   6  10
BRANCH   1  25
ATOM     24  C   UNL     1       3.805   1.211  18.164  0.00  0.00    +0.000 C 
ATOM     25  O   UNL     1       2.913   2.217  17.682  0.00  0.00    +0.000 OA
ENDBRANCH   1  25
BRANCH   8  26
ATOM     26  C   UNL     1       4.225   4.738  17.043  0.00  0.00    +0.000 C 
BRANCH  26  27
ATOM     27  C   UNL     1       5.128   5.767  16.334  0.00  0.00    +0.000 C 
BRANCH  27  28
ATOM     28  N   UNL     1       6.554   5.414  16.504  0.00  0.00    +0.000 NA
ATOM     29  C   UNL     1       7.435   6.590  16.380  0.00  0.00    +0.000 C 
ATOM     30  C   UNL     1       7.482   7.429  17.659  0.00  0.00    +0.000 C 
ATOM     31  O   UNL     1       8.020   6.652  18.733  0.00  0.00    +0.000 OA
ATOM     32  C   UNL     1       7.174   5.531  19.004  0.00  0.00    +0.000 C 
ATOM     33  C   UNL     1       6.885   4.685  17.750  0.00  0.00    +0.000 C 
ENDBRANCH  27  28
ENDBRANCH  26  27
ENDBRANCH   8  26
TORSDOF 6
ENDMDL
MODEL 3
REMARK VINA RESULT:      -7.2      3.061      4.661
REMARK  Name = 
REMARK  10 active torsions:
REMARK  status: ('A' for Active; 'I' for Inactive)
REMARK    1  A    between atoms: C_1  and  O_2
REMARK    2  A    between atoms: O_2  and  C_3
REMARK    3  A    between atoms: C_8  and  C_9
REMARK    4  A    between atoms: N_11  and  C_12
REMARK    5  A    between atoms: C_13  and  C_14
REMARK    6  A    between atoms: C_19  and  C_20
REMARK    7  A    between atoms: C_19  and  C_21
REMARK    8  A    between atoms: N_23  and  C_24
REMARK    9  A    between atoms: C_24  and  C_25
REMARK   10  A    between atoms: C_25  and  N_26
REMARK                            x       y       z     vdW  Elec       q    Type
REMARK                         _______ _______ _______ _____ _____    ______ ____
ROOT
ATOM      1  C   UNL     1      -0.149  10.576  21.115  0.00  0.00    +0.000 A 
ATOM      2  C   UNL     1      -0.101  10.273  22.480  0.00  0.00    +0.000 A 
ATOM      3  C   UNL     1       0.614   9.179  22.953  0.00  0.00    +0.000 A 
ATOM      4  C   UNL     1       1.312   8.353  22.064  0.00  0.00    +0.000 A 
ATOM      5  C   UNL     1       1.289   8.611  20.670  0.00  0.00    +0.000 A 
ATOM      6  C   UNL     1       1.851   7.973  19.501  0.00  0.00    +0.000 A 
ATOM      7  C   UNL     1       1.439   8.712  18.410  0.00  0.00    +0.000 A 
ATOM      8  N   UNL     1       0.646   9.725  18.838  0.00  0.00    +0.000 N 
ATOM      9  C   UNL     1       0.541   9.714  20.224  0.00  0.00    +0.000 A 
ENDROOT
BRANCH   6  10
ATOM     10  C   UNL     1       2.740   6.793  19.394  0.00  0.00    +0.000 C 
ATOM     11  O   UNL     1       3.894   6.865  19.034  0.00  0.00    +0.000 OA
ATOM     12  N   UNL     1       2.104   5.611  19.740  0.00  0.00    +0.000 N 
ATOM     13  H   UNL     1       1.115   5.637  19.933  0.00  0.00    +0.000 HD
BRANCH  12  14
ATOM     14  C   UNL     1       2.750   4.318  19.661  0.00  0.00    +0.000 C 
ATOM     15  C   UNL     1       2.031   3.217  20.504  0.00  0.00    +0.000 C 
ATOM     16  C   UNL     1       2.219   3.369  22.002  0.00  0.00    +0.000 C 
ATOM     17  C   UNL     1       0.553   3.051  20.080  0.00  0.00    +0.000 C 
ATOM     18  C   UNL     1       0.661   2.359  18.716  0.00  0.00    +0.000 C 
ATOM     19  C   UNL     1       2.183   2.272  18.484  0.00  0.00    +0.000 C 
ATOM     20  C   UNL     1       2.648   1.944  19.911  0.00  0.00    +0.000 C 
ATOM     21  C   UNL     1       2.812   3.683  18.229  0.00  0.00    +0.000 C 
ATOM     22  C   UNL     1       2.092   4.472  17.124  0.00  0.00    +0.000 C 
ATOM     23  C   UNL     1       4.286   3.548  17.788  0.00  0.00    +0.000 C 
ENDBRANCH  12  14
ENDBRANCH   6  10
BRANCH   1  25
ATOM     24  C   UNL     1      -0.303  12.924  20.851  0.00  0.00    +0.000 C 
ATOM     25  O   UNL     1      -0.874  11.636  20.619  0.00  0.00    +0.000 OA
ENDBRANCH   1  25
BRANCH   8  26
ATOM     26  C   UNL     1      -0.054  10.671  17.996  0.00  0.00    +0.000 C 
BRANCH  26  27
ATOM     27  C   UNL     1      -1.388  10.259  17.342  0.00  0.00    +0.000 C 
BRANCH  27  28
ATOM     28  N   UNL     1      -2.220  11.448  17.058  0.00  0.00    +0.000 NA
ATOM     29  C   UNL     1      -2.956  11.320  15.787  0.00  0.00    +0.000 C 
ATOM     30  C   UNL     1      -4.216  10.462  15.918  0.00  0.00    +0.000 C 
ATOM     31  O   UNL     1      -5.128  11.072  16.835  0.00  0.00    +0.000 OA
ATOM     32  C   UNL     1      -4.542  11.150  18.139  0.00  0.00    +0.000 C 
ATOM     33  C   UNL     1      -3.164  11.836  18.132  0.00  0.00    +0.000 C 
ENDBRANCH  27  28
ENDBRANCH  26  27
ENDBRANCH   8  26
TORSDOF 6
ENDMDL
MODEL 4
REMARK VINA RESULT:      -7.1      4.078      9.687
REMARK  Name = 
REMARK  10 active torsions:
REMARK  status: ('A' for Active; 'I' for Inactive)
REMARK    1  A    between atoms: C_1  and  O_2
REMARK    2  A    between atoms: O_2  and  C_3
REMARK    3  A    between atoms: C_8  and  C_9
REMARK    4  A    between atoms: N_11  and  C_12
REMARK    5  A    between atoms: C_13  and  C_14
REMARK    6  A    between atoms: C_19  and  C_20
REMARK    7  A    between atoms: C_19  and  C_21
REMARK    8  A    between atoms: N_23  and  C_24
REMARK    9  A    between atoms: C_24  and  C_25
REMARK   10  A    between atoms: C_25  and  N_26
REMARK                            x       y       z     vdW  Elec       q    Type
REMARK                         _______ _______ _______ _____ _____    ______ ____
ROOT
ATOM      1  C   UNL     1       0.465  10.048  20.788  0.00  0.00    +0.000 A 
ATOM      2  C   UNL     1       0.779   9.152  21.817  0.00  0.00    +0.000 A 
ATOM      3  C   UNL     1       0.146   9.219  23.052  0.00  0.00    +0.000 A 
ATOM      4  C   UNL     1      -0.831  10.190  23.293  0.00  0.00    +0.000 A 
ATOM      5  C   UNL     1      -1.182  11.128  22.289  0.00  0.00    +0.000 A 
ATOM      6  C   UNL     1      -2.094  12.245  22.203  0.00  0.00    +0.000 A 
ATOM      7  C   UNL     1      -1.951  12.777  20.937  0.00  0.00    +0.000 A 
ATOM      8  N   UNL     1      -0.997  12.081  20.272  0.00  0.00    +0.000 N 
ATOM      9  C   UNL     1      -0.509  11.043  21.057  0.00  0.00    +0.000 A 
ENDROOT
BRANCH   6  10
ATOM     10  C   UNL     1      -3.062  12.763  23.198  0.00  0.00    +0.000 C 
ATOM     11  O   UNL     1      -3.652  12.049  23.979  0.00  0.00    +0.000 OA
ATOM     12  N   UNL     1      -3.221  14.137  23.125  0.00  0.00    +0.000 N 
ATOM     13  H   UNL     1      -2.761  14.635  22.379  0.00  0.00    +0.000 HD
BRANCH  12  14
ATOM     14  C   UNL     1      -4.154  14.867  23.957  0.00  0.00    +0.000 C 
ATOM     15  C   UNL     1      -3.570  16.202  24.516  0.00  0.00    +0.000 C 
ATOM     16  C   UNL     1      -2.537  16.011  25.610  0.00  0.00    +0.000 C 
ATOM     17  C   UNL     1      -3.098  17.137  23.377  0.00  0.00    +0.000 C 
ATOM     18  C   UNL     1      -4.416  17.622  22.761  0.00  0.00    +0.000 C 
ATOM     19  C   UNL     1      -5.485  16.859  23.569  0.00  0.00    +0.000 C 
ATOM     20  C   UNL     1      -4.850  16.918  24.966  0.00  0.00    +0.000 C 
ATOM     21  C   UNL     1      -5.472  15.327  23.245  0.00  0.00    +0.000 C 
ATOM     22  C   UNL     1      -5.549  15.030  21.739  0.00  0.00    +0.000 C 
ATOM     23  C   UNL     1      -6.684  14.625  23.897  0.00  0.00    +0.000 C 
ENDBRANCH  12  14
ENDBRANCH   6  10
BRANCH   1  25
ATOM     24  C   UNL     1       1.663   8.761  19.203  0.00  0.00    +0.000 C 
ATOM     25  O   UNL     1       1.099  10.022  19.566  0.00  0.00    +0.000 OA
ENDBRANCH   1  25
BRANCH   8  26
ATOM     26  C   UNL     1      -0.493  12.381  18.948  0.00  0.00    +0.000 C 
BRANCH  26  27
ATOM     27  C   UNL     1      -1.418  12.200  17.728  0.00  0.00    +0.000 C 
BRANCH  27  28
ATOM     28  N   UNL     1      -2.240  10.979  17.872  0.00  0.00    +0.000 NA
ATOM     29  C   UNL     1      -3.680  11.286  17.959  0.00  0.00    +0.000 C 
ATOM     30  C   UNL     1      -4.309  11.556  16.591  0.00  0.00    +0.000 C 
ATOM     31  O   UNL     1      -4.209  10.390  15.769  0.00  0.00    +0.000 OA
ATOM     32  C   UNL     1      -2.835  10.064  15.536  0.00  0.00    +0.000 C 
ATOM     33  C   UNL     1      -2.023   9.940  16.838  0.00  0.00    +0.000 C 
ENDBRANCH  27  28
ENDBRANCH  26  27
ENDBRANCH   8  26
TORSDOF 6
ENDMDL
MODEL 5
REMARK VINA RESULT:      -7.1      2.854      4.501
REMARK  Name = 
REMARK  10 active torsions:
REMARK  status: ('A' for Active; 'I' for Inactive)
REMARK    1  A    between atoms: C_1  and  O_2
REMARK    2  A    between atoms: O_2  and  C_3
REMARK    3  A    between atoms: C_8  and  C_9
REMARK    4  A    between atoms: N_11  and  C_12
REMARK    5  A    between atoms: C_13  and  C_14
REMARK    6  A    between atoms: C_19  and  C_20
REMARK    7  A    between atoms: C_19  and  C_21
REMARK    8  A    between atoms: N_23  and  C_24
REMARK    9  A    between atoms: C_24  and  C_25
REMARK   10  A    between atoms: C_25  and  N_26
REMARK                            x       y       z     vdW  Elec       q    Type
REMARK                         _______ _______ _______ _____ _____    ______ ____
ROOT
ATOM      1  C   UNL     1      -0.858  11.656  21.198  0.00  0.00    +0.000 A 
ATOM      2  C   UNL     1      -1.240  11.519  22.538  0.00  0.00    +0.000 A 
ATOM      3  C   UNL     1      -0.897  10.393  23.275  0.00  0.00    +0.000 A 
ATOM      4  C   UNL     1      -0.150   9.365  22.689  0.00  0.00    +0.000 A 
ATOM      5  C   UNL     1       0.256   9.449  21.334  0.00  0.00    +0.000 A 
ATOM      6  C   UNL     1       0.986   8.592  20.427  0.00  0.00    +0.000 A 
ATOM      7  C   UNL     1       1.031   9.248  19.213  0.00  0.00    +0.000 A 
ATOM      8  N   UNL     1       0.355  10.418  19.318  0.00  0.00    +0.000 N 
ATOM      9  C   UNL     1      -0.124  10.594  20.611  0.00  0.00    +0.000 A 
ENDROOT
BRANCH   6  10
ATOM     10  C   UNL     1       1.635   7.283  20.669  0.00  0.00    +0.000 C 
ATOM     11  O   UNL     1       1.612   6.721  21.742  0.00  0.00    +0.000 OA
ATOM     12  N   UNL     1       2.271   6.785  19.543  0.00  0.00    +0.000 N 
ATOM     13  H   UNL     1       2.320   7.368  18.722  0.00  0.00    +0.000 HD
BRANCH  12  14
ATOM     14  C   UNL     1       3.023   5.548  19.546  0.00  0.00    +0.000 C 
ATOM     15  C   UNL     1       2.152   4.295  19.213  0.00  0.00    +0.000 C 
ATOM     16  C   UNL     1       1.213   3.884  20.332  0.00  0.00    +0.000 C 
ATOM     17  C   UNL     1       1.453   4.438  17.841  0.00  0.00    +0.000 C 
ATOM     18  C   UNL     1       2.608   4.271  16.846  0.00  0.00    +0.000 C 
ATOM     19  C   UNL     1       3.841   4.123  17.761  0.00  0.00    +0.000 C 
ATOM     20  C   UNL     1       3.236   3.263  18.880  0.00  0.00    +0.000 C 
ATOM     21  C   UNL     1       4.182   5.463  18.496  0.00  0.00    +0.000 C 
ATOM     22  C   UNL     1       4.298   6.660  17.539  0.00  0.00    +0.000 C 
ATOM     23  C   UNL     1       5.536   5.349  19.229  0.00  0.00    +0.000 C 
ENDBRANCH  12  14
ENDBRANCH   6  10
BRANCH   1  25
ATOM     24  C   UNL     1      -1.860  13.800  21.151  0.00  0.00    +0.000 C 
ATOM     25  O   UNL     1      -1.210  12.748  20.437  0.00  0.00    +0.000 OA
ENDBRANCH   1  25
BRANCH   8  26
ATOM     26  C   UNL     1       0.099  11.352  18.242  0.00  0.00    +0.000 C 
BRANCH  26  27
ATOM     27  C   UNL     1      -1.354  11.758  17.923  0.00  0.00    +0.000 C 
BRANCH  27  28
ATOM     28  N   UNL     1      -2.205  10.561  17.752  0.00  0.00    +0.000 NA
ATOM     29  C   UNL     1      -3.634  10.863  17.954  0.00  0.00    +0.000 C 
ATOM     30  C   UNL     1      -4.281  11.506  16.725  0.00  0.00    +0.000 C 
ATOM     31  O   UNL     1      -4.227  10.604  15.616  0.00  0.00    +0.000 OA
ATOM     32  C   UNL     1      -2.866  10.325  15.271  0.00  0.00    +0.000 C 
ATOM     33  C   UNL     1      -2.035   9.836  16.471  0.00  0.00    +0.000 C 
ENDBRANCH  27  28
ENDBRANCH  26  27
ENDBRANCH   8  26
TORSDOF 6
ENDMDL
MODEL 6
REMARK VINA RESULT:      -7.1      1.593      2.629
REMARK  Name = 
REMARK  10 active torsions:
REMARK  status: ('A' for Active; 'I' for Inactive)
REMARK    1  A    between atoms: C_1  and  O_2
REMARK    2  A    between atoms: O_2  and  C_3
REMARK    3  A    between atoms: C_8  and  C_9
REMARK    4  A    between atoms: N_11  and  C_12
REMARK    5  A    between atoms: C_13  and  C_14
REMARK    6  A    between atoms: C_19  and  C_20
REMARK    7  A    between atoms: C_19  and  C_21
REMARK    8  A    between atoms: N_23  and  C_24
REMARK    9  A    between atoms: C_24  and  C_25
REMARK   10  A    between atoms: C_25  and  N_26
REMARK                            x       y       z     vdW  Elec       q    Type
REMARK                         _______ _______ _______ _____ _____    ______ ____
ROOT
ATOM      1  C   UNL     1      -0.466  10.742  21.410  0.00  0.00    +0.000 A 
ATOM      2  C   UNL     1      -0.499  10.170  22.687  0.00  0.00    +0.000 A 
ATOM      3  C   UNL     1       0.173   8.987  22.967  0.00  0.00    +0.000 A 
ATOM      4  C   UNL     1       0.909   8.339  21.969  0.00  0.00    +0.000 A 
ATOM      5  C   UNL     1       0.969   8.871  20.656  0.00  0.00    +0.000 A 
ATOM      6  C   UNL     1       1.589   8.467  19.414  0.00  0.00    +0.000 A 
ATOM      7  C   UNL     1       1.250   9.420  18.474  0.00  0.00    +0.000 A 
ATOM      8  N   UNL     1       0.447  10.345  19.055  0.00  0.00    +0.000 N 
ATOM      9  C   UNL     1       0.263  10.059  20.403  0.00  0.00    +0.000 A 
ENDROOT
BRANCH   6  10
ATOM     10  C   UNL     1       2.467   7.311  19.119  0.00  0.00    +0.000 C 
ATOM     11  O   UNL     1       3.497   7.406  18.489  0.00  0.00    +0.000 OA
ATOM     12  N   UNL     1       1.975   6.121  19.632  0.00  0.00    +0.000 N 
ATOM     13  H   UNL     1       1.061   6.124  20.058  0.00  0.00    +0.000 HD
BRANCH  12  14
ATOM     14  C   UNL     1       2.628   4.846  19.426  0.00  0.00    +0.000 C 
ATOM     15  C   UNL     1       2.168   3.747  20.435  0.00  0.00    +0.000 C 
ATOM     16  C   UNL     1       2.700   3.943  21.842  0.00  0.00    +0.000 C 
ATOM     17  C   UNL     1       0.638   3.527  20.378  0.00  0.00    +0.000 C 
ATOM     18  C   UNL     1       0.443   2.803  19.040  0.00  0.00    +0.000 C 
ATOM     19  C   UNL     1       1.869   2.755  18.455  0.00  0.00    +0.000 C 
ATOM     20  C   UNL     1       2.669   2.477  19.736  0.00  0.00    +0.000 C 
ATOM     21  C   UNL     1       2.371   4.176  18.032  0.00  0.00    +0.000 C 
ATOM     22  C   UNL     1       1.382   4.915  17.116  0.00  0.00    +0.000 C 
ATOM     23  C   UNL     1       3.702   4.073  17.256  0.00  0.00    +0.000 C 
ENDBRANCH  12  14
ENDBRANCH   6  10
BRANCH   1  25
ATOM     24  C   UNL     1      -2.031  12.372  22.116  0.00  0.00    +0.000 C 
ATOM     25  O   UNL     1      -1.147  11.897  21.100  0.00  0.00    +0.000 OA
ENDBRANCH   1  25
BRANCH   8  26
ATOM     26  C   UNL     1      -0.191  11.458  18.384  0.00  0.00    +0.000 C 
BRANCH  26  27
ATOM     27  C   UNL     1       0.455  12.857  18.458  0.00  0.00    +0.000 C 
BRANCH  27  28
ATOM     28  N   UNL     1       1.800  12.779  19.065  0.00  0.00    +0.000 NA
ATOM     29  C   UNL     1       2.852  13.253  18.146  0.00  0.00    +0.000 C 
ATOM     30  C   UNL     1       2.953  14.779  18.102  0.00  0.00    +0.000 C 
ATOM     31  O   UNL     1       3.309  15.282  19.393  0.00  0.00    +0.000 OA
ATOM     32  C   UNL     1       2.292  14.962  20.347  0.00  0.00    +0.000 C 
ATOM     33  C   UNL     1       1.950  13.460  20.372  0.00  0.00    +0.000 C 
ENDBRANCH  27  28
ENDBRANCH  26  27
ENDBRANCH   8  26
TORSDOF 6
ENDMDL
MODEL 7
REMARK VINA RESULT:      -7.0      1.539      2.046
REMARK  Name = 
REMARK  10 active torsions:
REMARK  status: ('A' for Active; 'I' for Inactive)
REMARK    1  A    between atoms: C_1  and  O_2
REMARK    2  A    between atoms: O_2  and  C_3
REMARK    3  A    between atoms: C_8  and  C_9
REMARK    4  A    between atoms: N_11  and  C_12
REMARK    5  A    between atoms: C_13  and  C_14
REMARK    6  A    between atoms: C_19  and  C_20
REMARK    7  A    between atoms: C_19  and  C_21
REMARK    8  A    between atoms: N_23  and  C_24
REMARK    9  A    between atoms: C_24  and  C_25
REMARK   10  A    between atoms: C_25  and  N_26
REMARK                            x       y       z     vdW  Elec       q    Type
REMARK                         _______ _______ _______ _____ _____    ______ ____
ROOT
ATOM      1  C   UNL     1       0.716  10.591  21.100  0.00  0.00    +0.000 A 
ATOM      2  C   UNL     1       0.374   9.799  22.203  0.00  0.00    +0.000 A 
ATOM      3  C   UNL     1       0.551   8.421  22.186  0.00  0.00    +0.000 A 
ATOM      4  C   UNL     1       1.084   7.791  21.056  0.00  0.00    +0.000 A 
ATOM      5  C   UNL     1       1.440   8.545  19.909  0.00  0.00    +0.000 A 
ATOM      6  C   UNL     1       1.972   8.233  18.602  0.00  0.00    +0.000 A 
ATOM      7  C   UNL     1       2.077   9.429  17.921  0.00  0.00    +0.000 A 
ATOM      8  N   UNL     1       1.615  10.428  18.712  0.00  0.00    +0.000 N 
ATOM      9  C   UNL     1       1.230   9.934  19.953  0.00  0.00    +0.000 A 
ENDROOT
BRANCH   6  10
ATOM     10  C   UNL     1       2.397   6.933  18.032  0.00  0.00    +0.000 C 
ATOM     11  O   UNL     1       1.643   5.996  17.888  0.00  0.00    +0.000 OA
ATOM     12  N   UNL     1       3.741   6.910  17.698  0.00  0.00    +0.000 N 
ATOM     13  H   UNL     1       4.312   7.704  17.944  0.00  0.00    +0.000 HD
BRANCH  12  14
ATOM     14  C   UNL     1       4.402   5.732  17.176  0.00  0.00    +0.000 C 
ATOM     15  C   UNL     1       5.679   6.060  16.338  0.00  0.00    +0.000 C 
ATOM     16  C   UNL     1       5.383   6.662  14.978  0.00  0.00    +0.000 C 
ATOM     17  C   UNL     1       6.706   6.871  17.163  0.00  0.00    +0.000 C 
ATOM     18  C   UNL     1       7.255   5.832  18.148  0.00  0.00    +0.000 C 
ATOM     19  C   UNL     1       6.432   4.569  17.823  0.00  0.00    +0.000 C 
ATOM     20  C   UNL     1       6.362   4.688  16.293  0.00  0.00    +0.000 C 
ATOM     21  C   UNL     1       4.934   4.726  18.253  0.00  0.00    +0.000 C 
ATOM     22  C   UNL     1       4.773   5.175  19.714  0.00  0.00    +0.000 C 
ATOM     23  C   UNL     1       4.187   3.381  18.118  0.00  0.00    +0.000 C 
ENDBRANCH  12  14
ENDBRANCH   6  10
BRANCH   1  25
ATOM     24  C   UNL     1      -0.752  12.393  21.554  0.00  0.00    +0.000 C 
ATOM     25  O   UNL     1       0.522  11.954  21.081  0.00  0.00    +0.000 OA
ENDBRANCH   1  25
BRANCH   8  26
ATOM     26  C   UNL     1       1.477  11.818  18.333  0.00  0.00    +0.000 C 
BRANCH  26  27
ATOM     27  C   UNL     1       2.732  12.711  18.260  0.00  0.00    +0.000 C 
BRANCH  27  28
ATOM     28  N   UNL     1       2.359  14.114  17.983  0.00  0.00    +0.000 NA
ATOM     29  C   UNL     1       1.385  14.634  18.962  0.00  0.00    +0.000 C 
ATOM     30  C   UNL     1       2.042  15.061  20.277  0.00  0.00    +0.000 C 
ATOM     31  O   UNL     1       2.961  16.130  20.038  0.00  0.00    +0.000 OA
ATOM     32  C   UNL     1       4.014  15.694  19.172  0.00  0.00    +0.000 C 
ATOM     33  C   UNL     1       3.490  15.064  17.869  0.00  0.00    +0.000 C 
ENDBRANCH  27  28
ENDBRANCH  26  27
ENDBRANCH   8  26
TORSDOF 6
ENDMDL
MODEL 8
REMARK VINA RESULT:      -7.0      1.575      1.894
REMARK  Name = 
REMARK  10 active torsions:
REMARK  status: ('A' for Active; 'I' for Inactive)
REMARK    1  A    between atoms: C_1  and  O_2
REMARK    2  A    between atoms: O_2  and  C_3
REMARK    3  A    between atoms: C_8  and  C_9
REMARK    4  A    between atoms: N_11  and  C_12
REMARK    5  A    between atoms: C_13  and  C_14
REMARK    6  A    between atoms: C_19  and  C_20
REMARK    7  A    between atoms: C_19  and  C_21
REMARK    8  A    between atoms: N_23  and  C_24
REMARK    9  A    between atoms: C_24  and  C_25
REMARK   10  A    between atoms: C_25  and  N_26
REMARK                            x       y       z     vdW  Elec       q    Type
REMARK                         _______ _______ _______ _____ _____    ______ ____
ROOT
ATOM      1  C   UNL     1      -0.011  10.921  22.162  0.00  0.00    +0.000 A 
ATOM      2  C   UNL     1      -0.512   9.811  22.851  0.00  0.00    +0.000 A 
ATOM      3  C   UNL     1      -0.375   8.524  22.345  0.00  0.00    +0.000 A 
ATOM      4  C   UNL     1       0.278   8.310  21.127  0.00  0.00    +0.000 A 
ATOM      5  C   UNL     1       0.797   9.400  20.384  0.00  0.00    +0.000 A 
ATOM      6  C   UNL     1       1.481   9.545  19.119  0.00  0.00    +0.000 A 
ATOM      7  C   UNL     1       1.705  10.896  18.943  0.00  0.00    +0.000 A 
ATOM      8  N   UNL     1       1.177  11.571  19.993  0.00  0.00    +0.000 N 
ATOM      9  C   UNL     1       0.625  10.690  20.915  0.00  0.00    +0.000 A 
ENDROOT
BRANCH   6  10
ATOM     10  C   UNL     1       1.936   8.513  18.158  0.00  0.00    +0.000 C 
ATOM     11  O   UNL     1       2.019   8.711  16.966  0.00  0.00    +0.000 OA
ATOM     12  N   UNL     1       2.242   7.309  18.772  0.00  0.00    +0.000 N 
ATOM     13  H   UNL     1       2.049   7.209  19.756  0.00  0.00    +0.000 HD
BRANCH  12  14
ATOM     14  C   UNL     1       2.655   6.133  18.035  0.00  0.00    +0.000 C 
ATOM     15  C   UNL     1       4.205   5.969  17.953  0.00  0.00    +0.000 C 
ATOM     16  C   UNL     1       4.880   6.956  17.019  0.00  0.00    +0.000 C 
ATOM     17  C   UNL     1       4.846   5.913  19.360  0.00  0.00    +0.000 C 
ATOM     18  C   UNL     1       4.426   4.531  19.876  0.00  0.00    +0.000 C 
ATOM     19  C   UNL     1       3.539   3.985  18.738  0.00  0.00    +0.000 C 
ATOM     20  C   UNL     1       4.323   4.501  17.523  0.00  0.00    +0.000 C 
ATOM     21  C   UNL     1       2.184   4.764  18.635  0.00  0.00    +0.000 C 
ATOM     22  C   UNL     1       1.437   4.851  19.976  0.00  0.00    +0.000 C 
ATOM     23  C   UNL     1       1.231   4.065  17.641  0.00  0.00    +0.000 C 
ENDBRANCH  12  14
ENDBRANCH   6  10
BRANCH   1  25
ATOM     24  C   UNL     1      -1.461  12.527  23.125  0.00  0.00    +0.000 C 
ATOM     25  O   UNL     1      -0.160  12.209  22.627  0.00  0.00    +0.000 OA
ENDBRANCH   1  25
BRANCH   8  26
ATOM     26  C   UNL     1       1.128  13.010  20.141  0.00  0.00    +0.000 C 
BRANCH  26  27
ATOM     27  C   UNL     1      -0.065  13.791  19.555  0.00  0.00    +0.000 C 
BRANCH  27  28
ATOM     28  N   UNL     1       0.109  15.244  19.764  0.00  0.00    +0.000 NA
ATOM     29  C   UNL     1      -1.183  15.951  19.851  0.00  0.00    +0.000 C 
ATOM     30  C   UNL     1      -1.833  15.823  21.230  0.00  0.00    +0.000 C 
ATOM     31  O   UNL     1      -0.995  16.422  22.222  0.00  0.00    +0.000 OA
ATOM     32  C   UNL     1       0.259  15.736  22.291  0.00  0.00    +0.000 C 
ATOM     33  C   UNL     1       0.953  15.625  20.920  0.00  0.00    +0.000 C 
ENDBRANCH  27  28
ENDBRANCH  26  27
ENDBRANCH   8  26
TORSDOF 6
ENDMDL
MODEL 9
REMARK VINA RESULT:      -6.9      3.092      4.606
REMARK  Name = 
REMARK  10 active torsions:
REMARK  status: ('A' for Active; 'I' for Inactive)
REMARK    1  A    between atoms: C_1  and  O_2
REMARK    2  A    between atoms: O_2  and  C_3
REMARK    3  A    between atoms: C_8  and  C_9
REMARK    4  A    between atoms: N_11  and  C_12
REMARK    5  A    between atoms: C_13  and  C_14
REMARK    6  A    between atoms: C_19  and  C_20
REMARK    7  A    between atoms: C_19  and  C_21
REMARK    8  A    between atoms: N_23  and  C_24
REMARK    9  A    between atoms: C_24  and  C_25
REMARK   10  A    between atoms: C_25  and  N_26
REMARK                            x       y       z     vdW  Elec       q    Type
REMARK                         _______ _______ _______ _____ _____    ______ ____
ROOT
ATOM      1  C   UNL     1      -0.601  11.044  21.265  0.00  0.00    +0.000 A 
ATOM      2  C   UNL     1      -0.782  10.970  22.651  0.00  0.00    +0.000 A 
ATOM      3  C   UNL     1      -0.273   9.910  23.391  0.00  0.00    +0.000 A 
ATOM      4  C   UNL     1       0.443   8.887  22.760  0.00  0.00    +0.000 A 
ATOM      5  C   UNL     1       0.648   8.909  21.357  0.00  0.00    +0.000 A 
ATOM      6  C   UNL     1       1.292   8.036  20.402  0.00  0.00    +0.000 A 
ATOM      7  C   UNL     1       1.128   8.617  19.161  0.00  0.00    +0.000 A 
ATOM      8  N   UNL     1       0.405   9.756  19.300  0.00  0.00    +0.000 N 
ATOM      9  C   UNL     1       0.104   9.986  20.637  0.00  0.00    +0.000 A 
ENDROOT
BRANCH   6  10
ATOM     10  C   UNL     1       2.045   6.778  20.618  0.00  0.00    +0.000 C 
ATOM     11  O   UNL     1       2.118   6.228  21.694  0.00  0.00    +0.000 OA
ATOM     12  N   UNL     1       2.656   6.316  19.464  0.00  0.00    +0.000 N 
ATOM     13  H   UNL     1       2.620   6.892  18.637  0.00  0.00    +0.000 HD
BRANCH  12  14
ATOM     14  C   UNL     1       3.493   5.135  19.435  0.00  0.00    +0.000 C 
ATOM     15  C   UNL     1       2.712   3.834  19.068  0.00  0.00    +0.000 C 
ATOM     16  C   UNL     1       1.806   3.328  20.174  0.00  0.00    +0.000 C 
ATOM     17  C   UNL     1       2.005   3.963  17.699  0.00  0.00    +0.000 C 
ATOM     18  C   UNL     1       3.168   3.905  16.701  0.00  0.00    +0.000 C 
ATOM     19  C   UNL     1       4.409   3.819  17.613  0.00  0.00    +0.000 C 
ATOM     20  C   UNL     1       3.867   2.890  18.709  0.00  0.00    +0.000 C 
ATOM     21  C   UNL     1       4.655   5.160  18.384  0.00  0.00    +0.000 C 
ATOM     22  C   UNL     1       4.685   6.388  17.460  0.00  0.00    +0.000 C 
ATOM     23  C   UNL     1       6.014   5.123  19.116  0.00  0.00    +0.000 C 
ENDBRANCH  12  14
ENDBRANCH   6  10
BRANCH   1  25
ATOM     24  C   UNL     1      -1.702  13.140  21.250  0.00  0.00    +0.000 C 
ATOM     25  O   UNL     1      -1.121  12.068  20.506  0.00  0.00    +0.000 OA
ENDBRANCH   1  25
BRANCH   8  26
ATOM     26  C   UNL     1      -0.054  10.608  18.223  0.00  0.00    +0.000 C 
BRANCH  26  27
ATOM     27  C   UNL     1      -1.348  10.242  17.468  0.00  0.00    +0.000 C 
BRANCH  27  28
ATOM     28  N   UNL     1      -2.169  11.447  17.226  0.00  0.00    +0.000 NA
ATOM     29  C   UNL     1      -2.744  11.464  15.868  0.00  0.00    +0.000 C 
ATOM     30  C   UNL     1      -3.988  10.581  15.743  0.00  0.00    +0.000 C 
ATOM     31  O   UNL     1      -5.019  11.067  16.607  0.00  0.00    +0.000 OA
ATOM     32  C   UNL     1      -4.596  10.994  17.972  0.00  0.00    +0.000 C 
ATOM     33  C   UNL     1      -3.245  11.693  18.214  0.00  0.00    +0.000 C 
ENDBRANCH  27  28
ENDBRANCH  26  27
ENDBRANCH   8  26
TORSDOF 6
ENDMDL
