MODEL 1
REMARK VINA RESULT:      -8.5      0.000      0.000
REMARK  Name = 
REMARK  4 active torsions:
REMARK  status: ('A' for Active; 'I' for Inactive)
REMARK    1  A    between atoms: N_1  and  C_2
REMARK    2  A    between atoms: C_8  and  C_9
REMARK    3  A    between atoms: N_19  and  C_20
REMARK    4  A    between atoms: C_20  and  C_21
REMARK                            x       y       z     vdW  Elec       q    Type
REMARK                         _______ _______ _______ _____ _____    ______ ____
ROOT
ATOM      1  C   UNL     1       3.066   2.939  19.151  0.00  0.00    +0.000 A 
ATOM      2  N   UNL     1       2.203   2.134  19.810  0.00  0.00    +0.000 NA
ATOM      3  C   UNL     1       1.280   2.696  20.613  0.00  0.00    +0.000 A 
ATOM      4  N   UNL     1       1.062   4.000  20.843  0.00  0.00    +0.000 NA
ATOM      5  C   UNL     1       1.947   4.762  20.186  0.00  0.00    +0.000 A 
ATOM      6  C   UNL     1       2.995   4.329  19.374  0.00  0.00    +0.000 A 
ATOM      7  C   UNL     1       3.738   5.504  19.001  0.00  0.00    +0.000 A 
ATOM      8  C   UNL     1       3.041   6.597  19.477  0.00  0.00    +0.000 A 
ATOM      9  N   UNL     1       1.975   6.144  20.201  0.00  0.00    +0.000 N 
ENDROOT
BRANCH   7  10
ATOM     10  C   UNL     1       4.942   5.617  18.190  0.00  0.00    +0.000 A 
ATOM     11  C   UNL     1       6.179   5.152  18.694  0.00  0.00    +0.000 A 
ATOM     12  C   UNL     1       7.244   4.863  17.833  0.00  0.00    +0.000 A 
ATOM     13  C   UNL     1       7.033   5.089  16.495  0.00  0.00    +0.000 A 
ATOM     14  C   UNL     1       5.888   5.697  16.027  0.00  0.00    +0.000 A 
ATOM     15  C   UNL     1       4.836   6.012  16.852  0.00  0.00    +0.000 A 
ATOM     16  O   UNL     1       5.866   5.770  14.666  0.00  0.00    +0.000 OA
ATOM     17  C   UNL     1       6.886   4.793  14.382  0.00  0.00    +0.000 C 
ATOM     18  O   UNL     1       7.824   4.656  15.472  0.00  0.00    +0.000 OA
ENDBRANCH   7  10
BRANCH   1  19
ATOM     19  N   UNL     1       3.946   2.306  18.305  0.00  0.00    +0.000 N 
ATOM     20  H   UNL     1       4.926   2.387  18.527  0.00  0.00    +0.000 HD
ATOM     21  H   UNL     1       3.635   1.710  17.557  0.00  0.00    +0.000 HD
ENDBRANCH   1  19
BRANCH   9  22
ATOM     22  C   UNL     1       1.105   7.000  21.002  0.00  0.00    +0.000 C 
BRANCH  22  23
ATOM     23  C   UNL     1       1.362   8.512  20.927  0.00  0.00    +0.000 C 
ATOM     24  C   UNL     1       0.871   9.344  22.100  0.00  0.00    +0.000 C 
ATOM     25  C   UNL     1       0.583  10.688  21.477  0.00  0.00    +0.000 C 
ATOM     26  C   UNL     1       0.216  10.348  20.050  0.00  0.00    +0.000 C 
ATOM     27  O   UNL     1       0.815   9.085  19.729  0.00  0.00    +0.000 OA
ENDBRANCH  22  23
ENDBRANCH   9  22
TORSDOF 4
ENDMDL
MODEL 2
REMARK VINA RESULT:      -8.3      1.604      6.112
REMARK  Name = 
REMARK  4 active torsions:
REMARK  status: ('A' for Active; 'I' for Inactive)
REMARK    1  A    between atoms: N_1  and  C_2
REMARK    2  A    between atoms: C_8  and  C_9
REMARK    3  A    between atoms: N_19  and  C_20
REMARK    4  A    between atoms: C_20  and  C_21
REMARK                            x       y       z     vdW  Elec       q    Type
REMARK                         _______ _______ _______ _____ _____    ______ ____
ROOT
ATOM      1  C   UNL     1       1.793   3.657  19.332  0.00  0.00    +0.000 A 
ATOM      2  N   UNL     1       1.932   2.332  19.104  0.00  0.00    +0.000 NA
ATOM      3  C   UNL     1       2.944   1.913  18.322  0.00  0.00    +0.000 A 
ATOM      4  N   UNL     1       3.898   2.650  17.732  0.00  0.00    +0.000 NA
ATOM      5  C   UNL     1       3.716   3.956  17.968  0.00  0.00    +0.000 A 
ATOM      6  C   UNL     1       2.684   4.546  18.699  0.00  0.00    +0.000 A 
ATOM      7  C   UNL     1       2.847   5.970  18.562  0.00  0.00    +0.000 A 
ATOM      8  C   UNL     1       4.031   6.184  17.885  0.00  0.00    +0.000 A 
ATOM      9  N   UNL     1       4.540   4.970  17.517  0.00  0.00    +0.000 N 
ENDROOT
BRANCH   7  10
ATOM     10  C   UNL     1       2.027   7.048  19.097  0.00  0.00    +0.000 A 
ATOM     11  C   UNL     1       1.767   7.115  20.486  0.00  0.00    +0.000 A 
ATOM     12  C   UNL     1       1.353   8.310  21.085  0.00  0.00    +0.000 A 
ATOM     13  C   UNL     1       1.183   9.389  20.252  0.00  0.00    +0.000 A 
ATOM     14  C   UNL     1       1.276   9.277  18.881  0.00  0.00    +0.000 A 
ATOM     15  C   UNL     1       1.658   8.111  18.265  0.00  0.00    +0.000 A 
ATOM     16  O   UNL     1       1.126  10.480  18.258  0.00  0.00    +0.000 OA
ATOM     17  C   UNL     1       1.353  11.339  19.392  0.00  0.00    +0.000 C 
ATOM     18  O   UNL     1       1.029  10.687  20.639  0.00  0.00    +0.000 OA
ENDBRANCH   7  10
BRANCH   1  19
ATOM     19  N   UNL     1       0.774   4.012  20.184  0.00  0.00    +0.000 N 
ATOM     20  H   UNL     1       0.682   3.473  21.031  0.00  0.00    +0.000 HD
ATOM     21  H   UNL     1       0.205   4.827  20.028  0.00  0.00    +0.000 HD
ENDBRANCH   1  19
BRANCH   9  22
ATOM     22  C   UNL     1       5.690   4.797  16.636  0.00  0.00    +0.000 C 
BRANCH  22  23
ATOM     23  C   UNL     1       6.996   5.487  17.058  0.00  0.00    +0.000 C 
ATOM     24  C   UNL     1       7.270   5.567  18.550  0.00  0.00    +0.000 C 
ATOM     25  C   UNL     1       8.100   6.821  18.685  0.00  0.00    +0.000 C 
ATOM     26  C   UNL     1       7.631   7.684  17.534  0.00  0.00    +0.000 C 
ATOM     27  O   UNL     1       7.088   6.820  16.528  0.00  0.00    +0.000 OA
ENDBRANCH  22  23
ENDBRANCH   9  22
TORSDOF 4
ENDMDL
MODEL 3
REMARK VINA RESULT:      -8.3      2.673      6.498
REMARK  Name = 
REMARK  4 active torsions:
REMARK  status: ('A' for Active; 'I' for Inactive)
REMARK    1  A    between atoms: N_1  and  C_2
REMARK    2  A    between atoms: C_8  and  C_9
REMARK    3  A    between atoms: N_19  and  C_20
REMARK    4  A    between atoms: C_20  and  C_21
REMARK                            x       y       z     vdW  Elec       q    Type
REMARK                         _______ _______ _______ _____ _____    ______ ____
ROOT
ATOM      1  C   UNL     1       5.335   6.385  16.882  0.00  0.00    +0.000 A 
ATOM      2  N   UNL     1       6.311   5.590  16.391  0.00  0.00    +0.000 NA
ATOM      3  C   UNL     1       6.108   4.259  16.361  0.00  0.00    +0.000 A 
ATOM      4  N   UNL     1       5.016   3.577  16.737  0.00  0.00    +0.000 NA
ATOM      5  C   UNL     1       4.079   4.397  17.233  0.00  0.00    +0.000 A 
ATOM      6  C   UNL     1       4.167   5.781  17.390  0.00  0.00    +0.000 A 
ATOM      7  C   UNL     1       2.970   6.192  18.077  0.00  0.00    +0.000 A 
ATOM      8  C   UNL     1       2.155   5.082  18.180  0.00  0.00    +0.000 A 
ATOM      9  N   UNL     1       2.834   4.004  17.686  0.00  0.00    +0.000 N 
ENDROOT
BRANCH   7  10
ATOM     10  C   UNL     1       2.568   7.521  18.516  0.00  0.00    +0.000 A 
ATOM     11  C   UNL     1       2.435   8.566  17.572  0.00  0.00    +0.000 A 
ATOM     12  C   UNL     1       1.680   9.708  17.863  0.00  0.00    +0.000 A 
ATOM     13  C   UNL     1       1.113   9.769  19.113  0.00  0.00    +0.000 A 
ATOM     14  C   UNL     1       1.382   8.828  20.085  0.00  0.00    +0.000 A 
ATOM     15  C   UNL     1       2.139   7.710  19.834  0.00  0.00    +0.000 A 
ATOM     16  O   UNL     1       0.671   9.054  21.226  0.00  0.00    +0.000 OA
ATOM     17  C   UNL     1      -0.324   9.946  20.686  0.00  0.00    +0.000 C 
ATOM     18  O   UNL     1       0.155  10.649  19.519  0.00  0.00    +0.000 OA
ENDBRANCH   7  10
BRANCH   1  19
ATOM     19  N   UNL     1       5.583   7.736  16.832  0.00  0.00    +0.000 N 
ATOM     20  H   UNL     1       5.189   8.241  16.054  0.00  0.00    +0.000 HD
ATOM     21  H   UNL     1       6.050   8.223  17.578  0.00  0.00    +0.000 HD
ENDBRANCH   1  19
BRANCH   9  22
ATOM     22  C   UNL     1       2.365   2.625  17.785  0.00  0.00    +0.000 C 
BRANCH  22  23
ATOM     23  C   UNL     1       2.091   2.086  19.196  0.00  0.00    +0.000 C 
ATOM     24  C   UNL     1       0.911   2.692  19.937  0.00  0.00    +0.000 C 
ATOM     25  C   UNL     1       1.309   2.567  21.388  0.00  0.00    +0.000 C 
ATOM     26  C   UNL     1       2.820   2.627  21.349  0.00  0.00    +0.000 C 
ATOM     27  O   UNL     1       3.244   2.207  20.045  0.00  0.00    +0.000 OA
ENDBRANCH  22  23
ENDBRANCH   9  22
TORSDOF 4
ENDMDL
MODEL 4
REMARK VINA RESULT:      -8.1      1.361      6.646
REMARK  Name = 
REMARK  4 active torsions:
REMARK  status: ('A' for Active; 'I' for Inactive)
REMARK    1  A    between atoms: N_1  and  C_2
REMARK    2  A    between atoms: C_8  and  C_9
REMARK    3  A    between atoms: N_19  and  C_20
REMARK    4  A    between atoms: C_20  and  C_21
REMARK                            x       y       z     vdW  Elec       q    Type
REMARK                         _______ _______ _______ _____ _____    ______ ____
ROOT
ATOM      1  C   UNL     1       1.792   3.681  19.434  0.00  0.00    +0.000 A 
ATOM      2  N   UNL     1       1.955   2.361  19.190  0.00  0.00    +0.000 NA
ATOM      3  C   UNL     1       3.058   1.956  18.534  0.00  0.00    +0.000 A 
ATOM      4  N   UNL     1       4.083   2.702  18.093  0.00  0.00    +0.000 NA
ATOM      5  C   UNL     1       3.877   4.003  18.338  0.00  0.00    +0.000 A 
ATOM      6  C   UNL     1       2.761   4.580  18.945  0.00  0.00    +0.000 A 
ATOM      7  C   UNL     1       2.944   6.006  18.869  0.00  0.00    +0.000 A 
ATOM      8  C   UNL     1       4.207   6.230  18.356  0.00  0.00    +0.000 A 
ATOM      9  N   UNL     1       4.755   5.022  18.024  0.00  0.00    +0.000 N 
ENDROOT
BRANCH   7  10
ATOM     10  C   UNL     1       2.067   7.076  19.321  0.00  0.00    +0.000 A 
ATOM     11  C   UNL     1       1.713   7.168  20.688  0.00  0.00    +0.000 A 
ATOM     12  C   UNL     1       1.233   8.366  21.229  0.00  0.00    +0.000 A 
ATOM     13  C   UNL     1       1.092   9.421  20.360  0.00  0.00    +0.000 A 
ATOM     14  C   UNL     1       1.279   9.279  19.001  0.00  0.00    +0.000 A 
ATOM     15  C   UNL     1       1.728   8.109  18.441  0.00  0.00    +0.000 A 
ATOM     16  O   UNL     1       1.142  10.463  18.340  0.00  0.00    +0.000 OA
ATOM     17  C   UNL     1       1.273  11.354  19.465  0.00  0.00    +0.000 C 
ATOM     18  O   UNL     1       0.883  10.723  20.704  0.00  0.00    +0.000 OA
ENDBRANCH   7  10
BRANCH   1  19
ATOM     19  N   UNL     1       0.673   4.021  20.156  0.00  0.00    +0.000 N 
ATOM     20  H   UNL     1       0.397   4.990  20.134  0.00  0.00    +0.000 HD
ATOM     21  H   UNL     1       0.095   3.331  20.606  0.00  0.00    +0.000 HD
ENDBRANCH   1  19
BRANCH   9  22
ATOM     22  C   UNL     1       6.010   4.865  17.295  0.00  0.00    +0.000 C 
BRANCH  22  23
ATOM     23  C   UNL     1       5.960   5.085  15.776  0.00  0.00    +0.000 C 
ATOM     24  C   UNL     1       5.529   3.899  14.931  0.00  0.00    +0.000 C 
ATOM     25  C   UNL     1       6.243   4.127  13.621  0.00  0.00    +0.000 C 
ATOM     26  C   UNL     1       7.489   4.886  14.021  0.00  0.00    +0.000 C 
ATOM     27  O   UNL     1       7.222   5.547  15.265  0.00  0.00    +0.000 OA
ENDBRANCH  22  23
ENDBRANCH   9  22
TORSDOF 4
ENDMDL
MODEL 5
REMARK VINA RESULT:      -7.9      1.505      6.888
REMARK  Name = 
REMARK  4 active torsions:
REMARK  status: ('A' for Active; 'I' for Inactive)
REMARK    1  A    between atoms: N_1  and  C_2
REMARK    2  A    between atoms: C_8  and  C_9
REMARK    3  A    between atoms: N_19  and  C_20
REMARK    4  A    between atoms: C_20  and  C_21
REMARK                            x       y       z     vdW  Elec       q    Type
REMARK                         _______ _______ _______ _____ _____    ______ ____
ROOT
ATOM      1  C   UNL     1       1.666   3.984  19.293  0.00  0.00    +0.000 A 
ATOM      2  N   UNL     1       1.469   2.648  19.229  0.00  0.00    +0.000 NA
ATOM      3  C   UNL     1       2.296   1.909  18.467  0.00  0.00    +0.000 A 
ATOM      4  N   UNL     1       3.354   2.319  17.750  0.00  0.00    +0.000 NA
ATOM      5  C   UNL     1       3.505   3.648  17.826  0.00  0.00    +0.000 A 
ATOM      6  C   UNL     1       2.696   4.551  18.517  0.00  0.00    +0.000 A 
ATOM      7  C   UNL     1       3.183   5.867  18.194  0.00  0.00    +0.000 A 
ATOM      8  C   UNL     1       4.334   5.707  17.448  0.00  0.00    +0.000 A 
ATOM      9  N   UNL     1       4.512   4.372  17.217  0.00  0.00    +0.000 N 
ENDROOT
BRANCH   7  10
ATOM     10  C   UNL     1       2.683   7.166  18.620  0.00  0.00    +0.000 A 
ATOM     11  C   UNL     1       2.335   8.140  17.655  0.00  0.00    +0.000 A 
ATOM     12  C   UNL     1       1.490   9.207  17.980  0.00  0.00    +0.000 A 
ATOM     13  C   UNL     1       1.055   9.273  19.281  0.00  0.00    +0.000 A 
ATOM     14  C   UNL     1       1.528   8.420  20.255  0.00  0.00    +0.000 A 
ATOM     15  C   UNL     1       2.375   7.378  19.969  0.00  0.00    +0.000 A 
ATOM     16  O   UNL     1       0.920   8.628  21.458  0.00  0.00    +0.000 OA
ATOM     17  C   UNL     1      -0.220   9.378  20.995  0.00  0.00    +0.000 C 
ATOM     18  O   UNL     1       0.051  10.066  19.754  0.00  0.00    +0.000 OA
ENDBRANCH   7  10
BRANCH   1  19
ATOM     19  N   UNL     1       0.822   4.672  20.133  0.00  0.00    +0.000 N 
ATOM     20  H   UNL     1       0.450   4.162  20.919  0.00  0.00    +0.000 HD
ATOM     21  H   UNL     1       0.655   5.659  20.034  0.00  0.00    +0.000 HD
ENDBRANCH   1  19
BRANCH   9  22
ATOM     22  C   UNL     1       5.525   3.824  16.319  0.00  0.00    +0.000 C 
BRANCH  22  23
ATOM     23  C   UNL     1       5.723   4.544  14.977  0.00  0.00    +0.000 C 
ATOM     24  C   UNL     1       5.743   3.671  13.734  0.00  0.00    +0.000 C 
ATOM     25  C   UNL     1       6.627   4.440  12.783  0.00  0.00    +0.000 C 
ATOM     26  C   UNL     1       7.567   5.191  13.699  0.00  0.00    +0.000 C 
ATOM     27  O   UNL     1       6.922   5.335  14.971  0.00  0.00    +0.000 OA
ENDBRANCH  22  23
ENDBRANCH   9  22
TORSDOF 4
ENDMDL
MODEL 6
REMARK VINA RESULT:      -7.9      1.725      6.641
REMARK  Name = 
REMARK  4 active torsions:
REMARK  status: ('A' for Active; 'I' for Inactive)
REMARK    1  A    between atoms: N_1  and  C_2
REMARK    2  A    between atoms: C_8  and  C_9
REMARK    3  A    between atoms: N_19  and  C_20
REMARK    4  A    between atoms: C_20  and  C_21
REMARK                            x       y       z     vdW  Elec       q    Type
REMARK                         _______ _______ _______ _____ _____    ______ ____
ROOT
ATOM      1  C   UNL     1       1.686   4.446  19.131  0.00  0.00    +0.000 A 
ATOM      2  N   UNL     1       1.849   3.180  18.685  0.00  0.00    +0.000 NA
ATOM      3  C   UNL     1       2.763   2.945  17.726  0.00  0.00    +0.000 A 
ATOM      4  N   UNL     1       3.597   3.818  17.141  0.00  0.00    +0.000 NA
ATOM      5  C   UNL     1       3.395   5.062  17.597  0.00  0.00    +0.000 A 
ATOM      6  C   UNL     1       2.446   5.472  18.534  0.00  0.00    +0.000 A 
ATOM      7  C   UNL     1       2.529   6.908  18.600  0.00  0.00    +0.000 A 
ATOM      8  C   UNL     1       3.602   7.292  17.819  0.00  0.00    +0.000 A 
ATOM      9  N   UNL     1       4.106   6.180  17.207  0.00  0.00    +0.000 N 
ENDROOT
BRANCH   7  10
ATOM     10  C   UNL     1       1.745   7.843  19.393  0.00  0.00    +0.000 A 
ATOM     11  C   UNL     1       1.621   7.653  20.790  0.00  0.00    +0.000 A 
ATOM     12  C   UNL     1       1.244   8.707  21.630  0.00  0.00    +0.000 A 
ATOM     13  C   UNL     1       0.970   9.909  21.024  0.00  0.00    +0.000 A 
ATOM     14  C   UNL     1       0.930  10.045  19.653  0.00  0.00    +0.000 A 
ATOM     15  C   UNL     1       1.274   9.021  18.804  0.00  0.00    +0.000 A 
ATOM     16  O   UNL     1       0.695  11.333  19.273  0.00  0.00    +0.000 OA
ATOM     17  C   UNL     1       1.015  11.986  20.517  0.00  0.00    +0.000 C 
ATOM     18  O   UNL     1       0.828  11.111  21.651  0.00  0.00    +0.000 OA
ENDBRANCH   7  10
BRANCH   1  19
ATOM     19  N   UNL     1       0.777   4.608  20.149  0.00  0.00    +0.000 N 
ATOM     20  H   UNL     1       0.999   5.300  20.848  0.00  0.00    +0.000 HD
ATOM     21  H   UNL     1      -0.111   4.137  20.155  0.00  0.00    +0.000 HD
ENDBRANCH   1  19
BRANCH   9  22
ATOM     22  C   UNL     1       5.135   6.210  16.171  0.00  0.00    +0.000 C 
BRANCH  22  23
ATOM     23  C   UNL     1       6.578   5.941  16.620  0.00  0.00    +0.000 C 
ATOM     24  C   UNL     1       6.924   4.503  16.968  0.00  0.00    +0.000 C 
ATOM     25  C   UNL     1       8.021   4.647  17.995  0.00  0.00    +0.000 C 
ATOM     26  C   UNL     1       7.712   5.969  18.662  0.00  0.00    +0.000 C 
ATOM     27  O   UNL     1       6.947   6.759  17.743  0.00  0.00    +0.000 OA
ENDBRANCH  22  23
ENDBRANCH   9  22
TORSDOF 4
ENDMDL
MODEL 7
REMARK VINA RESULT:      -7.6      1.611      6.474
REMARK  Name = 
REMARK  4 active torsions:
REMARK  status: ('A' for Active; 'I' for Inactive)
REMARK    1  A    between atoms: N_1  and  C_2
REMARK    2  A    between atoms: C_8  and  C_9
REMARK    3  A    between atoms: N_19  and  C_20
REMARK    4  A    between atoms: C_20  and  C_21
REMARK                            x       y       z     vdW  Elec       q    Type
REMARK                         _______ _______ _______ _____ _____    ______ ____
ROOT
ATOM      1  C   UNL     1       1.552   4.104  19.304  0.00  0.00    +0.000 A 
ATOM      2  N   UNL     1       1.459   2.780  19.050  0.00  0.00    +0.000 NA
ATOM      3  C   UNL     1       2.425   2.193  18.319  0.00  0.00    +0.000 A 
ATOM      4  N   UNL     1       3.534   2.749  17.807  0.00  0.00    +0.000 NA
ATOM      5  C   UNL     1       3.580   4.063  18.066  0.00  0.00    +0.000 A 
ATOM      6  C   UNL     1       2.629   4.822  18.748  0.00  0.00    +0.000 A 
ATOM      7  C   UNL     1       3.059   6.194  18.659  0.00  0.00    +0.000 A 
ATOM      8  C   UNL     1       4.303   6.195  18.059  0.00  0.00    +0.000 A 
ATOM      9  N   UNL     1       4.603   4.914  17.691  0.00  0.00    +0.000 N 
ENDROOT
BRANCH   7  10
ATOM     10  C   UNL     1       2.419   7.397  19.171  0.00  0.00    +0.000 A 
ATOM     11  C   UNL     1       1.910   8.363  18.272  0.00  0.00    +0.000 A 
ATOM     12  C   UNL     1       0.953   9.298  18.685  0.00  0.00    +0.000 A 
ATOM     13  C   UNL     1       0.570   9.246  20.003  0.00  0.00    +0.000 A 
ATOM     14  C   UNL     1       1.189   8.414  20.912  0.00  0.00    +0.000 A 
ATOM     15  C   UNL     1       2.146   7.503  20.539  0.00  0.00    +0.000 A 
ATOM     16  O   UNL     1       0.613   8.485  22.146  0.00  0.00    +0.000 OA
ATOM     17  C   UNL     1      -0.631   9.105  21.766  0.00  0.00    +0.000 C 
ATOM     18  O   UNL     1      -0.503   9.880  20.554  0.00  0.00    +0.000 OA
ENDBRANCH   7  10
BRANCH   1  19
ATOM     19  N   UNL     1       0.563   4.629  20.102  0.00  0.00    +0.000 N 
ATOM     20  H   UNL     1       0.508   5.634  20.152  0.00  0.00    +0.000 HD
ATOM     21  H   UNL     1      -0.135   4.052  20.540  0.00  0.00    +0.000 HD
ENDBRANCH   1  19
BRANCH   9  22
ATOM     22  C   UNL     1       5.756   4.544  16.876  0.00  0.00    +0.000 C 
BRANCH  22  23
ATOM     23  C   UNL     1       7.069   5.291  17.155  0.00  0.00    +0.000 C 
ATOM     24  C   UNL     1       7.426   5.514  18.615  0.00  0.00    +0.000 C 
ATOM     25  C   UNL     1       8.236   6.787  18.584  0.00  0.00    +0.000 C 
ATOM     26  C   UNL     1       7.685   7.532  17.389  0.00  0.00    +0.000 C 
ATOM     27  O   UNL     1       7.103   6.569  16.500  0.00  0.00    +0.000 OA
ENDBRANCH  22  23
ENDBRANCH   9  22
TORSDOF 4
ENDMDL
MODEL 8
REMARK VINA RESULT:      -7.3      1.617      5.890
REMARK  Name = 
REMARK  4 active torsions:
REMARK  status: ('A' for Active; 'I' for Inactive)
REMARK    1  A    between atoms: N_1  and  C_2
REMARK    2  A    between atoms: C_8  and  C_9
REMARK    3  A    between atoms: N_19  and  C_20
REMARK    4  A    between atoms: C_20  and  C_21
REMARK                            x       y       z     vdW  Elec       q    Type
REMARK                         _______ _______ _______ _____ _____    ______ ____
ROOT
ATOM      1  C   UNL     1       1.784   3.421  19.507  0.00  0.00    +0.000 A 
ATOM      2  N   UNL     1       1.961   2.096  19.307  0.00  0.00    +0.000 NA
ATOM      3  C   UNL     1       3.201   1.641  19.048  0.00  0.00    +0.000 A 
ATOM      4  N   UNL     1       4.345   2.338  18.986  0.00  0.00    +0.000 NA
ATOM      5  C   UNL     1       4.126   3.647  19.172  0.00  0.00    +0.000 A 
ATOM      6  C   UNL     1       2.899   4.275  19.383  0.00  0.00    +0.000 A 
ATOM      7  C   UNL     1       3.159   5.691  19.398  0.00  0.00    +0.000 A 
ATOM      8  C   UNL     1       4.530   5.855  19.338  0.00  0.00    +0.000 A 
ATOM      9  N   UNL     1       5.103   4.624  19.185  0.00  0.00    +0.000 N 
ENDROOT
BRANCH   7  10
ATOM     10  C   UNL     1       2.229   6.799  19.553  0.00  0.00    +0.000 A 
ATOM     11  C   UNL     1       1.703   7.107  20.830  0.00  0.00    +0.000 A 
ATOM     12  C   UNL     1       1.155   8.366  21.099  0.00  0.00    +0.000 A 
ATOM     13  C   UNL     1       1.125   9.260  20.056  0.00  0.00    +0.000 A 
ATOM     14  C   UNL     1       1.484   8.901  18.774  0.00  0.00    +0.000 A 
ATOM     15  C   UNL     1       2.003   7.665  18.477  0.00  0.00    +0.000 A 
ATOM     16  O   UNL     1       1.430   9.957  17.913  0.00  0.00    +0.000 OA
ATOM     17  C   UNL     1       1.414  11.023  18.881  0.00  0.00    +0.000 C 
ATOM     18  O   UNL     1       0.870  10.596  20.149  0.00  0.00    +0.000 OA
ENDBRANCH   7  10
BRANCH   1  19
ATOM     19  N   UNL     1       0.504   3.812  19.822  0.00  0.00    +0.000 N 
ATOM     20  H   UNL     1       0.118   3.449  20.680  0.00  0.00    +0.000 HD
ATOM     21  H   UNL     1       0.006   4.500  19.283  0.00  0.00    +0.000 HD
ENDBRANCH   1  19
BRANCH   9  22
ATOM     22  C   UNL     1       6.521   4.410  18.912  0.00  0.00    +0.000 C 
BRANCH  22  23
ATOM     23  C   UNL     1       7.207   5.420  17.981  0.00  0.00    +0.000 C 
ATOM     24  C   UNL     1       7.858   6.622  18.645  0.00  0.00    +0.000 C 
ATOM     25  C   UNL     1       7.766   7.696  17.589  0.00  0.00    +0.000 C 
ATOM     26  C   UNL     1       6.527   7.321  16.806  0.00  0.00    +0.000 C 
ATOM     27  O   UNL     1       6.306   5.915  16.976  0.00  0.00    +0.000 OA
ENDBRANCH  22  23
ENDBRANCH   9  22
TORSDOF 4
ENDMDL
MODEL 9
REMARK VINA RESULT:      -7.3      2.239      6.902
REMARK  Name = 
REMARK  4 active torsions:
REMARK  status: ('A' for Active; 'I' for Inactive)
REMARK    1  A    between atoms: N_1  and  C_2
REMARK    2  A    between atoms: C_8  and  C_9
REMARK    3  A    between atoms: N_19  and  C_20
REMARK    4  A    between atoms: C_20  and  C_21
REMARK                            x       y       z     vdW  Elec       q    Type
REMARK                         _______ _______ _______ _____ _____    ______ ____
ROOT
ATOM      1  C   UNL     1       1.725   6.807  20.374  0.00  0.00    +0.000 A 
ATOM      2  N   UNL     1       1.896   5.602  20.961  0.00  0.00    +0.000 NA
ATOM      3  C   UNL     1       2.731   4.716  20.387  0.00  0.00    +0.000 A 
ATOM      4  N   UNL     1       3.477   4.872  19.283  0.00  0.00    +0.000 NA
ATOM      5  C   UNL     1       3.268   6.071  18.722  0.00  0.00    +0.000 A 
ATOM      6  C   UNL     1       2.390   7.064  19.158  0.00  0.00    +0.000 A 
ATOM      7  C   UNL     1       2.423   8.106  18.164  0.00  0.00    +0.000 A 
ATOM      8  C   UNL     1       3.408   7.772  17.255  0.00  0.00    +0.000 A 
ATOM      9  N   UNL     1       3.900   6.541  17.587  0.00  0.00    +0.000 N 
ENDROOT
BRANCH   7  10
ATOM     10  C   UNL     1       1.676   9.354  18.110  0.00  0.00    +0.000 A 
ATOM     11  C   UNL     1       0.265   9.328  18.006  0.00  0.00    +0.000 A 
ATOM     12  C   UNL     1      -0.503  10.444  18.356  0.00  0.00    +0.000 A 
ATOM     13  C   UNL     1       0.184  11.561  18.767  0.00  0.00    +0.000 A 
ATOM     14  C   UNL     1       1.559  11.636  18.709  0.00  0.00    +0.000 A 
ATOM     15  C   UNL     1       2.338  10.564  18.347  0.00  0.00    +0.000 A 
ATOM     16  O   UNL     1       2.030  12.810  19.217  0.00  0.00    +0.000 OA
ATOM     17  C   UNL     1       0.853  13.217  19.942  0.00  0.00    +0.000 C 
ATOM     18  O   UNL     1      -0.352  12.654  19.379  0.00  0.00    +0.000 OA
ENDBRANCH   7  10
BRANCH   1  19
ATOM     19  N   UNL     1       0.903   7.685  21.040  0.00  0.00    +0.000 N 
ATOM     20  H   UNL     1       0.950   8.652  20.759  0.00  0.00    +0.000 HD
ATOM     21  H   UNL     1       0.216   7.375  21.707  0.00  0.00    +0.000 HD
ENDBRANCH   1  19
BRANCH   9  22
ATOM     22  C   UNL     1       4.831   5.781  16.760  0.00  0.00    +0.000 C 
BRANCH  22  23
ATOM     23  C   UNL     1       6.328   5.985  17.037  0.00  0.00    +0.000 C 
ATOM     24  C   UNL     1       6.791   5.761  18.466  0.00  0.00    +0.000 C 
ATOM     25  C   UNL     1       7.982   6.679  18.594  0.00  0.00    +0.000 C 
ATOM     26  C   UNL     1       7.673   7.801  17.627  0.00  0.00    +0.000 C 
ATOM     27  O   UNL     1       6.769   7.293  16.638  0.00  0.00    +0.000 OA
ENDBRANCH  22  23
ENDBRANCH   9  22
TORSDOF 4
ENDMDL
