MODEL 1
REMARK VINA RESULT:      -6.3      0.000      0.000
REMARK  Name = 
REMARK  7 active torsions:
REMARK  status: ('A' for Active; 'I' for Inactive)
REMARK    1  A    between atoms: C_1  and  C_2
REMARK    2  A    between atoms: C_4  and  C_5
REMARK    3  A    between atoms: C_5  and  N_6
REMARK    4  A    between atoms: N_6  and  C_7
REMARK    5  A    between atoms: N_6  and  C_8
REMARK    6  A    between atoms: C_8  and  C_9
REMARK    7  A    between atoms: C_15  and  C_16
REMARK                            x       y       z     vdW  Elec       q    Type
REMARK                         _______ _______ _______ _____ _____    ______ ____
ROOT
ATOM      1  C   UNL     1       3.539   1.518  18.338  0.00  0.00    +0.000 C 
ATOM      2  C   UNL     1       3.895   2.842  18.914  0.00  0.00    +0.000 A 
ATOM      3  N   UNL     1       5.187   3.323  18.909  0.00  0.00    +0.000 N 
ATOM      4  C   UNL     1       5.202   4.625  19.354  0.00  0.00    +0.000 A 
ATOM      5  C   UNL     1       3.923   4.928  19.782  0.00  0.00    +0.000 A 
ATOM      6  C   UNL     1       3.097   3.814  19.504  0.00  0.00    +0.000 A 
ATOM      7  H   UNL     1       5.999   2.830  18.560  0.00  0.00    +0.000 HD
ENDROOT
BRANCH   6   8
ATOM      8  C   UNL     1       1.692   3.707  19.739  0.00  0.00    +0.000 C 
ATOM      9  N   UNL     1       0.547   3.619  19.927  0.00  0.00    +0.000 NA
ENDBRANCH   6   8
BRANCH   4  10
ATOM     10  C   UNL     1       6.434   5.476  19.329  0.00  0.00    +0.000 C 
BRANCH  10  11
ATOM     11  N   UNL     1       6.825   5.902  17.966  0.00  0.00    +0.000 NA
ATOM     12  C   UNL     1       7.737   7.060  18.028  0.00  0.00    +0.000 C 
BRANCH  11  13
ATOM     13  C   UNL     1       7.508   4.753  17.312  0.00  0.00    +0.000 C 
BRANCH  13  14
ATOM     14  C   UNL     1       7.060   4.550  15.888  0.00  0.00    +0.000 A 
ATOM     15  C   UNL     1       6.069   3.693  15.439  0.00  0.00    +0.000 A 
ATOM     16  S   UNL     1       5.859   3.862  13.745  0.00  0.00    +0.000 S 
ATOM     17  C   UNL     1       7.131   5.010  13.722  0.00  0.00    +0.000 A 
ATOM     18  N   UNL     1       7.676   5.291  14.884  0.00  0.00    +0.000 NA
ENDBRANCH  13  14
ENDBRANCH  11  13
ENDBRANCH  10  11
ENDBRANCH   4  10
TORSDOF 5
ENDMDL
MODEL 2
REMARK VINA RESULT:      -6.1      2.585      5.889
REMARK  Name = 
REMARK  7 active torsions:
REMARK  status: ('A' for Active; 'I' for Inactive)
REMARK    1  A    between atoms: C_1  and  C_2
REMARK    2  A    between atoms: C_4  and  C_5
REMARK    3  A    between atoms: C_5  and  N_6
REMARK    4  A    between atoms: N_6  and  C_7
REMARK    5  A    between atoms: N_6  and  C_8
REMARK    6  A    between atoms: C_8  and  C_9
REMARK    7  A    between atoms: C_15  and  C_16
REMARK                            x       y       z     vdW  Elec       q    Type
REMARK                         _______ _______ _______ _____ _____    ______ ____
ROOT
ATOM      1  C   UNL     1       7.691   5.506  18.672  0.00  0.00    +0.000 C 
ATOM      2  C   UNL     1       6.536   4.724  18.156  0.00  0.00    +0.000 A 
ATOM      3  N   UNL     1       5.649   4.084  18.995  0.00  0.00    +0.000 N 
ATOM      4  C   UNL     1       4.598   3.578  18.264  0.00  0.00    +0.000 A 
ATOM      5  C   UNL     1       4.895   3.774  16.928  0.00  0.00    +0.000 A 
ATOM      6  C   UNL     1       6.108   4.497  16.855  0.00  0.00    +0.000 A 
ATOM      7  H   UNL     1       5.708   4.053  20.006  0.00  0.00    +0.000 HD
ENDROOT
BRANCH   6   8
ATOM      8  C   UNL     1       6.764   4.955  15.672  0.00  0.00    +0.000 C 
ATOM      9  N   UNL     1       7.298   5.332  14.708  0.00  0.00    +0.000 NA
ENDBRANCH   6   8
BRANCH   4  10
ATOM     10  C   UNL     1       3.394   2.954  18.900  0.00  0.00    +0.000 C 
BRANCH  10  11
ATOM     11  N   UNL     1       2.243   3.878  19.010  0.00  0.00    +0.000 NA
ATOM     12  C   UNL     1       1.038   3.152  19.451  0.00  0.00    +0.000 C 
BRANCH  11  13
ATOM     13  C   UNL     1       2.597   4.925  20.006  0.00  0.00    +0.000 C 
BRANCH  13  14
ATOM     14  C   UNL     1       2.424   6.320  19.463  0.00  0.00    +0.000 A 
ATOM     15  C   UNL     1       2.797   6.781  18.212  0.00  0.00    +0.000 A 
ATOM     16  S   UNL     1       2.328   8.420  18.018  0.00  0.00    +0.000 S 
ATOM     17  C   UNL     1       1.721   8.415  19.621  0.00  0.00    +0.000 A 
ATOM     18  N   UNL     1       1.820   7.278  20.272  0.00  0.00    +0.000 NA
ENDBRANCH  13  14
ENDBRANCH  11  13
ENDBRANCH  10  11
ENDBRANCH   4  10
TORSDOF 5
ENDMDL
MODEL 3
REMARK VINA RESULT:      -6.1      2.336      5.777
REMARK  Name = 
REMARK  7 active torsions:
REMARK  status: ('A' for Active; 'I' for Inactive)
REMARK    1  A    between atoms: C_1  and  C_2
REMARK    2  A    between atoms: C_4  and  C_5
REMARK    3  A    between atoms: C_5  and  N_6
REMARK    4  A    between atoms: N_6  and  C_7
REMARK    5  A    between atoms: N_6  and  C_8
REMARK    6  A    between atoms: C_8  and  C_9
REMARK    7  A    between atoms: C_15  and  C_16
REMARK                            x       y       z     vdW  Elec       q    Type
REMARK                         _______ _______ _______ _____ _____    ______ ____
ROOT
ATOM      1  C   UNL     1       8.280   5.440  12.901  0.00  0.00    +0.000 C 
ATOM      2  C   UNL     1       7.255   5.090  13.920  0.00  0.00    +0.000 A 
ATOM      3  N   UNL     1       7.218   5.686  15.162  0.00  0.00    +0.000 N 
ATOM      4  C   UNL     1       6.083   5.296  15.834  0.00  0.00    +0.000 A 
ATOM      5  C   UNL     1       5.464   4.327  15.066  0.00  0.00    +0.000 A 
ATOM      6  C   UNL     1       6.192   4.198  13.861  0.00  0.00    +0.000 A 
ATOM      7  H   UNL     1       7.879   6.371  15.508  0.00  0.00    +0.000 HD
ENDROOT
BRANCH   6   8
ATOM      8  C   UNL     1       5.883   3.344  12.759  0.00  0.00    +0.000 C 
ATOM      9  N   UNL     1       5.632   2.650  11.858  0.00  0.00    +0.000 NA
ENDBRANCH   6   8
BRANCH   4  10
ATOM     10  C   UNL     1       5.679   5.882  17.152  0.00  0.00    +0.000 C 
BRANCH  10  11
ATOM     11  N   UNL     1       5.995   5.009  18.304  0.00  0.00    +0.000 NA
ATOM     12  C   UNL     1       7.253   5.436  18.946  0.00  0.00    +0.000 C 
BRANCH  11  13
ATOM     13  C   UNL     1       4.871   5.113  19.273  0.00  0.00    +0.000 C 
BRANCH  13  14
ATOM     14  C   UNL     1       3.905   3.961  19.164  0.00  0.00    +0.000 A 
ATOM     15  C   UNL     1       2.800   3.720  19.962  0.00  0.00    +0.000 A 
ATOM     16  S   UNL     1       1.960   2.331  19.409  0.00  0.00    +0.000 S 
ATOM     17  C   UNL     1       3.150   2.118  18.195  0.00  0.00    +0.000 A 
ATOM     18  N   UNL     1       4.106   3.020  18.158  0.00  0.00    +0.000 NA
ENDBRANCH  13  14
ENDBRANCH  11  13
ENDBRANCH  10  11
ENDBRANCH   4  10
TORSDOF 5
ENDMDL
MODEL 4
REMARK VINA RESULT:      -6.0      2.272      5.825
REMARK  Name = 
REMARK  7 active torsions:
REMARK  status: ('A' for Active; 'I' for Inactive)
REMARK    1  A    between atoms: C_1  and  C_2
REMARK    2  A    between atoms: C_4  and  C_5
REMARK    3  A    between atoms: C_5  and  N_6
REMARK    4  A    between atoms: N_6  and  C_7
REMARK    5  A    between atoms: N_6  and  C_8
REMARK    6  A    between atoms: C_8  and  C_9
REMARK    7  A    between atoms: C_15  and  C_16
REMARK                            x       y       z     vdW  Elec       q    Type
REMARK                         _______ _______ _______ _____ _____    ______ ____
ROOT
ATOM      1  C   UNL     1       8.104   5.412  12.463  0.00  0.00    +0.000 C 
ATOM      2  C   UNL     1       7.204   4.988  13.568  0.00  0.00    +0.000 A 
ATOM      3  N   UNL     1       7.241   5.577  14.814  0.00  0.00    +0.000 N 
ATOM      4  C   UNL     1       6.203   5.105  15.584  0.00  0.00    +0.000 A 
ATOM      5  C   UNL     1       5.585   4.097  14.867  0.00  0.00    +0.000 A 
ATOM      6  C   UNL     1       6.206   4.023  13.599  0.00  0.00    +0.000 A 
ATOM      7  H   UNL     1       7.882   6.306  15.104  0.00  0.00    +0.000 HD
ENDROOT
BRANCH   6   8
ATOM      8  C   UNL     1       5.857   3.152  12.522  0.00  0.00    +0.000 C 
ATOM      9  N   UNL     1       5.569   2.442  11.646  0.00  0.00    +0.000 NA
ENDBRANCH   6   8
BRANCH   4  10
ATOM     10  C   UNL     1       5.882   5.658  16.939  0.00  0.00    +0.000 C 
BRANCH  10  11
ATOM     11  N   UNL     1       6.286   4.765  18.047  0.00  0.00    +0.000 NA
ATOM     12  C   UNL     1       7.613   5.150  18.563  0.00  0.00    +0.000 C 
BRANCH  11  13
ATOM     13  C   UNL     1       5.267   4.891  19.124  0.00  0.00    +0.000 C 
BRANCH  13  14
ATOM     14  C   UNL     1       4.002   4.133  18.814  0.00  0.00    +0.000 A 
ATOM     15  C   UNL     1       3.902   2.864  18.270  0.00  0.00    +0.000 A 
ATOM     16  S   UNL     1       2.257   2.388  18.171  0.00  0.00    +0.000 S 
ATOM     17  C   UNL     1       1.798   3.916  18.799  0.00  0.00    +0.000 A 
ATOM     18  N   UNL     1       2.780   4.735  19.099  0.00  0.00    +0.000 NA
ENDBRANCH  13  14
ENDBRANCH  11  13
ENDBRANCH  10  11
ENDBRANCH   4  10
TORSDOF 5
ENDMDL
MODEL 5
REMARK VINA RESULT:      -5.9      2.454      5.810
REMARK  Name = 
REMARK  7 active torsions:
REMARK  status: ('A' for Active; 'I' for Inactive)
REMARK    1  A    between atoms: C_1  and  C_2
REMARK    2  A    between atoms: C_4  and  C_5
REMARK    3  A    between atoms: C_5  and  N_6
REMARK    4  A    between atoms: N_6  and  C_7
REMARK    5  A    between atoms: N_6  and  C_8
REMARK    6  A    between atoms: C_8  and  C_9
REMARK    7  A    between atoms: C_15  and  C_16
REMARK                            x       y       z     vdW  Elec       q    Type
REMARK                         _______ _______ _______ _____ _____    ______ ____
ROOT
ATOM      1  C   UNL     1       8.136   5.584  12.794  0.00  0.00    +0.000 C 
ATOM      2  C   UNL     1       7.380   4.916  13.887  0.00  0.00    +0.000 A 
ATOM      3  N   UNL     1       7.627   5.176  15.218  0.00  0.00    +0.000 N 
ATOM      4  C   UNL     1       6.683   4.548  15.999  0.00  0.00    +0.000 A 
ATOM      5  C   UNL     1       5.913   3.762  15.161  0.00  0.00    +0.000 A 
ATOM      6  C   UNL     1       6.343   3.993  13.834  0.00  0.00    +0.000 A 
ATOM      7  H   UNL     1       8.342   5.797  15.576  0.00  0.00    +0.000 HD
ENDROOT
BRANCH   6   8
ATOM      8  C   UNL     1       5.795   3.425  12.644  0.00  0.00    +0.000 C 
ATOM      9  N   UNL     1       5.350   2.958  11.675  0.00  0.00    +0.000 NA
ENDBRANCH   6   8
BRANCH   4  10
ATOM     10  C   UNL     1       6.590   4.754  17.480  0.00  0.00    +0.000 C 
BRANCH  10  11
ATOM     11  N   UNL     1       5.621   5.803  17.866  0.00  0.00    +0.000 NA
ATOM     12  C   UNL     1       5.890   7.052  17.131  0.00  0.00    +0.000 C 
BRANCH  11  13
ATOM     13  C   UNL     1       4.258   5.304  17.536  0.00  0.00    +0.000 C 
BRANCH  13  14
ATOM     14  C   UNL     1       3.806   4.202  18.459  0.00  0.00    +0.000 A 
ATOM     15  C   UNL     1       3.446   4.324  19.790  0.00  0.00    +0.000 A 
ATOM     16  S   UNL     1       2.928   2.809  20.407  0.00  0.00    +0.000 S 
ATOM     17  C   UNL     1       3.273   2.095  18.888  0.00  0.00    +0.000 A 
ATOM     18  N   UNL     1       3.718   2.907  17.955  0.00  0.00    +0.000 NA
ENDBRANCH  13  14
ENDBRANCH  11  13
ENDBRANCH  10  11
ENDBRANCH   4  10
TORSDOF 5
ENDMDL
MODEL 6
REMARK VINA RESULT:      -5.9      2.660      6.169
REMARK  Name = 
REMARK  7 active torsions:
REMARK  status: ('A' for Active; 'I' for Inactive)
REMARK    1  A    between atoms: C_1  and  C_2
REMARK    2  A    between atoms: C_4  and  C_5
REMARK    3  A    between atoms: C_5  and  N_6
REMARK    4  A    between atoms: N_6  and  C_7
REMARK    5  A    between atoms: N_6  and  C_8
REMARK    6  A    between atoms: C_8  and  C_9
REMARK    7  A    between atoms: C_15  and  C_16
REMARK                            x       y       z     vdW  Elec       q    Type
REMARK                         _______ _______ _______ _____ _____    ______ ____
ROOT
ATOM      1  C   UNL     1       8.025   5.496  12.336  0.00  0.00    +0.000 C 
ATOM      2  C   UNL     1       7.257   4.982  13.501  0.00  0.00    +0.000 A 
ATOM      3  N   UNL     1       7.369   5.536  14.758  0.00  0.00    +0.000 N 
ATOM      4  C   UNL     1       6.435   4.976  15.600  0.00  0.00    +0.000 A 
ATOM      5  C   UNL     1       5.820   3.950  14.906  0.00  0.00    +0.000 A 
ATOM      6  C   UNL     1       6.328   3.953  13.587  0.00  0.00    +0.000 A 
ATOM      7  H   UNL     1       7.986   6.297  15.015  0.00  0.00    +0.000 HD
ENDROOT
BRANCH   6   8
ATOM      8  C   UNL     1       5.938   3.093  12.515  0.00  0.00    +0.000 C 
ATOM      9  N   UNL     1       5.622   2.389  11.644  0.00  0.00    +0.000 NA
ENDBRANCH   6   8
BRANCH   4  10
ATOM     10  C   UNL     1       6.204   5.468  16.996  0.00  0.00    +0.000 C 
BRANCH  10  11
ATOM     11  N   UNL     1       5.285   4.609  17.775  0.00  0.00    +0.000 NA
ATOM     12  C   UNL     1       5.620   4.662  19.210  0.00  0.00    +0.000 C 
BRANCH  11  13
ATOM     13  C   UNL     1       3.902   5.113  17.558  0.00  0.00    +0.000 C 
BRANCH  13  14
ATOM     14  C   UNL     1       2.862   4.260  18.239  0.00  0.00    +0.000 A 
ATOM     15  C   UNL     1       2.107   4.592  19.350  0.00  0.00    +0.000 A 
ATOM     16  S   UNL     1       1.000   3.333  19.714  0.00  0.00    +0.000 S 
ATOM     17  C   UNL     1       1.641   2.420  18.413  0.00  0.00    +0.000 A 
ATOM     18  N   UNL     1       2.595   2.997  17.718  0.00  0.00    +0.000 NA
ENDBRANCH  13  14
ENDBRANCH  11  13
ENDBRANCH  10  11
ENDBRANCH   4  10
TORSDOF 5
ENDMDL
MODEL 7
REMARK VINA RESULT:      -5.9      2.669      6.258
REMARK  Name = 
REMARK  7 active torsions:
REMARK  status: ('A' for Active; 'I' for Inactive)
REMARK    1  A    between atoms: C_1  and  C_2
REMARK    2  A    between atoms: C_4  and  C_5
REMARK    3  A    between atoms: C_5  and  N_6
REMARK    4  A    between atoms: N_6  and  C_7
REMARK    5  A    between atoms: N_6  and  C_8
REMARK    6  A    between atoms: C_8  and  C_9
REMARK    7  A    between atoms: C_15  and  C_16
REMARK                            x       y       z     vdW  Elec       q    Type
REMARK                         _______ _______ _______ _____ _____    ______ ____
ROOT
ATOM      1  C   UNL     1       8.071   5.464  12.405  0.00  0.00    +0.000 C 
ATOM      2  C   UNL     1       7.276   4.985  13.568  0.00  0.00    +0.000 A 
ATOM      3  N   UNL     1       7.428   5.516  14.831  0.00  0.00    +0.000 N 
ATOM      4  C   UNL     1       6.464   5.006  15.670  0.00  0.00    +0.000 A 
ATOM      5  C   UNL     1       5.783   4.029  14.968  0.00  0.00    +0.000 A 
ATOM      6  C   UNL     1       6.285   4.016  13.646  0.00  0.00    +0.000 A 
ATOM      7  H   UNL     1       8.093   6.234  15.094  0.00  0.00    +0.000 HD
ENDROOT
BRANCH   6   8
ATOM      8  C   UNL     1       5.837   3.195  12.566  0.00  0.00    +0.000 C 
ATOM      9  N   UNL     1       5.472   2.523  11.689  0.00  0.00    +0.000 NA
ENDBRANCH   6   8
BRANCH   4  10
ATOM     10  C   UNL     1       6.270   5.494  17.073  0.00  0.00    +0.000 C 
BRANCH  10  11
ATOM     11  N   UNL     1       5.199   4.777  17.800  0.00  0.00    +0.000 NA
ATOM     12  C   UNL     1       5.636   4.446  19.169  0.00  0.00    +0.000 C 
BRANCH  11  13
ATOM     13  C   UNL     1       4.010   5.670  17.850  0.00  0.00    +0.000 C 
BRANCH  13  14
ATOM     14  C   UNL     1       2.925   5.138  18.751  0.00  0.00    +0.000 A 
ATOM     15  C   UNL     1       2.172   3.991  18.564  0.00  0.00    +0.000 A 
ATOM     16  S   UNL     1       1.114   3.752  19.892  0.00  0.00    +0.000 S 
ATOM     17  C   UNL     1       1.687   5.210  20.586  0.00  0.00    +0.000 A 
ATOM     18  N   UNL     1       2.623   5.841  19.914  0.00  0.00    +0.000 NA
ENDBRANCH  13  14
ENDBRANCH  11  13
ENDBRANCH  10  11
ENDBRANCH   4  10
TORSDOF 5
ENDMDL
MODEL 8
REMARK VINA RESULT:      -5.8      3.743      5.658
REMARK  Name = 
REMARK  7 active torsions:
REMARK  status: ('A' for Active; 'I' for Inactive)
REMARK    1  A    between atoms: C_1  and  C_2
REMARK    2  A    between atoms: C_4  and  C_5
REMARK    3  A    between atoms: C_5  and  N_6
REMARK    4  A    between atoms: N_6  and  C_7
REMARK    5  A    between atoms: N_6  and  C_8
REMARK    6  A    between atoms: C_8  and  C_9
REMARK    7  A    between atoms: C_15  and  C_16
REMARK                            x       y       z     vdW  Elec       q    Type
REMARK                         _______ _______ _______ _____ _____    ______ ____
ROOT
ATOM      1  C   UNL     1       1.175   7.645  21.066  0.00  0.00    +0.000 C 
ATOM      2  C   UNL     1       2.083   7.457  19.903  0.00  0.00    +0.000 A 
ATOM      3  N   UNL     1       3.036   6.461  19.867  0.00  0.00    +0.000 N 
ATOM      4  C   UNL     1       3.618   6.417  18.620  0.00  0.00    +0.000 A 
ATOM      5  C   UNL     1       3.130   7.492  17.901  0.00  0.00    +0.000 A 
ATOM      6  C   UNL     1       2.162   8.145  18.699  0.00  0.00    +0.000 A 
ATOM      7  H   UNL     1       3.232   5.804  20.612  0.00  0.00    +0.000 HD
ENDROOT
BRANCH   6   8
ATOM      8  C   UNL     1       1.372   9.277  18.335  0.00  0.00    +0.000 C 
ATOM      9  N   UNL     1       0.726  10.198  18.037  0.00  0.00    +0.000 NA
ENDBRANCH   6   8
BRANCH   4  10
ATOM     10  C   UNL     1       4.588   5.350  18.216  0.00  0.00    +0.000 C 
BRANCH  10  11
ATOM     11  N   UNL     1       3.982   4.295  17.373  0.00  0.00    +0.000 NA
ATOM     12  C   UNL     1       4.771   4.101  16.142  0.00  0.00    +0.000 C 
BRANCH  11  13
ATOM     13  C   UNL     1       3.963   3.037  18.167  0.00  0.00    +0.000 C 
BRANCH  13  14
ATOM     14  C   UNL     1       2.930   3.062  19.264  0.00  0.00    +0.000 A 
ATOM     15  C   UNL     1       3.111   2.701  20.589  0.00  0.00    +0.000 A 
ATOM     16  S   UNL     1       1.671   2.970  21.480  0.00  0.00    +0.000 S 
ATOM     17  C   UNL     1       0.900   3.487  20.039  0.00  0.00    +0.000 A 
ATOM     18  N   UNL     1       1.645   3.497  18.957  0.00  0.00    +0.000 NA
ENDBRANCH  13  14
ENDBRANCH  11  13
ENDBRANCH  10  11
ENDBRANCH   4  10
TORSDOF 5
ENDMDL
MODEL 9
REMARK VINA RESULT:      -5.8      2.658      6.156
REMARK  Name = 
REMARK  7 active torsions:
REMARK  status: ('A' for Active; 'I' for Inactive)
REMARK    1  A    between atoms: C_1  and  C_2
REMARK    2  A    between atoms: C_4  and  C_5
REMARK    3  A    between atoms: C_5  and  N_6
REMARK    4  A    between atoms: N_6  and  C_7
REMARK    5  A    between atoms: N_6  and  C_8
REMARK    6  A    between atoms: C_8  and  C_9
REMARK    7  A    between atoms: C_15  and  C_16
REMARK                            x       y       z     vdW  Elec       q    Type
REMARK                         _______ _______ _______ _____ _____    ______ ____
ROOT
ATOM      1  C   UNL     1       8.042   5.635  12.856  0.00  0.00    +0.000 C 
ATOM      2  C   UNL     1       7.314   4.935  13.947  0.00  0.00    +0.000 A 
ATOM      3  N   UNL     1       7.578   5.173  15.279  0.00  0.00    +0.000 N 
ATOM      4  C   UNL     1       6.657   4.516  16.062  0.00  0.00    +0.000 A 
ATOM      5  C   UNL     1       5.885   3.735  15.221  0.00  0.00    +0.000 A 
ATOM      6  C   UNL     1       6.290   3.998  13.892  0.00  0.00    +0.000 A 
ATOM      7  H   UNL     1       8.291   5.797  15.637  0.00  0.00    +0.000 HD
ENDROOT
BRANCH   6   8
ATOM      8  C   UNL     1       5.732   3.445  12.700  0.00  0.00    +0.000 C 
ATOM      9  N   UNL     1       5.279   2.995  11.726  0.00  0.00    +0.000 NA
ENDBRANCH   6   8
BRANCH   4  10
ATOM     10  C   UNL     1       6.585   4.691  17.548  0.00  0.00    +0.000 C 
BRANCH  10  11
ATOM     11  N   UNL     1       5.237   5.065  18.029  0.00  0.00    +0.000 NA
ATOM     12  C   UNL     1       4.671   6.142  17.197  0.00  0.00    +0.000 C 
BRANCH  11  13
ATOM     13  C   UNL     1       4.375   3.855  17.947  0.00  0.00    +0.000 C 
BRANCH  13  14
ATOM     14  C   UNL     1       3.368   3.785  19.066  0.00  0.00    +0.000 A 
ATOM     15  C   UNL     1       2.182   4.492  19.167  0.00  0.00    +0.000 A 
ATOM     16  S   UNL     1       1.329   4.024  20.580  0.00  0.00    +0.000 S 
ATOM     17  C   UNL     1       2.616   2.965  20.981  0.00  0.00    +0.000 A 
ATOM     18  N   UNL     1       3.614   2.919  20.128  0.00  0.00    +0.000 NA
ENDBRANCH  13  14
ENDBRANCH  11  13
ENDBRANCH  10  11
ENDBRANCH   4  10
TORSDOF 5
ENDMDL
