MODEL 1
REMARK VINA RESULT:      -8.4      0.000      0.000
REMARK  Name = 
REMARK  5 active torsions:
REMARK  status: ('A' for Active; 'I' for Inactive)
REMARK    1  A    between atoms: N_3  and  C_4
REMARK    2  A    between atoms: N_14  and  C_15
REMARK    3  A    between atoms: C_15  and  C_16
REMARK    4  A    between atoms: C_20  and  O_21
REMARK    5  A    between atoms: O_21  and  C_22
REMARK                            x       y       z     vdW  Elec       q    Type
REMARK                         _______ _______ _______ _____ _____    ______ ____
ROOT
ATOM      1  O   UNL     1       2.014  13.521  20.077  0.00  0.00    +0.000 OA
ATOM      2  C   UNL     1       2.284  12.911  19.047  0.00  0.00    +0.000 C 
ATOM      3  N   UNL     1       3.190  13.333  18.106  0.00  0.00    +0.000 N 
ATOM      4  N   UNL     1       1.633  11.734  18.728  0.00  0.00    +0.000 N 
ATOM      5  C   UNL     1       0.568  11.271  19.600  0.00  0.00    +0.000 C 
ATOM      6  C   UNL     1       0.662   9.770  19.544  0.00  0.00    +0.000 C 
ATOM      7  C   UNL     1       1.746   9.210  20.446  0.00  0.00    +0.000 C 
ATOM      8  N   UNL     1       2.088   7.920  19.820  0.00  0.00    +0.000 NA
ATOM      9  C   UNL     1       1.904   8.107  18.363  0.00  0.00    +0.000 C 
ATOM     10  C   UNL     1       1.203   9.452  18.159  0.00  0.00    +0.000 C 
ATOM     11  C   UNL     1       2.122  10.652  17.865  0.00  0.00    +0.000 C 
ATOM     12  H   UNL     1       3.015  13.000  17.170  0.00  0.00    +0.000 HD
ENDROOT
BRANCH   3  13
ATOM     13  C   UNL     1       4.001  14.485  18.238  0.00  0.00    +0.000 A 
ATOM     14  C   UNL     1       5.396  14.448  18.251  0.00  0.00    +0.000 A 
ATOM     15  C   UNL     1       6.123  15.623  18.429  0.00  0.00    +0.000 A 
ATOM     16  C   UNL     1       5.429  16.811  18.583  0.00  0.00    +0.000 A 
ATOM     17  N   UNL     1       4.083  16.896  18.542  0.00  0.00    +0.000 NA
ATOM     18  C   UNL     1       3.406  15.736  18.375  0.00  0.00    +0.000 A 
ENDBRANCH   3  13
BRANCH   8  19
ATOM     19  C   UNL     1       1.255   6.823  20.357  0.00  0.00    +0.000 C 
BRANCH  19  20
ATOM     20  C   UNL     1       1.921   5.458  20.304  0.00  0.00    +0.000 A 
ATOM     21  C   UNL     1       1.170   4.283  20.437  0.00  0.00    +0.000 A 
ATOM     22  C   UNL     1       1.785   3.031  20.321  0.00  0.00    +0.000 A 
ATOM     23  C   UNL     1       3.147   2.941  20.017  0.00  0.00    +0.000 A 
ATOM     24  C   UNL     1       3.896   4.101  19.841  0.00  0.00    +0.000 A 
ATOM     25  C   UNL     1       3.294   5.344  20.048  0.00  0.00    +0.000 A 
BRANCH  24  26
ATOM     26  O   UNL     1       5.217   3.952  19.476  0.00  0.00    +0.000 OA
BRANCH  26  27
ATOM     27  C   UNL     1       5.566   4.121  18.151  0.00  0.00    +0.000 A 
ATOM     28  C   UNL     1       6.836   4.645  17.906  0.00  0.00    +0.000 A 
ATOM     29  C   UNL     1       7.256   4.882  16.592  0.00  0.00    +0.000 A 
ATOM     30  C   UNL     1       6.400   4.600  15.528  0.00  0.00    +0.000 A 
ATOM     31 CL   UNL     1       6.897   4.929  13.915  0.00  0.00    +0.000 Cl
ATOM     32  C   UNL     1       5.144   4.047  15.761  0.00  0.00    +0.000 A 
ATOM     33  C   UNL     1       4.744   3.774  17.070  0.00  0.00    +0.000 A 
ENDBRANCH  26  27
ENDBRANCH  24  26
ENDBRANCH  19  20
ENDBRANCH   8  19
TORSDOF 5
ENDMDL
MODEL 2
REMARK VINA RESULT:      -8.1      3.579      5.361
REMARK  Name = 
REMARK  5 active torsions:
REMARK  status: ('A' for Active; 'I' for Inactive)
REMARK    1  A    between atoms: N_3  and  C_4
REMARK    2  A    between atoms: N_14  and  C_15
REMARK    3  A    between atoms: C_15  and  C_16
REMARK    4  A    between atoms: C_20  and  O_21
REMARK    5  A    between atoms: O_21  and  C_22
REMARK                            x       y       z     vdW  Elec       q    Type
REMARK                         _______ _______ _______ _____ _____    ______ ____
ROOT
ATOM      1  O   UNL     1      -2.098  13.226  20.008  0.00  0.00    +0.000 OA
ATOM      2  C   UNL     1      -1.968  12.580  21.042  0.00  0.00    +0.000 C 
ATOM      3  N   UNL     1      -2.922  12.479  22.024  0.00  0.00    +0.000 N 
ATOM      4  N   UNL     1      -0.785  11.923  21.324  0.00  0.00    +0.000 N 
ATOM      5  C   UNL     1       0.329  12.074  20.405  0.00  0.00    +0.000 C 
ATOM      6  C   UNL     1       1.039  10.748  20.452  0.00  0.00    +0.000 C 
ATOM      7  C   UNL     1       0.374   9.689  19.591  0.00  0.00    +0.000 C 
ATOM      8  N   UNL     1       0.783   8.421  20.220  0.00  0.00    +0.000 NA
ATOM      9  C   UNL     1       0.900   8.698  21.670  0.00  0.00    +0.000 C 
ATOM     10  C   UNL     1       0.799  10.214  21.856  0.00  0.00    +0.000 C 
ATOM     11  C   UNL     1      -0.599  10.758  22.198  0.00  0.00    +0.000 C 
ATOM     12  H   UNL     1      -2.561  12.300  22.950  0.00  0.00    +0.000 HD
ENDROOT
BRANCH   3  13
ATOM     13  C   UNL     1      -4.221  13.033  21.936  0.00  0.00    +0.000 A 
ATOM     14  C   UNL     1      -5.253  12.463  21.189  0.00  0.00    +0.000 A 
ATOM     15  C   UNL     1      -6.493  13.094  21.117  0.00  0.00    +0.000 A 
ATOM     16  C   UNL     1      -6.669  14.282  21.807  0.00  0.00    +0.000 A 
ATOM     17  N   UNL     1      -5.710  14.849  22.568  0.00  0.00    +0.000 NA
ATOM     18  C   UNL     1      -4.515  14.214  22.611  0.00  0.00    +0.000 A 
ENDBRANCH   3  13
BRANCH   8  19
ATOM     19  C   UNL     1       2.045   7.915  19.640  0.00  0.00    +0.000 C 
BRANCH  19  20
ATOM     20  C   UNL     1       2.304   6.442  19.910  0.00  0.00    +0.000 A 
ATOM     21  C   UNL     1       1.286   5.604  20.382  0.00  0.00    +0.000 A 
ATOM     22  C   UNL     1       1.521   4.236  20.565  0.00  0.00    +0.000 A 
ATOM     23  C   UNL     1       2.758   3.683  20.225  0.00  0.00    +0.000 A 
ATOM     24  C   UNL     1       3.765   4.497  19.714  0.00  0.00    +0.000 A 
ATOM     25  C   UNL     1       3.553   5.873  19.621  0.00  0.00    +0.000 A 
BRANCH  24  26
ATOM     26  O   UNL     1       4.940   3.886  19.333  0.00  0.00    +0.000 OA
BRANCH  26  27
ATOM     27  C   UNL     1       5.413   4.089  18.051  0.00  0.00    +0.000 A 
ATOM     28  C   UNL     1       6.690   4.643  17.942  0.00  0.00    +0.000 A 
ATOM     29  C   UNL     1       7.229   4.917  16.680  0.00  0.00    +0.000 A 
ATOM     30  C   UNL     1       6.487   4.641  15.532  0.00  0.00    +0.000 A 
ATOM     31 CL   UNL     1       7.131   5.014  13.982  0.00  0.00    +0.000 Cl
ATOM     32  C   UNL     1       5.226   4.058  15.631  0.00  0.00    +0.000 A 
ATOM     33  C   UNL     1       4.707   3.749  16.889  0.00  0.00    +0.000 A 
ENDBRANCH  26  27
ENDBRANCH  24  26
ENDBRANCH  19  20
ENDBRANCH   8  19
TORSDOF 5
ENDMDL
MODEL 3
REMARK VINA RESULT:      -8.1      1.679      2.066
REMARK  Name = 
REMARK  5 active torsions:
REMARK  status: ('A' for Active; 'I' for Inactive)
REMARK    1  A    between atoms: N_3  and  C_4
REMARK    2  A    between atoms: N_14  and  C_15
REMARK    3  A    between atoms: C_15  and  C_16
REMARK    4  A    between atoms: C_20  and  O_21
REMARK    5  A    between atoms: O_21  and  C_22
REMARK                            x       y       z     vdW  Elec       q    Type
REMARK                         _______ _______ _______ _____ _____    ______ ____
ROOT
ATOM      1  O   UNL     1       0.544  12.874  19.967  0.00  0.00    +0.000 OA
ATOM      2  C   UNL     1       1.254  12.374  19.100  0.00  0.00    +0.000 C 
ATOM      3  N   UNL     1       2.252  13.039  18.431  0.00  0.00    +0.000 N 
ATOM      4  N   UNL     1       1.058  11.070  18.686  0.00  0.00    +0.000 N 
ATOM      5  C   UNL     1      -0.055  10.324  19.246  0.00  0.00    +0.000 C 
ATOM      6  C   UNL     1       0.440   8.905  19.319  0.00  0.00    +0.000 C 
ATOM      7  C   UNL     1       1.320   8.646  20.527  0.00  0.00    +0.000 C 
ATOM      8  N   UNL     1       2.156   7.505  20.112  0.00  0.00    +0.000 NA
ATOM      9  C   UNL     1       2.365   7.657  18.653  0.00  0.00    +0.000 C 
ATOM     10  C   UNL     1       1.427   8.765  18.170  0.00  0.00    +0.000 C 
ATOM     11  C   UNL     1       2.043  10.172  18.072  0.00  0.00    +0.000 C 
ATOM     12  H   UNL     1       2.453  12.684  17.508  0.00  0.00    +0.000 HD
ENDROOT
BRANCH   3  13
ATOM     13  C   UNL     1       2.658  14.364  18.713  0.00  0.00    +0.000 A 
ATOM     14  C   UNL     1       1.822  15.473  18.572  0.00  0.00    +0.000 A 
ATOM     15  C   UNL     1       2.312  16.752  18.829  0.00  0.00    +0.000 A 
ATOM     16  C   UNL     1       3.630  16.885  19.231  0.00  0.00    +0.000 A 
ATOM     17  N   UNL     1       4.461  15.838  19.414  0.00  0.00    +0.000 NA
ATOM     18  C   UNL     1       3.957  14.610  19.148  0.00  0.00    +0.000 A 
ENDBRANCH   3  13
BRANCH   8  19
ATOM     19  C   UNL     1       1.521   6.217  20.459  0.00  0.00    +0.000 C 
BRANCH  19  20
ATOM     20  C   UNL     1       2.447   5.018  20.339  0.00  0.00    +0.000 A 
ATOM     21  C   UNL     1       2.135   3.800  20.957  0.00  0.00    +0.000 A 
ATOM     22  C   UNL     1       2.963   2.684  20.785  0.00  0.00    +0.000 A 
ATOM     23  C   UNL     1       4.081   2.760  19.949  0.00  0.00    +0.000 A 
ATOM     24  C   UNL     1       4.378   3.952  19.295  0.00  0.00    +0.000 A 
ATOM     25  C   UNL     1       3.599   5.084  19.544  0.00  0.00    +0.000 A 
BRANCH  24  26
ATOM     26  O   UNL     1       5.452   3.950  18.431  0.00  0.00    +0.000 OA
BRANCH  26  27
ATOM     27  C   UNL     1       6.112   5.137  18.182  0.00  0.00    +0.000 A 
ATOM     28  C   UNL     1       7.254   5.384  18.944  0.00  0.00    +0.000 A 
ATOM     29  C   UNL     1       7.961   6.581  18.782  0.00  0.00    +0.000 A 
ATOM     30  C   UNL     1       7.517   7.529  17.861  0.00  0.00    +0.000 A 
ATOM     31 CL   UNL     1       8.360   9.018  17.688  0.00  0.00    +0.000 Cl
ATOM     32  C   UNL     1       6.398   7.277  17.073  0.00  0.00    +0.000 A 
ATOM     33  C   UNL     1       5.719   6.066  17.208  0.00  0.00    +0.000 A 
ENDBRANCH  26  27
ENDBRANCH  24  26
ENDBRANCH  19  20
ENDBRANCH   8  19
TORSDOF 5
ENDMDL
MODEL 4
REMARK VINA RESULT:      -8.1      1.113      1.534
REMARK  Name = 
REMARK  5 active torsions:
REMARK  status: ('A' for Active; 'I' for Inactive)
REMARK    1  A    between atoms: N_3  and  C_4
REMARK    2  A    between atoms: N_14  and  C_15
REMARK    3  A    between atoms: C_15  and  C_16
REMARK    4  A    between atoms: C_20  and  O_21
REMARK    5  A    between atoms: O_21  and  C_22
REMARK                            x       y       z     vdW  Elec       q    Type
REMARK                         _______ _______ _______ _____ _____    ______ ____
ROOT
ATOM      1  O   UNL     1       1.233  13.192  21.203  0.00  0.00    +0.000 OA
ATOM      2  C   UNL     1       1.620  12.735  20.132  0.00  0.00    +0.000 C 
ATOM      3  N   UNL     1       2.522  13.352  19.301  0.00  0.00    +0.000 N 
ATOM      4  N   UNL     1       1.117  11.542  19.647  0.00  0.00    +0.000 N 
ATOM      5  C   UNL     1       0.065  10.877  20.394  0.00  0.00    +0.000 C 
ATOM      6  C   UNL     1       0.323   9.409  20.182  0.00  0.00    +0.000 C 
ATOM      7  C   UNL     1       1.414   8.862  21.084  0.00  0.00    +0.000 C 
ATOM      8  N   UNL     1       1.925   7.694  20.344  0.00  0.00    +0.000 NA
ATOM      9  C   UNL     1       1.797   8.028  18.907  0.00  0.00    +0.000 C 
ATOM     10  C   UNL     1       0.966   9.309  18.807  0.00  0.00    +0.000 C 
ATOM     11  C   UNL     1       1.763  10.622  18.704  0.00  0.00    +0.000 C 
ATOM     12  H   UNL     1       2.432  13.112  18.325  0.00  0.00    +0.000 HD
ENDROOT
BRANCH   3  13
ATOM     13  C   UNL     1       3.197  14.557  19.609  0.00  0.00    +0.000 A 
ATOM     14  C   UNL     1       2.757  15.814  19.195  0.00  0.00    +0.000 A 
ATOM     15  C   UNL     1       3.502  16.951  19.502  0.00  0.00    +0.000 A 
ATOM     16  C   UNL     1       4.671  16.795  20.228  0.00  0.00    +0.000 A 
ATOM     17  N   UNL     1       5.115  15.603  20.677  0.00  0.00    +0.000 NA
ATOM     18  C   UNL     1       4.371  14.518  20.355  0.00  0.00    +0.000 A 
ENDBRANCH   3  13
BRANCH   8  19
ATOM     19  C   UNL     1       1.189   6.464  20.705  0.00  0.00    +0.000 C 
BRANCH  19  20
ATOM     20  C   UNL     1       1.887   5.180  20.289  0.00  0.00    +0.000 A 
ATOM     21  C   UNL     1       1.154   4.034  19.957  0.00  0.00    +0.000 A 
ATOM     22  C   UNL     1       1.807   2.878  19.513  0.00  0.00    +0.000 A 
ATOM     23  C   UNL     1       3.194   2.874  19.342  0.00  0.00    +0.000 A 
ATOM     24  C   UNL     1       3.930   4.021  19.627  0.00  0.00    +0.000 A 
ATOM     25  C   UNL     1       3.282   5.138  20.156  0.00  0.00    +0.000 A 
BRANCH  24  26
ATOM     26  O   UNL     1       5.285   3.982  19.376  0.00  0.00    +0.000 OA
BRANCH  26  27
ATOM     27  C   UNL     1       5.735   4.243  18.097  0.00  0.00    +0.000 A 
ATOM     28  C   UNL     1       4.807   4.081  17.067  0.00  0.00    +0.000 A 
ATOM     29  C   UNL     1       5.190   4.289  15.738  0.00  0.00    +0.000 A 
ATOM     30  C   UNL     1       6.504   4.651  15.443  0.00  0.00    +0.000 A 
ATOM     31 CL   UNL     1       6.989   4.867  13.807  0.00  0.00    +0.000 Cl
ATOM     32  C   UNL     1       7.429   4.847  16.466  0.00  0.00    +0.000 A 
ATOM     33  C   UNL     1       7.032   4.678  17.793  0.00  0.00    +0.000 A 
ENDBRANCH  26  27
ENDBRANCH  24  26
ENDBRANCH  19  20
ENDBRANCH   8  19
TORSDOF 5
ENDMDL
MODEL 5
REMARK VINA RESULT:      -8.0      3.713      6.183
REMARK  Name = 
REMARK  5 active torsions:
REMARK  status: ('A' for Active; 'I' for Inactive)
REMARK    1  A    between atoms: N_3  and  C_4
REMARK    2  A    between atoms: N_14  and  C_15
REMARK    3  A    between atoms: C_15  and  C_16
REMARK    4  A    between atoms: C_20  and  O_21
REMARK    5  A    between atoms: O_21  and  C_22
REMARK                            x       y       z     vdW  Elec       q    Type
REMARK                         _______ _______ _______ _____ _____    ______ ____
ROOT
ATOM      1  O   UNL     1      -1.187  12.561  17.834  0.00  0.00    +0.000 OA
ATOM      2  C   UNL     1      -1.331  11.639  18.630  0.00  0.00    +0.000 C 
ATOM      3  N   UNL     1      -2.544  11.169  19.069  0.00  0.00    +0.000 N 
ATOM      4  N   UNL     1      -0.236  11.016  19.200  0.00  0.00    +0.000 N 
ATOM      5  C   UNL     1       1.089  11.525  18.894  0.00  0.00    +0.000 C 
ATOM      6  C   UNL     1       1.971  10.305  18.893  0.00  0.00    +0.000 C 
ATOM      7  C   UNL     1       1.892   9.519  17.598  0.00  0.00    +0.000 C 
ATOM      8  N   UNL     1       2.273   8.152  17.996  0.00  0.00    +0.000 NA
ATOM      9  C   UNL     1       1.784   7.975  19.383  0.00  0.00    +0.000 C 
ATOM     10  C   UNL     1       1.332   9.348  19.887  0.00  0.00    +0.000 C 
ATOM     11  C   UNL     1      -0.169   9.655  19.746  0.00  0.00    +0.000 C 
ATOM     12  H   UNL     1      -2.528  10.740  19.982  0.00  0.00    +0.000 HD
ENDROOT
BRANCH   3  13
ATOM     13  C   UNL     1      -3.796  11.625  18.594  0.00  0.00    +0.000 A 
ATOM     14  C   UNL     1      -4.263  11.389  17.301  0.00  0.00    +0.000 A 
ATOM     15  C   UNL     1      -5.490  11.911  16.896  0.00  0.00    +0.000 A 
ATOM     16  C   UNL     1      -6.224  12.652  17.807  0.00  0.00    +0.000 A 
ATOM     17  N   UNL     1      -5.827  12.874  19.076  0.00  0.00    +0.000 NA
ATOM     18  C   UNL     1      -4.626  12.360  19.436  0.00  0.00    +0.000 A 
ENDBRANCH   3  13
BRANCH   8  19
ATOM     19  C   UNL     1       3.732   7.945  17.883  0.00  0.00    +0.000 C 
BRANCH  19  20
ATOM     20  C   UNL     1       4.122   6.667  17.159  0.00  0.00    +0.000 A 
ATOM     21  C   UNL     1       5.136   6.664  16.192  0.00  0.00    +0.000 A 
ATOM     22  C   UNL     1       5.529   5.468  15.581  0.00  0.00    +0.000 A 
ATOM     23  C   UNL     1       4.952   4.255  15.968  0.00  0.00    +0.000 A 
ATOM     24  C   UNL     1       3.973   4.239  16.958  0.00  0.00    +0.000 A 
ATOM     25  C   UNL     1       3.523   5.445  17.497  0.00  0.00    +0.000 A 
BRANCH  24  26
ATOM     26  O   UNL     1       3.488   3.009  17.348  0.00  0.00    +0.000 OA
BRANCH  26  27
ATOM     27  C   UNL     1       2.827   2.904  18.556  0.00  0.00    +0.000 A 
ATOM     28  C   UNL     1       3.626   2.737  19.687  0.00  0.00    +0.000 A 
ATOM     29  C   UNL     1       3.035   2.584  20.946  0.00  0.00    +0.000 A 
ATOM     30  C   UNL     1       1.646   2.593  21.068  0.00  0.00    +0.000 A 
ATOM     31 CL   UNL     1       0.917   2.366  22.608  0.00  0.00    +0.000 Cl
ATOM     32  C   UNL     1       0.842   2.792  19.949  0.00  0.00    +0.000 A 
ATOM     33  C   UNL     1       1.435   2.985  18.700  0.00  0.00    +0.000 A 
ENDBRANCH  26  27
ENDBRANCH  24  26
ENDBRANCH  19  20
ENDBRANCH   8  19
TORSDOF 5
ENDMDL
MODEL 6
REMARK VINA RESULT:      -7.9      2.008      2.281
REMARK  Name = 
REMARK  5 active torsions:
REMARK  status: ('A' for Active; 'I' for Inactive)
REMARK    1  A    between atoms: N_3  and  C_4
REMARK    2  A    between atoms: N_14  and  C_15
REMARK    3  A    between atoms: C_15  and  C_16
REMARK    4  A    between atoms: C_20  and  O_21
REMARK    5  A    between atoms: O_21  and  C_22
REMARK                            x       y       z     vdW  Elec       q    Type
REMARK                         _______ _______ _______ _____ _____    ______ ____
ROOT
ATOM      1  O   UNL     1       1.141  12.792  21.271  0.00  0.00    +0.000 OA
ATOM      2  C   UNL     1       1.516  12.477  20.147  0.00  0.00    +0.000 C 
ATOM      3  N   UNL     1       2.318  13.252  19.347  0.00  0.00    +0.000 N 
ATOM      4  N   UNL     1       1.101  11.293  19.565  0.00  0.00    +0.000 N 
ATOM      5  C   UNL     1       0.150  10.463  20.283  0.00  0.00    +0.000 C 
ATOM      6  C   UNL     1       0.530   9.053  19.918  0.00  0.00    +0.000 C 
ATOM      7  C   UNL     1       1.707   8.530  20.719  0.00  0.00    +0.000 C 
ATOM      8  N   UNL     1       2.286   7.490  19.849  0.00  0.00    +0.000 NA
ATOM      9  C   UNL     1       2.060   7.945  18.457  0.00  0.00    +0.000 C 
ATOM     10  C   UNL     1       1.113   9.146  18.516  0.00  0.00    +0.000 C 
ATOM     11  C   UNL     1       1.783  10.531  18.512  0.00  0.00    +0.000 C 
ATOM     12  H   UNL     1       2.205  13.099  18.356  0.00  0.00    +0.000 HD
ENDROOT
BRANCH   3  13
ATOM     13  C   UNL     1       2.895  14.481  19.746  0.00  0.00    +0.000 A 
ATOM     14  C   UNL     1       3.943  14.580  20.661  0.00  0.00    +0.000 A 
ATOM     15  C   UNL     1       4.427  15.832  21.035  0.00  0.00    +0.000 A 
ATOM     16  C   UNL     1       3.849  16.958  20.472  0.00  0.00    +0.000 A 
ATOM     17  N   UNL     1       2.858  16.906  19.558  0.00  0.00    +0.000 NA
ATOM     18  C   UNL     1       2.406  15.675  19.221  0.00  0.00    +0.000 A 
ENDBRANCH   3  13
BRANCH   8  19
ATOM     19  C   UNL     1       1.682   6.168  20.114  0.00  0.00    +0.000 C 
BRANCH  19  20
ATOM     20  C   UNL     1       2.206   5.057  19.218  0.00  0.00    +0.000 A 
ATOM     21  C   UNL     1       1.411   3.947  18.904  0.00  0.00    +0.000 A 
ATOM     22  C   UNL     1       1.881   2.964  18.026  0.00  0.00    +0.000 A 
ATOM     23  C   UNL     1       3.127   3.108  17.410  0.00  0.00    +0.000 A 
ATOM     24  C   UNL     1       3.909   4.228  17.680  0.00  0.00    +0.000 A 
ATOM     25  C   UNL     1       3.472   5.157  18.625  0.00  0.00    +0.000 A 
BRANCH  24  26
ATOM     26  O   UNL     1       5.097   4.351  16.992  0.00  0.00    +0.000 OA
BRANCH  26  27
ATOM     27  C   UNL     1       5.958   5.378  17.326  0.00  0.00    +0.000 A 
ATOM     28  C   UNL     1       6.870   5.116  18.350  0.00  0.00    +0.000 A 
ATOM     29  C   UNL     1       7.752   6.114  18.775  0.00  0.00    +0.000 A 
ATOM     30  C   UNL     1       7.716   7.374  18.178  0.00  0.00    +0.000 A 
ATOM     31 CL   UNL     1       8.772   8.615  18.727  0.00  0.00    +0.000 Cl
ATOM     32  C   UNL     1       6.833   7.634  17.134  0.00  0.00    +0.000 A 
ATOM     33  C   UNL     1       5.981   6.624  16.685  0.00  0.00    +0.000 A 
ENDBRANCH  26  27
ENDBRANCH  24  26
ENDBRANCH  19  20
ENDBRANCH   8  19
TORSDOF 5
ENDMDL
MODEL 7
REMARK VINA RESULT:      -7.9      1.628      1.904
REMARK  Name = 
REMARK  5 active torsions:
REMARK  status: ('A' for Active; 'I' for Inactive)
REMARK    1  A    between atoms: N_3  and  C_4
REMARK    2  A    between atoms: N_14  and  C_15
REMARK    3  A    between atoms: C_15  and  C_16
REMARK    4  A    between atoms: C_20  and  O_21
REMARK    5  A    between atoms: O_21  and  C_22
REMARK                            x       y       z     vdW  Elec       q    Type
REMARK                         _______ _______ _______ _____ _____    ______ ____
ROOT
ATOM      1  O   UNL     1       1.774  13.273  21.451  0.00  0.00    +0.000 OA
ATOM      2  C   UNL     1       1.834  12.816  20.314  0.00  0.00    +0.000 C 
ATOM      3  N   UNL     1       2.486  13.417  19.265  0.00  0.00    +0.000 N 
ATOM      4  N   UNL     1       1.180  11.644  19.985  0.00  0.00    +0.000 N 
ATOM      5  C   UNL     1       0.359  11.000  20.995  0.00  0.00    +0.000 C 
ATOM      6  C   UNL     1       0.504   9.528  20.716  0.00  0.00    +0.000 C 
ATOM      7  C   UNL     1       1.786   8.942  21.277  0.00  0.00    +0.000 C 
ATOM      8  N   UNL     1       2.036   7.767  20.422  0.00  0.00    +0.000 NA
ATOM      9  C   UNL     1       1.522   8.119  19.078  0.00  0.00    +0.000 C 
ATOM     10  C   UNL     1       0.735   9.424  19.216  0.00  0.00    +0.000 C 
ATOM     11  C   UNL     1       1.511  10.715  18.898  0.00  0.00    +0.000 C 
ATOM     12  H   UNL     1       2.121  13.189  18.353  0.00  0.00    +0.000 HD
ENDROOT
BRANCH   3  13
ATOM     13  C   UNL     1       3.255  14.599  19.375  0.00  0.00    +0.000 A 
ATOM     14  C   UNL     1       4.454  14.676  20.085  0.00  0.00    +0.000 A 
ATOM     15  C   UNL     1       5.130  15.891  20.182  0.00  0.00    +0.000 A 
ATOM     16  C   UNL     1       4.588  16.999  19.554  0.00  0.00    +0.000 A 
ATOM     17  N   UNL     1       3.451  16.961  18.829  0.00  0.00    +0.000 NA
ATOM     18  C   UNL     1       2.814  15.768  18.761  0.00  0.00    +0.000 A 
ENDBRANCH   3  13
BRANCH   8  19
ATOM     19  C   UNL     1       1.393   6.555  20.971  0.00  0.00    +0.000 C 
BRANCH  19  20
ATOM     20  C   UNL     1       1.780   5.271  20.256  0.00  0.00    +0.000 A 
ATOM     21  C   UNL     1       0.831   4.274  19.996  0.00  0.00    +0.000 A 
ATOM     22  C   UNL     1       1.185   3.126  19.278  0.00  0.00    +0.000 A 
ATOM     23  C   UNL     1       2.478   2.988  18.766  0.00  0.00    +0.000 A 
ATOM     24  C   UNL     1       3.420   3.991  18.979  0.00  0.00    +0.000 A 
ATOM     25  C   UNL     1       3.084   5.089  19.773  0.00  0.00    +0.000 A 
BRANCH  24  26
ATOM     26  O   UNL     1       4.657   3.833  18.393  0.00  0.00    +0.000 OA
BRANCH  26  27
ATOM     27  C   UNL     1       5.480   4.934  18.262  0.00  0.00    +0.000 A 
ATOM     28  C   UNL     1       5.122   5.864  17.285  0.00  0.00    +0.000 A 
ATOM     29  C   UNL     1       5.922   6.989  17.061  0.00  0.00    +0.000 A 
ATOM     30  C   UNL     1       7.082   7.178  17.812  0.00  0.00    +0.000 A 
ATOM     31 CL   UNL     1       8.088   8.539  17.511  0.00  0.00    +0.000 Cl
ATOM     32  C   UNL     1       7.429   6.273  18.812  0.00  0.00    +0.000 A 
ATOM     33  C   UNL     1       6.607   5.173  19.060  0.00  0.00    +0.000 A 
ENDBRANCH  26  27
ENDBRANCH  24  26
ENDBRANCH  19  20
ENDBRANCH   8  19
TORSDOF 5
ENDMDL
MODEL 8
REMARK VINA RESULT:      -7.9      3.674      5.537
REMARK  Name = 
REMARK  5 active torsions:
REMARK  status: ('A' for Active; 'I' for Inactive)
REMARK    1  A    between atoms: N_3  and  C_4
REMARK    2  A    between atoms: N_14  and  C_15
REMARK    3  A    between atoms: C_15  and  C_16
REMARK    4  A    between atoms: C_20  and  O_21
REMARK    5  A    between atoms: O_21  and  C_22
REMARK                            x       y       z     vdW  Elec       q    Type
REMARK                         _______ _______ _______ _____ _____    ______ ____
ROOT
ATOM      1  O   UNL     1      -2.152  13.271  20.288  0.00  0.00    +0.000 OA
ATOM      2  C   UNL     1      -1.996  12.622  21.317  0.00  0.00    +0.000 C 
ATOM      3  N   UNL     1      -2.917  12.535  22.332  0.00  0.00    +0.000 N 
ATOM      4  N   UNL     1      -0.814  11.946  21.558  0.00  0.00    +0.000 N 
ATOM      5  C   UNL     1       0.269  12.081  20.600  0.00  0.00    +0.000 C 
ATOM      6  C   UNL     1       0.959  10.743  20.622  0.00  0.00    +0.000 C 
ATOM      7  C   UNL     1       0.248   9.696  19.784  0.00  0.00    +0.000 C 
ATOM      8  N   UNL     1       0.659   8.420  20.397  0.00  0.00    +0.000 NA
ATOM      9  C   UNL     1       0.830   8.694  21.843  0.00  0.00    +0.000 C 
ATOM     10  C   UNL     1       0.760  10.211  22.033  0.00  0.00    +0.000 C 
ATOM     11  C   UNL     1      -0.617  10.777  22.423  0.00  0.00    +0.000 C 
ATOM     12  H   UNL     1      -2.527  12.349  23.244  0.00  0.00    +0.000 HD
ENDROOT
BRANCH   3  13
ATOM     13  C   UNL     1      -4.209  13.109  22.289  0.00  0.00    +0.000 A 
ATOM     14  C   UNL     1      -4.635  14.116  23.155  0.00  0.00    +0.000 A 
ATOM     15  C   UNL     1      -5.940  14.598  23.077  0.00  0.00    +0.000 A 
ATOM     16  C   UNL     1      -6.785  14.061  22.120  0.00  0.00    +0.000 A 
ATOM     17  N   UNL     1      -6.404  13.112  21.240  0.00  0.00    +0.000 NA
ATOM     18  C   UNL     1      -5.132  12.659  21.348  0.00  0.00    +0.000 A 
ENDBRANCH   3  13
BRANCH   8  19
ATOM     19  C   UNL     1       1.892   7.896  19.773  0.00  0.00    +0.000 C 
BRANCH  19  20
ATOM     20  C   UNL     1       2.148   6.424  20.051  0.00  0.00    +0.000 A 
ATOM     21  C   UNL     1       1.138   5.598  20.562  0.00  0.00    +0.000 A 
ATOM     22  C   UNL     1       1.368   4.231  20.751  0.00  0.00    +0.000 A 
ATOM     23  C   UNL     1       2.591   3.664  20.382  0.00  0.00    +0.000 A 
ATOM     24  C   UNL     1       3.589   4.466  19.833  0.00  0.00    +0.000 A 
ATOM     25  C   UNL     1       3.384   5.843  19.732  0.00  0.00    +0.000 A 
BRANCH  24  26
ATOM     26  O   UNL     1       4.748   3.842  19.424  0.00  0.00    +0.000 OA
BRANCH  26  27
ATOM     27  C   UNL     1       5.320   4.217  18.225  0.00  0.00    +0.000 A 
ATOM     28  C   UNL     1       4.556   4.000  17.078  0.00  0.00    +0.000 A 
ATOM     29  C   UNL     1       5.076   4.316  15.818  0.00  0.00    +0.000 A 
ATOM     30  C   UNL     1       6.363   4.843  15.710  0.00  0.00    +0.000 A 
ATOM     31 CL   UNL     1       7.019   5.195  14.161  0.00  0.00    +0.000 Cl
ATOM     32  C   UNL     1       7.120   5.094  16.851  0.00  0.00    +0.000 A 
ATOM     33  C   UNL     1       6.583   4.816  18.109  0.00  0.00    +0.000 A 
ENDBRANCH  26  27
ENDBRANCH  24  26
ENDBRANCH  19  20
ENDBRANCH   8  19
TORSDOF 5
ENDMDL
MODEL 9
REMARK VINA RESULT:      -7.8      1.766      1.887
REMARK  Name = 
REMARK  5 active torsions:
REMARK  status: ('A' for Active; 'I' for Inactive)
REMARK    1  A    between atoms: N_3  and  C_4
REMARK    2  A    between atoms: N_14  and  C_15
REMARK    3  A    between atoms: C_15  and  C_16
REMARK    4  A    between atoms: C_20  and  O_21
REMARK    5  A    between atoms: O_21  and  C_22
REMARK                            x       y       z     vdW  Elec       q    Type
REMARK                         _______ _______ _______ _____ _____    ______ ____
ROOT
ATOM      1  O   UNL     1       0.627  12.955  21.829  0.00  0.00    +0.000 OA
ATOM      2  C   UNL     1       1.114  12.713  20.730  0.00  0.00    +0.000 C 
ATOM      3  N   UNL     1       1.983  13.542  20.063  0.00  0.00    +0.000 N 
ATOM      4  N   UNL     1       0.770  11.568  20.037  0.00  0.00    +0.000 N 
ATOM      5  C   UNL     1      -0.238  10.690  20.603  0.00  0.00    +0.000 C 
ATOM      6  C   UNL     1       0.190   9.308  20.189  0.00  0.00    +0.000 C 
ATOM      7  C   UNL     1       1.287   8.739  21.068  0.00  0.00    +0.000 C 
ATOM      8  N   UNL     1       1.960   7.759  20.196  0.00  0.00    +0.000 NA
ATOM      9  C   UNL     1       1.868   8.301  18.820  0.00  0.00    +0.000 C 
ATOM     10  C   UNL     1       0.907   9.492  18.860  0.00  0.00    +0.000 C 
ATOM     11  C   UNL     1       1.560  10.877  19.010  0.00  0.00    +0.000 C 
ATOM     12  H   UNL     1       1.969  13.451  19.059  0.00  0.00    +0.000 HD
ENDROOT
BRANCH   3  13
ATOM     13  C   UNL     1       2.505  14.745  20.594  0.00  0.00    +0.000 A 
ATOM     14  C   UNL     1       2.281  15.999  20.027  0.00  0.00    +0.000 A 
ATOM     15  C   UNL     1       2.867  17.133  20.586  0.00  0.00    +0.000 A 
ATOM     16  C   UNL     1       3.660  16.979  21.710  0.00  0.00    +0.000 A 
ATOM     17  N   UNL     1       3.875  15.790  22.311  0.00  0.00    +0.000 NA
ATOM     18  C   UNL     1       3.297  14.707  21.738  0.00  0.00    +0.000 A 
ENDBRANCH   3  13
BRANCH   8  19
ATOM     19  C   UNL     1       1.346   6.420  20.316  0.00  0.00    +0.000 C 
BRANCH  19  20
ATOM     20  C   UNL     1       2.345   5.275  20.270  0.00  0.00    +0.000 A 
ATOM     21  C   UNL     1       1.967   3.972  20.619  0.00  0.00    +0.000 A 
ATOM     22  C   UNL     1       2.878   2.916  20.510  0.00  0.00    +0.000 A 
ATOM     23  C   UNL     1       4.159   3.141  19.997  0.00  0.00    +0.000 A 
ATOM     24  C   UNL     1       4.533   4.423  19.606  0.00  0.00    +0.000 A 
ATOM     25  C   UNL     1       3.650   5.486  19.804  0.00  0.00    +0.000 A 
BRANCH  24  26
ATOM     26  O   UNL     1       5.783   4.575  19.045  0.00  0.00    +0.000 OA
BRANCH  26  27
ATOM     27  C   UNL     1       5.921   4.447  17.676  0.00  0.00    +0.000 A 
ATOM     28  C   UNL     1       7.179   4.743  17.149  0.00  0.00    +0.000 A 
ATOM     29  C   UNL     1       7.394   4.675  15.769  0.00  0.00    +0.000 A 
ATOM     30  C   UNL     1       6.347   4.317  14.919  0.00  0.00    +0.000 A 
ATOM     31 CL   UNL     1       6.598   4.273  13.219  0.00  0.00    +0.000 Cl
ATOM     32  C   UNL     1       5.098   3.988  15.439  0.00  0.00    +0.000 A 
ATOM     33  C   UNL     1       4.898   4.017  16.820  0.00  0.00    +0.000 A 
ENDBRANCH  26  27
ENDBRANCH  24  26
ENDBRANCH  19  20
ENDBRANCH   8  19
TORSDOF 5
ENDMDL
