MODEL 1
REMARK VINA RESULT:      -8.0      0.000      0.000
REMARK  Name = 
REMARK  7 active torsions:
REMARK  status: ('A' for Active; 'I' for Inactive)
REMARK    1  A    between atoms: C_1  and  C_2
REMARK    2  A    between atoms: C_2  and  C_3
REMARK    3  A    between atoms: C_3  and  O_4
REMARK    4  A    between atoms: O_4  and  C_5
REMARK    5  A    between atoms: C_8  and  N_9
REMARK    6  A    between atoms: C_11  and  C_12
REMARK    7  A    between atoms: N_14  and  C_15
REMARK                            x       y       z     vdW  Elec       q    Type
REMARK                         _______ _______ _______ _____ _____    ______ ____
ROOT
ATOM      1  N   UNL     1       2.992   5.874  18.896  0.00  0.00    +0.000 N 
ATOM      2  C   UNL     1       4.219   5.583  19.611  0.00  0.00    +0.000 C 
ATOM      3  C   UNL     1       4.675   4.245  19.065  0.00  0.00    +0.000 C 
ATOM      4  C   UNL     1       3.401   3.567  18.590  0.00  0.00    +0.000 C 
ATOM      5  C   UNL     1       2.468   4.711  18.298  0.00  0.00    +0.000 C 
ATOM      6  O   UNL     1       1.443   4.560  17.648  0.00  0.00    +0.000 OA
ENDROOT
BRANCH   1  10
ATOM      7  C   UNL     1       1.055   9.657  19.262  0.00  0.00    +0.000 A 
ATOM      8  C   UNL     1       1.199   8.809  20.356  0.00  0.00    +0.000 A 
ATOM      9  C   UNL     1       1.818   7.568  20.221  0.00  0.00    +0.000 A 
ATOM     10  C   UNL     1       2.322   7.127  18.995  0.00  0.00    +0.000 A 
ATOM     11  C   UNL     1       2.159   7.978  17.889  0.00  0.00    +0.000 A 
ATOM     12  C   UNL     1       1.524   9.226  18.022  0.00  0.00    +0.000 A 
BRANCH   7  13
ATOM     13  O   UNL     1       0.485  10.904  19.311  0.00  0.00    +0.000 OA
BRANCH  13  14
ATOM     14  C   UNL     1      -0.947  10.896  19.305  0.00  0.00    +0.000 C 
BRANCH  14  16
ATOM     15  C   UNL     1      -2.089  10.013  17.274  0.00  0.00    +0.000 C 
ATOM     16  C   UNL     1      -1.488  11.248  17.928  0.00  0.00    +0.000 C 
ENDBRANCH  14  16
ENDBRANCH  13  14
ENDBRANCH   7  13
ENDBRANCH   1  10
BRANCH   3  17
ATOM     17  C   UNL     1       5.677   4.351  17.924  0.00  0.00    +0.000 C 
ATOM     18  O   UNL     1       6.881   4.352  18.155  0.00  0.00    +0.000 OA
ATOM     19  N   UNL     1       5.121   4.409  16.665  0.00  0.00    +0.000 N 
ATOM     20  H   UNL     1       4.148   4.678  16.572  0.00  0.00    +0.000 HD
BRANCH  19  21
ATOM     21  C   UNL     1       5.814   4.250  15.454  0.00  0.00    +0.000 A 
ATOM     22  C   UNL     1       5.290   3.519  14.367  0.00  0.00    +0.000 A 
ATOM     23  C   UNL     1       5.879   3.612  13.100  0.00  0.00    +0.000 A 
ATOM     24  C   UNL     1       6.978   4.435  12.972  0.00  0.00    +0.000 A 
ATOM     25  C   UNL     1       7.537   5.071  14.058  0.00  0.00    +0.000 A 
ATOM     26  C   UNL     1       6.989   4.993  15.312  0.00  0.00    +0.000 A 
ATOM     27  O   UNL     1       8.589   5.865  13.707  0.00  0.00    +0.000 OA
ATOM     28  C   UNL     1       8.337   5.942  12.291  0.00  0.00    +0.000 C 
ATOM     29  O   UNL     1       7.584   4.808  11.809  0.00  0.00    +0.000 OA
ENDBRANCH  19  21
ENDBRANCH   3  17
TORSDOF 6
ENDMDL
MODEL 2
REMARK VINA RESULT:      -8.0      2.126      9.257
REMARK  Name = 
REMARK  7 active torsions:
REMARK  status: ('A' for Active; 'I' for Inactive)
REMARK    1  A    between atoms: C_1  and  C_2
REMARK    2  A    between atoms: C_2  and  C_3
REMARK    3  A    between atoms: C_3  and  O_4
REMARK    4  A    between atoms: O_4  and  C_5
REMARK    5  A    between atoms: C_8  and  N_9
REMARK    6  A    between atoms: C_11  and  C_12
REMARK    7  A    between atoms: N_14  and  C_15
REMARK                            x       y       z     vdW  Elec       q    Type
REMARK                         _______ _______ _______ _____ _____    ______ ____
ROOT
ATOM      1  N   UNL     1       4.024   5.243  18.002  0.00  0.00    +0.000 N 
ATOM      2  C   UNL     1       2.575   5.295  18.032  0.00  0.00    +0.000 C 
ATOM      3  C   UNL     1       2.237   5.795  19.422  0.00  0.00    +0.000 C 
ATOM      4  C   UNL     1       3.416   5.376  20.282  0.00  0.00    +0.000 C 
ATOM      5  C   UNL     1       4.556   5.268  19.306  0.00  0.00    +0.000 C 
ATOM      6  O   UNL     1       5.721   5.210  19.675  0.00  0.00    +0.000 OA
ENDROOT
BRANCH   1  10
ATOM      7  C   UNL     1       6.152   4.387  14.406  0.00  0.00    +0.000 A 
ATOM      8  C   UNL     1       5.787   3.375  15.288  0.00  0.00    +0.000 A 
ATOM      9  C   UNL     1       5.107   3.668  16.469  0.00  0.00    +0.000 A 
ATOM     10  C   UNL     1       4.759   4.977  16.812  0.00  0.00    +0.000 A 
ATOM     11  C   UNL     1       5.145   5.998  15.927  0.00  0.00    +0.000 A 
ATOM     12  C   UNL     1       5.842   5.704  14.741  0.00  0.00    +0.000 A 
BRANCH   7  13
ATOM     13  O   UNL     1       6.797   4.186  13.211  0.00  0.00    +0.000 OA
BRANCH  13  14
ATOM     14  C   UNL     1       6.116   3.297  12.319  0.00  0.00    +0.000 C 
BRANCH  14  16
ATOM     15  C   UNL     1       3.953   2.875  11.156  0.00  0.00    +0.000 C 
ATOM     16  C   UNL     1       4.852   3.939  11.770  0.00  0.00    +0.000 C 
ENDBRANCH  14  16
ENDBRANCH  13  14
ENDBRANCH   7  13
ENDBRANCH   1  10
BRANCH   3  17
ATOM     17  C   UNL     1       2.027   7.300  19.504  0.00  0.00    +0.000 C 
ATOM     18  O   UNL     1       2.249   8.010  18.530  0.00  0.00    +0.000 OA
ATOM     19  N   UNL     1       1.553   7.757  20.714  0.00  0.00    +0.000 N 
ATOM     20  H   UNL     1       1.656   7.168  21.533  0.00  0.00    +0.000 HD
BRANCH  19  21
ATOM     21  C   UNL     1       1.038   9.039  20.962  0.00  0.00    +0.000 A 
ATOM     22  C   UNL     1       0.869  10.002  19.944  0.00  0.00    +0.000 A 
ATOM     23  C   UNL     1       0.108  11.155  20.178  0.00  0.00    +0.000 A 
ATOM     24  C   UNL     1      -0.452  11.300  21.429  0.00  0.00    +0.000 A 
ATOM     25  C   UNL     1      -0.204  10.401  22.444  0.00  0.00    +0.000 A 
ATOM     26  C   UNL     1       0.542   9.268  22.248  0.00  0.00    +0.000 A 
ATOM     27  O   UNL     1      -0.885  10.708  23.584  0.00  0.00    +0.000 OA
ATOM     28  C   UNL     1      -1.845  11.622  23.022  0.00  0.00    +0.000 C 
ATOM     29  O   UNL     1      -1.365  12.239  21.808  0.00  0.00    +0.000 OA
ENDBRANCH  19  21
ENDBRANCH   3  17
TORSDOF 6
ENDMDL
MODEL 3
REMARK VINA RESULT:      -7.9      1.986      9.408
REMARK  Name = 
REMARK  7 active torsions:
REMARK  status: ('A' for Active; 'I' for Inactive)
REMARK    1  A    between atoms: C_1  and  C_2
REMARK    2  A    between atoms: C_2  and  C_3
REMARK    3  A    between atoms: C_3  and  O_4
REMARK    4  A    between atoms: O_4  and  C_5
REMARK    5  A    between atoms: C_8  and  N_9
REMARK    6  A    between atoms: C_11  and  C_12
REMARK    7  A    between atoms: N_14  and  C_15
REMARK                            x       y       z     vdW  Elec       q    Type
REMARK                         _______ _______ _______ _____ _____    ______ ____
ROOT
ATOM      1  N   UNL     1       4.496   5.024  17.587  0.00  0.00    +0.000 N 
ATOM      2  C   UNL     1       3.049   5.030  17.678  0.00  0.00    +0.000 C 
ATOM      3  C   UNL     1       2.755   5.453  19.104  0.00  0.00    +0.000 C 
ATOM      4  C   UNL     1       3.981   5.031  19.893  0.00  0.00    +0.000 C 
ATOM      5  C   UNL     1       5.082   5.004  18.868  0.00  0.00    +0.000 C 
ATOM      6  O   UNL     1       6.262   4.964  19.186  0.00  0.00    +0.000 OA
ENDROOT
BRANCH   1  10
ATOM      7  C   UNL     1       6.651   4.435  13.954  0.00  0.00    +0.000 A 
ATOM      8  C   UNL     1       7.112   5.306  14.936  0.00  0.00    +0.000 A 
ATOM      9  C   UNL     1       6.391   5.504  16.111  0.00  0.00    +0.000 A 
ATOM     10  C   UNL     1       5.188   4.838  16.357  0.00  0.00    +0.000 A 
ATOM     11  C   UNL     1       4.717   3.972  15.355  0.00  0.00    +0.000 A 
ATOM     12  C   UNL     1       5.438   3.781  14.163  0.00  0.00    +0.000 A 
BRANCH   7  13
ATOM     13  O   UNL     1       7.310   4.161  12.782  0.00  0.00    +0.000 OA
BRANCH  13  14
ATOM     14  C   UNL     1       6.537   3.416  11.834  0.00  0.00    +0.000 C 
BRANCH  14  16
ATOM     15  C   UNL     1       6.429   1.045  11.075  0.00  0.00    +0.000 C 
ATOM     16  C   UNL     1       7.337   2.249  11.276  0.00  0.00    +0.000 C 
ENDBRANCH  14  16
ENDBRANCH  13  14
ENDBRANCH   7  13
ENDBRANCH   1  10
BRANCH   3  17
ATOM     17  C   UNL     1       2.506   6.946  19.266  0.00  0.00    +0.000 C 
ATOM     18  O   UNL     1       2.883   7.735  18.407  0.00  0.00    +0.000 OA
ATOM     19  N   UNL     1       1.816   7.300  20.405  0.00  0.00    +0.000 N 
ATOM     20  H   UNL     1       1.784   6.647  21.180  0.00  0.00    +0.000 HD
BRANCH  19  21
ATOM     21  C   UNL     1       1.242   8.555  20.660  0.00  0.00    +0.000 A 
ATOM     22  C   UNL     1       0.728   9.380  19.635  0.00  0.00    +0.000 A 
ATOM     23  C   UNL     1      -0.073  10.485  19.949  0.00  0.00    +0.000 A 
ATOM     24  C   UNL     1      -0.325  10.724  21.283  0.00  0.00    +0.000 A 
ATOM     25  C   UNL     1       0.256   9.970  22.278  0.00  0.00    +0.000 A 
ATOM     26  C   UNL     1       1.051   8.887  22.003  0.00  0.00    +0.000 A 
ATOM     27  O   UNL     1      -0.157  10.348  23.521  0.00  0.00    +0.000 OA
ATOM     28  C   UNL     1      -1.318  11.110  23.140  0.00  0.00    +0.000 C 
ATOM     29  O   UNL     1      -1.215  11.622  21.794  0.00  0.00    +0.000 OA
ENDBRANCH  19  21
ENDBRANCH   3  17
TORSDOF 6
ENDMDL
MODEL 4
REMARK VINA RESULT:      -7.6      1.088      1.665
REMARK  Name = 
REMARK  7 active torsions:
REMARK  status: ('A' for Active; 'I' for Inactive)
REMARK    1  A    between atoms: C_1  and  C_2
REMARK    2  A    between atoms: C_2  and  C_3
REMARK    3  A    between atoms: C_3  and  O_4
REMARK    4  A    between atoms: O_4  and  C_5
REMARK    5  A    between atoms: C_8  and  N_9
REMARK    6  A    between atoms: C_11  and  C_12
REMARK    7  A    between atoms: N_14  and  C_15
REMARK                            x       y       z     vdW  Elec       q    Type
REMARK                         _______ _______ _______ _____ _____    ______ ____
ROOT
ATOM      1  N   UNL     1       3.043   5.942  18.901  0.00  0.00    +0.000 N 
ATOM      2  C   UNL     1       4.258   5.616  19.622  0.00  0.00    +0.000 C 
ATOM      3  C   UNL     1       4.671   4.259  19.089  0.00  0.00    +0.000 C 
ATOM      4  C   UNL     1       3.378   3.620  18.616  0.00  0.00    +0.000 C 
ATOM      5  C   UNL     1       2.484   4.791  18.312  0.00  0.00    +0.000 C 
ATOM      6  O   UNL     1       1.456   4.670  17.659  0.00  0.00    +0.000 OA
ENDROOT
BRANCH   1  10
ATOM      7  C   UNL     1       1.100   9.734  19.086  0.00  0.00    +0.000 A 
ATOM      8  C   UNL     1       1.700   9.285  17.914  0.00  0.00    +0.000 A 
ATOM      9  C   UNL     1       2.347   8.052  17.870  0.00  0.00    +0.000 A 
ATOM     10  C   UNL     1       2.416   7.217  18.988  0.00  0.00    +0.000 A 
ATOM     11  C   UNL     1       1.824   7.682  20.174  0.00  0.00    +0.000 A 
ATOM     12  C   UNL     1       1.181   8.932  20.223  0.00  0.00    +0.000 A 
BRANCH   7  13
ATOM     13  O   UNL     1       0.419  10.919  19.210  0.00  0.00    +0.000 OA
BRANCH  13  14
ATOM     14  C   UNL     1       1.108  11.914  19.975  0.00  0.00    +0.000 C 
BRANCH  14  16
ATOM     15  C   UNL     1       1.467  14.182  19.006  0.00  0.00    +0.000 C 
ATOM     16  C   UNL     1       2.005  12.761  19.085  0.00  0.00    +0.000 C 
ENDBRANCH  14  16
ENDBRANCH  13  14
ENDBRANCH   7  13
ENDBRANCH   1  10
BRANCH   3  17
ATOM     17  C   UNL     1       5.680   4.323  17.951  0.00  0.00    +0.000 C 
ATOM     18  O   UNL     1       6.880   4.236  18.181  0.00  0.00    +0.000 OA
ATOM     19  N   UNL     1       5.131   4.447  16.693  0.00  0.00    +0.000 N 
ATOM     20  H   UNL     1       4.179   4.784  16.607  0.00  0.00    +0.000 HD
BRANCH  19  21
ATOM     21  C   UNL     1       5.813   4.269  15.479  0.00  0.00    +0.000 A 
ATOM     22  C   UNL     1       5.280   3.519  14.409  0.00  0.00    +0.000 A 
ATOM     23  C   UNL     1       5.857   3.593  13.135  0.00  0.00    +0.000 A 
ATOM     24  C   UNL     1       6.954   4.414  12.984  0.00  0.00    +0.000 A 
ATOM     25  C   UNL     1       7.523   5.069  14.054  0.00  0.00    +0.000 A 
ATOM     26  C   UNL     1       6.985   5.011  15.314  0.00  0.00    +0.000 A 
ATOM     27  O   UNL     1       8.570   5.858  13.681  0.00  0.00    +0.000 OA
ATOM     28  C   UNL     1       8.305   5.911  12.266  0.00  0.00    +0.000 C 
ATOM     29  O   UNL     1       7.549   4.769  11.810  0.00  0.00    +0.000 OA
ENDBRANCH  19  21
ENDBRANCH   3  17
TORSDOF 6
ENDMDL
MODEL 5
REMARK VINA RESULT:      -7.6      1.091      1.952
REMARK  Name = 
REMARK  7 active torsions:
REMARK  status: ('A' for Active; 'I' for Inactive)
REMARK    1  A    between atoms: C_1  and  C_2
REMARK    2  A    between atoms: C_2  and  C_3
REMARK    3  A    between atoms: C_3  and  O_4
REMARK    4  A    between atoms: O_4  and  C_5
REMARK    5  A    between atoms: C_8  and  N_9
REMARK    6  A    between atoms: C_11  and  C_12
REMARK    7  A    between atoms: N_14  and  C_15
REMARK                            x       y       z     vdW  Elec       q    Type
REMARK                         _______ _______ _______ _____ _____    ______ ____
ROOT
ATOM      1  N   UNL     1       3.681   5.752  18.641  0.00  0.00    +0.000 N 
ATOM      2  C   UNL     1       5.039   5.621  19.132  0.00  0.00    +0.000 C 
ATOM      3  C   UNL     1       5.550   4.335  18.514  0.00  0.00    +0.000 C 
ATOM      4  C   UNL     1       4.304   3.503  18.268  0.00  0.00    +0.000 C 
ATOM      5  C   UNL     1       3.205   4.523  18.144  0.00  0.00    +0.000 C 
ATOM      6  O   UNL     1       2.108   4.241  17.681  0.00  0.00    +0.000 OA
ENDROOT
BRANCH   1  10
ATOM      7  C   UNL     1       1.267   9.223  19.204  0.00  0.00    +0.000 A 
ATOM      8  C   UNL     1       1.930   8.990  18.004  0.00  0.00    +0.000 A 
ATOM      9  C   UNL     1       2.730   7.862  17.837  0.00  0.00    +0.000 A 
ATOM     10  C   UNL     1       2.895   6.920  18.856  0.00  0.00    +0.000 A 
ATOM     11  C   UNL     1       2.238   7.167  20.072  0.00  0.00    +0.000 A 
ATOM     12  C   UNL     1       1.439   8.312  20.246  0.00  0.00    +0.000 A 
BRANCH   7  13
ATOM     13  O   UNL     1       0.439  10.291  19.444  0.00  0.00    +0.000 OA
BRANCH  13  14
ATOM     14  C   UNL     1      -0.297  10.733  18.299  0.00  0.00    +0.000 C 
BRANCH  14  16
ATOM     15  C   UNL     1      -2.205  10.140  16.810  0.00  0.00    +0.000 C 
ATOM     16  C   UNL     1      -1.652  10.047  18.225  0.00  0.00    +0.000 C 
ENDBRANCH  14  16
ENDBRANCH  13  14
ENDBRANCH   7  13
ENDBRANCH   1  10
BRANCH   3  17
ATOM     17  C   UNL     1       6.320   4.535  17.217  0.00  0.00    +0.000 C 
ATOM     18  O   UNL     1       7.546   4.546  17.219  0.00  0.00    +0.000 OA
ATOM     19  N   UNL     1       5.538   4.660  16.090  0.00  0.00    +0.000 N 
ATOM     20  H   UNL     1       4.562   4.914  16.197  0.00  0.00    +0.000 HD
BRANCH  19  21
ATOM     21  C   UNL     1       5.994   4.594  14.763  0.00  0.00    +0.000 A 
ATOM     22  C   UNL     1       7.145   5.279  14.318  0.00  0.00    +0.000 A 
ATOM     23  C   UNL     1       7.716   4.973  13.076  0.00  0.00    +0.000 A 
ATOM     24  C   UNL     1       7.105   3.992  12.324  0.00  0.00    +0.000 A 
ATOM     25  C   UNL     1       5.930   3.396  12.725  0.00  0.00    +0.000 A 
ATOM     26  C   UNL     1       5.343   3.679  13.931  0.00  0.00    +0.000 A 
ATOM     27  O   UNL     1       5.520   2.428  11.858  0.00  0.00    +0.000 OA
ATOM     28  C   UNL     1       6.754   2.244  11.140  0.00  0.00    +0.000 C 
ATOM     29  O   UNL     1       7.591   3.419  11.186  0.00  0.00    +0.000 OA
ENDBRANCH  19  21
ENDBRANCH   3  17
TORSDOF 6
ENDMDL
MODEL 6
REMARK VINA RESULT:      -7.6      1.395      2.114
REMARK  Name = 
REMARK  7 active torsions:
REMARK  status: ('A' for Active; 'I' for Inactive)
REMARK    1  A    between atoms: C_1  and  C_2
REMARK    2  A    between atoms: C_2  and  C_3
REMARK    3  A    between atoms: C_3  and  O_4
REMARK    4  A    between atoms: O_4  and  C_5
REMARK    5  A    between atoms: C_8  and  N_9
REMARK    6  A    between atoms: C_11  and  C_12
REMARK    7  A    between atoms: N_14  and  C_15
REMARK                            x       y       z     vdW  Elec       q    Type
REMARK                         _______ _______ _______ _____ _____    ______ ____
ROOT
ATOM      1  N   UNL     1       3.190   5.767  18.850  0.00  0.00    +0.000 N 
ATOM      2  C   UNL     1       4.496   5.502  19.421  0.00  0.00    +0.000 C 
ATOM      3  C   UNL     1       4.966   4.235  18.735  0.00  0.00    +0.000 C 
ATOM      4  C   UNL     1       3.690   3.516  18.334  0.00  0.00    +0.000 C 
ATOM      5  C   UNL     1       2.673   4.619  18.219  0.00  0.00    +0.000 C 
ATOM      6  O   UNL     1       1.598   4.453  17.659  0.00  0.00    +0.000 OA
ENDROOT
BRANCH   1  10
ATOM      7  C   UNL     1       1.093   9.384  19.693  0.00  0.00    +0.000 A 
ATOM      8  C   UNL     1       1.248   8.396  20.660  0.00  0.00    +0.000 A 
ATOM      9  C   UNL     1       1.920   7.212  20.368  0.00  0.00    +0.000 A 
ATOM     10  C   UNL     1       2.468   6.968  19.106  0.00  0.00    +0.000 A 
ATOM     11  C   UNL     1       2.293   7.960  18.128  0.00  0.00    +0.000 A 
ATOM     12  C   UNL     1       1.605   9.152  18.417  0.00  0.00    +0.000 A 
BRANCH   7  13
ATOM     13  O   UNL     1       0.470  10.590  19.901  0.00  0.00    +0.000 OA
BRANCH  13  14
ATOM     14  C   UNL     1       0.755  11.185  21.171  0.00  0.00    +0.000 C 
BRANCH  14  16
ATOM     15  C   UNL     1      -0.790  10.423  22.972  0.00  0.00    +0.000 C 
ATOM     16  C   UNL     1      -0.528  11.497  21.927  0.00  0.00    +0.000 C 
ENDBRANCH  14  16
ENDBRANCH  13  14
ENDBRANCH   7  13
ENDBRANCH   1  10
BRANCH   3  17
ATOM     17  C   UNL     1       5.843   4.481  17.516  0.00  0.00    +0.000 C 
ATOM     18  O   UNL     1       7.065   4.468  17.618  0.00  0.00    +0.000 OA
ATOM     19  N   UNL     1       5.158   4.677  16.337  0.00  0.00    +0.000 N 
ATOM     20  H   UNL     1       4.181   4.945  16.377  0.00  0.00    +0.000 HD
BRANCH  19  21
ATOM     21  C   UNL     1       5.720   4.664  15.050  0.00  0.00    +0.000 A 
ATOM     22  C   UNL     1       6.915   5.346  14.734  0.00  0.00    +0.000 A 
ATOM     23  C   UNL     1       7.580   5.089  13.528  0.00  0.00    +0.000 A 
ATOM     24  C   UNL     1       7.018   4.158  12.682  0.00  0.00    +0.000 A 
ATOM     25  C   UNL     1       5.804   3.567  12.956  0.00  0.00    +0.000 A 
ATOM     26  C   UNL     1       5.125   3.804  14.124  0.00  0.00    +0.000 A 
ATOM     27  O   UNL     1       5.450   2.650  12.012  0.00  0.00    +0.000 OA
ATOM     28  C   UNL     1       6.736   2.476  11.388  0.00  0.00    +0.000 C 
ATOM     29  O   UNL     1       7.586   3.631  11.560  0.00  0.00    +0.000 OA
ENDBRANCH  19  21
ENDBRANCH   3  17
TORSDOF 6
ENDMDL
MODEL 7
REMARK VINA RESULT:      -7.5      4.020      9.326
REMARK  Name = 
REMARK  7 active torsions:
REMARK  status: ('A' for Active; 'I' for Inactive)
REMARK    1  A    between atoms: C_1  and  C_2
REMARK    2  A    between atoms: C_2  and  C_3
REMARK    3  A    between atoms: C_3  and  O_4
REMARK    4  A    between atoms: O_4  and  C_5
REMARK    5  A    between atoms: C_8  and  N_9
REMARK    6  A    between atoms: C_11  and  C_12
REMARK    7  A    between atoms: N_14  and  C_15
REMARK                            x       y       z     vdW  Elec       q    Type
REMARK                         _______ _______ _______ _____ _____    ______ ____
ROOT
ATOM      1  N   UNL     1       0.677   9.594  20.506  0.00  0.00    +0.000 N 
ATOM      2  C   UNL     1      -0.446  10.287  19.905  0.00  0.00    +0.000 C 
ATOM      3  C   UNL     1      -0.839  11.339  20.922  0.00  0.00    +0.000 C 
ATOM      4  C   UNL     1      -0.382  10.776  22.257  0.00  0.00    +0.000 C 
ATOM      5  C   UNL     1       0.738   9.840  21.891  0.00  0.00    +0.000 C 
ATOM      6  O   UNL     1       1.520   9.408  22.727  0.00  0.00    +0.000 OA
ENDROOT
BRANCH   1  10
ATOM      7  C   UNL     1       2.929   6.642  18.408  0.00  0.00    +0.000 A 
ATOM      8  C   UNL     1       2.533   6.447  19.727  0.00  0.00    +0.000 A 
ATOM      9  C   UNL     1       1.812   7.426  20.408  0.00  0.00    +0.000 A 
ATOM     10  C   UNL     1       1.454   8.632  19.801  0.00  0.00    +0.000 A 
ATOM     11  C   UNL     1       1.871   8.832  18.474  0.00  0.00    +0.000 A 
ATOM     12  C   UNL     1       2.609   7.849  17.790  0.00  0.00    +0.000 A 
BRANCH   7  13
ATOM     13  O   UNL     1       3.616   5.722  17.655  0.00  0.00    +0.000 OA
BRANCH  13  14
ATOM     14  C   UNL     1       3.419   4.365  18.063  0.00  0.00    +0.000 C 
BRANCH  14  16
ATOM     15  C   UNL     1       1.713   2.559  18.259  0.00  0.00    +0.000 C 
ATOM     16  C   UNL     1       2.127   3.805  17.489  0.00  0.00    +0.000 C 
ENDBRANCH  14  16
ENDBRANCH  13  14
ENDBRANCH   7  13
ENDBRANCH   1  10
BRANCH   3  17
ATOM     17  C   UNL     1      -0.209  12.703  20.677  0.00  0.00    +0.000 C 
ATOM     18  O   UNL     1       0.243  13.354  21.611  0.00  0.00    +0.000 OA
ATOM     19  N   UNL     1      -0.168  13.095  19.357  0.00  0.00    +0.000 N 
ATOM     20  H   UNL     1      -0.791  12.647  18.694  0.00  0.00    +0.000 HD
BRANCH  19  21
ATOM     21  C   UNL     1       0.578  14.167  18.842  0.00  0.00    +0.000 A 
ATOM     22  C   UNL     1       0.094  15.493  18.822  0.00  0.00    +0.000 A 
ATOM     23  C   UNL     1       0.962  16.560  18.559  0.00  0.00    +0.000 A 
ATOM     24  C   UNL     1       2.284  16.256  18.319  0.00  0.00    +0.000 A 
ATOM     25  C   UNL     1       2.728  14.954  18.248  0.00  0.00    +0.000 A 
ATOM     26  C   UNL     1       1.902  13.888  18.494  0.00  0.00    +0.000 A 
ATOM     27  O   UNL     1       4.073  14.877  18.042  0.00  0.00    +0.000 OA
ATOM     28  C   UNL     1       4.423  16.228  18.396  0.00  0.00    +0.000 C 
ATOM     29  O   UNL     1       3.318  17.140  18.223  0.00  0.00    +0.000 OA
ENDBRANCH  19  21
ENDBRANCH   3  17
TORSDOF 6
ENDMDL
MODEL 8
REMARK VINA RESULT:      -7.5      4.202      9.812
REMARK  Name = 
REMARK  7 active torsions:
REMARK  status: ('A' for Active; 'I' for Inactive)
REMARK    1  A    between atoms: C_1  and  C_2
REMARK    2  A    between atoms: C_2  and  C_3
REMARK    3  A    between atoms: C_3  and  O_4
REMARK    4  A    between atoms: O_4  and  C_5
REMARK    5  A    between atoms: C_8  and  N_9
REMARK    6  A    between atoms: C_11  and  C_12
REMARK    7  A    between atoms: N_14  and  C_15
REMARK                            x       y       z     vdW  Elec       q    Type
REMARK                         _______ _______ _______ _____ _____    ______ ____
ROOT
ATOM      1  N   UNL     1       0.679   9.743  20.522  0.00  0.00    +0.000 N 
ATOM      2  C   UNL     1      -0.371  10.562  19.948  0.00  0.00    +0.000 C 
ATOM      3  C   UNL     1      -0.715  11.563  21.032  0.00  0.00    +0.000 C 
ATOM      4  C   UNL     1      -0.343  10.870  22.331  0.00  0.00    +0.000 C 
ATOM      5  C   UNL     1       0.715   9.880  21.923  0.00  0.00    +0.000 C 
ATOM      6  O   UNL     1       1.436   9.329  22.743  0.00  0.00    +0.000 OA
ENDROOT
BRANCH   1  10
ATOM      7  C   UNL     1       2.923   6.921  18.244  0.00  0.00    +0.000 A 
ATOM      8  C   UNL     1       2.562   8.155  17.713  0.00  0.00    +0.000 A 
ATOM      9  C   UNL     1       1.813   9.062  18.460  0.00  0.00    +0.000 A 
ATOM     10  C   UNL     1       1.403   8.778  19.765  0.00  0.00    +0.000 A 
ATOM     11  C   UNL     1       1.755   7.524  20.291  0.00  0.00    +0.000 A 
ATOM     12  C   UNL     1       2.500   6.603  19.533  0.00  0.00    +0.000 A 
BRANCH   7  13
ATOM     13  O   UNL     1       3.680   5.982  17.590  0.00  0.00    +0.000 OA
BRANCH  13  14
ATOM     14  C   UNL     1       3.651   4.683  18.190  0.00  0.00    +0.000 C 
BRANCH  14  16
ATOM     15  C   UNL     1       2.789   2.362  17.909  0.00  0.00    +0.000 C 
ATOM     16  C   UNL     1       3.224   3.626  17.183  0.00  0.00    +0.000 C 
ENDBRANCH  14  16
ENDBRANCH  13  14
ENDBRANCH   7  13
ENDBRANCH   1  10
BRANCH   3  17
ATOM     17  C   UNL     1       0.022  12.889  20.907  0.00  0.00    +0.000 C 
ATOM     18  O   UNL     1       0.562  13.393  21.886  0.00  0.00    +0.000 OA
ATOM     19  N   UNL     1       0.051  13.421  19.637  0.00  0.00    +0.000 N 
ATOM     20  H   UNL     1      -0.632  13.102  18.958  0.00  0.00    +0.000 HD
BRANCH  19  21
ATOM     21  C   UNL     1       0.869  14.478  19.208  0.00  0.00    +0.000 A 
ATOM     22  C   UNL     1       2.192  14.282  18.756  0.00  0.00    +0.000 A 
ATOM     23  C   UNL     1       2.873  15.307  18.088  0.00  0.00    +0.000 A 
ATOM     24  C   UNL     1       2.200  16.495  17.901  0.00  0.00    +0.000 A 
ATOM     25  C   UNL     1       0.944  16.709  18.427  0.00  0.00    +0.000 A 
ATOM     26  C   UNL     1       0.256  15.727  19.092  0.00  0.00    +0.000 A 
ATOM     27  O   UNL     1       0.445  17.932  18.093  0.00  0.00    +0.000 OA
ATOM     28  C   UNL     1       1.342  18.243  17.010  0.00  0.00    +0.000 C 
ATOM     29  O   UNL     1       2.601  17.545  17.128  0.00  0.00    +0.000 OA
ENDBRANCH  19  21
ENDBRANCH   3  17
TORSDOF 6
ENDMDL
MODEL 9
REMARK VINA RESULT:      -7.5      4.676     11.867
REMARK  Name = 
REMARK  7 active torsions:
REMARK  status: ('A' for Active; 'I' for Inactive)
REMARK    1  A    between atoms: C_1  and  C_2
REMARK    2  A    between atoms: C_2  and  C_3
REMARK    3  A    between atoms: C_3  and  O_4
REMARK    4  A    between atoms: O_4  and  C_5
REMARK    5  A    between atoms: C_8  and  N_9
REMARK    6  A    between atoms: C_11  and  C_12
REMARK    7  A    between atoms: N_14  and  C_15
REMARK                            x       y       z     vdW  Elec       q    Type
REMARK                         _______ _______ _______ _____ _____    ______ ____
ROOT
ATOM      1  N   UNL     1       0.046  10.762  18.753  0.00  0.00    +0.000 N 
ATOM      2  C   UNL     1       0.526  12.116  18.948  0.00  0.00    +0.000 C 
ATOM      3  C   UNL     1      -0.705  12.986  18.802  0.00  0.00    +0.000 C 
ATOM      4  C   UNL     1      -1.640  12.188  17.912  0.00  0.00    +0.000 C 
ATOM      5  C   UNL     1      -1.217  10.760  18.128  0.00  0.00    +0.000 C 
ATOM      6  O   UNL     1      -1.914   9.818  17.780  0.00  0.00    +0.000 OA
ENDROOT
BRANCH   1  10
ATOM      7  C   UNL     1       2.410   7.280  19.444  0.00  0.00    +0.000 A 
ATOM      8  C   UNL     1       1.700   7.887  20.474  0.00  0.00    +0.000 A 
ATOM      9  C   UNL     1       0.944   9.035  20.241  0.00  0.00    +0.000 A 
ATOM     10  C   UNL     1       0.862   9.616  18.973  0.00  0.00    +0.000 A 
ATOM     11  C   UNL     1       1.595   9.010  17.939  0.00  0.00    +0.000 A 
ATOM     12  C   UNL     1       2.368   7.858  18.177  0.00  0.00    +0.000 A 
BRANCH   7  13
ATOM     13  O   UNL     1       3.155   6.135  19.579  0.00  0.00    +0.000 OA
BRANCH  13  14
ATOM     14  C   UNL     1       2.671   5.026  18.815  0.00  0.00    +0.000 C 
BRANCH  14  16
ATOM     15  C   UNL     1       1.040   4.056  20.431  0.00  0.00    +0.000 C 
ATOM     16  C   UNL     1       2.365   3.838  19.714  0.00  0.00    +0.000 C 
ENDBRANCH  14  16
ENDBRANCH  13  14
ENDBRANCH   7  13
ENDBRANCH   1  10
BRANCH   3  17
ATOM     17  C   UNL     1      -1.385  13.322  20.122  0.00  0.00    +0.000 C 
ATOM     18  O   UNL     1      -0.727  13.727  21.073  0.00  0.00    +0.000 OA
ATOM     19  N   UNL     1      -2.754  13.165  20.127  0.00  0.00    +0.000 N 
ATOM     20  H   UNL     1      -3.182  12.580  19.419  0.00  0.00    +0.000 HD
BRANCH  19  21
ATOM     21  C   UNL     1      -3.631  13.644  21.113  0.00  0.00    +0.000 A 
ATOM     22  C   UNL     1      -4.305  14.880  20.998  0.00  0.00    +0.000 A 
ATOM     23  C   UNL     1      -5.366  15.191  21.858  0.00  0.00    +0.000 A 
ATOM     24  C   UNL     1      -5.708  14.252  22.806  0.00  0.00    +0.000 A 
ATOM     25  C   UNL     1      -4.985  13.091  22.972  0.00  0.00    +0.000 A 
ATOM     26  C   UNL     1      -3.938  12.761  22.151  0.00  0.00    +0.000 A 
ATOM     27  O   UNL     1      -5.514  12.285  23.935  0.00  0.00    +0.000 OA
ATOM     28  C   UNL     1      -6.817  12.891  24.030  0.00  0.00    +0.000 C 
ATOM     29  O   UNL     1      -6.807  14.273  23.612  0.00  0.00    +0.000 OA
ENDBRANCH  19  21
ENDBRANCH   3  17
TORSDOF 6
ENDMDL
