MODEL 1
REMARK VINA RESULT:      -8.7      0.000      0.000
REMARK  Name = 
REMARK  4 active torsions:
REMARK  status: ('A' for Active; 'I' for Inactive)
REMARK    1  A    between atoms: N_3  and  C_4
REMARK    2  A    between atoms: C_8  and  C_9
REMARK    3  A    between atoms: C_12  and  C_13
REMARK    4  A    between atoms: N_25  and  C_26
REMARK                            x       y       z     vdW  Elec       q    Type
REMARK                         _______ _______ _______ _____ _____    ______ ____
ROOT
ATOM      1  C   UNL     1      -0.426  12.026  21.915  0.00  0.00    +0.000 A 
ATOM      2  C   UNL     1      -0.995  11.361  23.005  0.00  0.00    +0.000 A 
ATOM      3  C   UNL     1      -0.923   9.979  23.113  0.00  0.00    +0.000 A 
ATOM      4  C   UNL     1      -0.285   9.245  22.123  0.00  0.00    +0.000 A 
ATOM      5  C   UNL     1       0.318   9.869  21.011  0.00  0.00    +0.000 A 
ATOM      6  C   UNL     1       0.206  11.274  20.912  0.00  0.00    +0.000 A 
ENDROOT
BRANCH   1   9
ATOM      7  O   UNL     1       1.826  13.780  21.691  0.00  0.00    +0.000 OA
ATOM      8  C   UNL     1       0.687  14.230  21.724  0.00  0.00    +0.000 C 
ATOM      9  N   UNL     1      -0.451  13.437  21.801  0.00  0.00    +0.000 N 
ATOM     10  N   UNL     1       0.389  15.586  21.633  0.00  0.00    +0.000 N 
ATOM     11  H   UNL     1      -1.325  13.855  21.513  0.00  0.00    +0.000 HD
ATOM     12  H   UNL     1      -0.556  15.818  21.371  0.00  0.00    +0.000 HD
BRANCH  10  13
ATOM     13  C   UNL     1       1.382  16.547  21.304  0.00  0.00    +0.000 A 
ATOM     14  C   UNL     1       2.073  17.287  22.293  0.00  0.00    +0.000 A 
ATOM     15  C   UNL     1       3.298  17.894  22.018  0.00  0.00    +0.000 A 
ATOM     16  C   UNL     1       3.784  17.747  20.744  0.00  0.00    +0.000 A 
ATOM     17  C   UNL     1       3.037  17.159  19.744  0.00  0.00    +0.000 A 
ATOM     18  C   UNL     1       1.799  16.602  19.972  0.00  0.00    +0.000 A 
ATOM     19  O   UNL     1       3.745  17.048  18.583  0.00  0.00    +0.000 OA
ATOM     20  C   UNL     1       5.071  17.254  19.115  0.00  0.00    +0.000 C 
ATOM     21  O   UNL     1       5.052  18.026  20.332  0.00  0.00    +0.000 OA
ENDBRANCH  10  13
ENDBRANCH   1   9
BRANCH   5  22
ATOM     22  C   UNL     1       1.107   9.061  20.056  0.00  0.00    +0.000 A 
ATOM     23  C   UNL     1       1.336   9.437  18.721  0.00  0.00    +0.000 A 
ATOM     24  C   UNL     1       2.121   8.644  17.860  0.00  0.00    +0.000 A 
ATOM     25  C   UNL     1       2.693   7.451  18.317  0.00  0.00    +0.000 A 
ATOM     26  C   UNL     1       2.463   7.072  19.641  0.00  0.00    +0.000 A 
ATOM     27  C   UNL     1       1.696   7.862  20.492  0.00  0.00    +0.000 A 
BRANCH  25  28
ATOM     28  C   UNL     1       3.590   6.601  17.532  0.00  0.00    +0.000 A 
ATOM     29  N   UNL     1       3.527   5.281  17.528  0.00  0.00    +0.000 NA
ATOM     30  C   UNL     1       4.538   4.852  16.717  0.00  0.00    +0.000 A 
ATOM     31  C   UNL     1       4.921   3.541  16.406  0.00  0.00    +0.000 A 
ATOM     32  C   UNL     1       6.013   3.352  15.552  0.00  0.00    +0.000 A 
ATOM     33  C   UNL     1       6.696   4.445  15.019  0.00  0.00    +0.000 A 
ATOM     34  C   UNL     1       6.312   5.766  15.310  0.00  0.00    +0.000 A 
ATOM     35  C   UNL     1       5.227   5.927  16.175  0.00  0.00    +0.000 A 
ATOM     36  N   UNL     1       4.589   7.032  16.687  0.00  0.00    +0.000 N 
ATOM     37  H   UNL     1       4.798   7.992  16.465  0.00  0.00    +0.000 HD
ENDBRANCH  25  28
ENDBRANCH   5  22
TORSDOF 4
ENDMDL
MODEL 2
REMARK VINA RESULT:      -8.5      2.944      3.985
REMARK  Name = 
REMARK  4 active torsions:
REMARK  status: ('A' for Active; 'I' for Inactive)
REMARK    1  A    between atoms: N_3  and  C_4
REMARK    2  A    between atoms: C_8  and  C_9
REMARK    3  A    between atoms: C_12  and  C_13
REMARK    4  A    between atoms: N_25  and  C_26
REMARK                            x       y       z     vdW  Elec       q    Type
REMARK                         _______ _______ _______ _____ _____    ______ ____
ROOT
ATOM      1  C   UNL     1       1.405  13.902  18.578  0.00  0.00    +0.000 A 
ATOM      2  C   UNL     1       0.113  14.219  19.008  0.00  0.00    +0.000 A 
ATOM      3  C   UNL     1      -0.775  13.223  19.390  0.00  0.00    +0.000 A 
ATOM      4  C   UNL     1      -0.380  11.893  19.337  0.00  0.00    +0.000 A 
ATOM      5  C   UNL     1       0.917  11.522  18.925  0.00  0.00    +0.000 A 
ATOM      6  C   UNL     1       1.791  12.554  18.516  0.00  0.00    +0.000 A 
ENDROOT
BRANCH   1   9
ATOM      7  O   UNL     1       3.851  14.534  19.925  0.00  0.00    +0.000 OA
ATOM      8  C   UNL     1       3.499  15.173  18.940  0.00  0.00    +0.000 C 
ATOM      9  N   UNL     1       2.342  14.901  18.221  0.00  0.00    +0.000 N 
ATOM     10  N   UNL     1       4.242  16.211  18.387  0.00  0.00    +0.000 N 
ATOM     11  H   UNL     1       2.293  15.255  17.275  0.00  0.00    +0.000 HD
ATOM     12  H   UNL     1       4.023  16.457  17.435  0.00  0.00    +0.000 HD
BRANCH  10  13
ATOM     13  C   UNL     1       5.567  16.491  18.816  0.00  0.00    +0.000 A 
ATOM     14  C   UNL     1       5.845  17.391  19.871  0.00  0.00    +0.000 A 
ATOM     15  C   UNL     1       7.058  17.348  20.558  0.00  0.00    +0.000 A 
ATOM     16  C   UNL     1       7.964  16.405  20.146  0.00  0.00    +0.000 A 
ATOM     17  C   UNL     1       7.752  15.636  19.020  0.00  0.00    +0.000 A 
ATOM     18  C   UNL     1       6.587  15.696  18.288  0.00  0.00    +0.000 A 
ATOM     19  O   UNL     1       8.742  14.713  18.846  0.00  0.00    +0.000 OA
ATOM     20  C   UNL     1       9.316  14.755  20.168  0.00  0.00    +0.000 C 
ATOM     21  O   UNL     1       9.082  16.018  20.821  0.00  0.00    +0.000 OA
ENDBRANCH  10  13
ENDBRANCH   1   9
BRANCH   5  22
ATOM     22  C   UNL     1       1.339  10.108  19.019  0.00  0.00    +0.000 A 
ATOM     23  C   UNL     1       1.161   9.318  20.169  0.00  0.00    +0.000 A 
ATOM     24  C   UNL     1       1.555   7.965  20.196  0.00  0.00    +0.000 A 
ATOM     25  C   UNL     1       2.141   7.372  19.073  0.00  0.00    +0.000 A 
ATOM     26  C   UNL     1       2.324   8.156  17.931  0.00  0.00    +0.000 A 
ATOM     27  C   UNL     1       1.925   9.488  17.903  0.00  0.00    +0.000 A 
BRANCH  25  28
ATOM     28  C   UNL     1       2.507   5.958  18.969  0.00  0.00    +0.000 A 
ATOM     29  N   UNL     1       3.278   5.338  19.846  0.00  0.00    +0.000 NA
ATOM     30  C   UNL     1       3.419   4.058  19.392  0.00  0.00    +0.000 A 
ATOM     31  C   UNL     1       4.166   3.007  19.940  0.00  0.00    +0.000 A 
ATOM     32  C   UNL     1       4.167   1.775  19.278  0.00  0.00    +0.000 A 
ATOM     33  C   UNL     1       3.433   1.599  18.105  0.00  0.00    +0.000 A 
ATOM     34  C   UNL     1       2.666   2.640  17.553  0.00  0.00    +0.000 A 
ATOM     35  C   UNL     1       2.693   3.863  18.227  0.00  0.00    +0.000 A 
ATOM     36  N   UNL     1       2.098   5.080  17.990  0.00  0.00    +0.000 N 
ATOM     37  H   UNL     1       1.455   5.289  17.243  0.00  0.00    +0.000 HD
ENDBRANCH  25  28
ENDBRANCH   5  22
TORSDOF 4
ENDMDL
MODEL 3
REMARK VINA RESULT:      -8.5      2.758      3.720
REMARK  Name = 
REMARK  4 active torsions:
REMARK  status: ('A' for Active; 'I' for Inactive)
REMARK    1  A    between atoms: N_3  and  C_4
REMARK    2  A    between atoms: C_8  and  C_9
REMARK    3  A    between atoms: C_12  and  C_13
REMARK    4  A    between atoms: N_25  and  C_26
REMARK                            x       y       z     vdW  Elec       q    Type
REMARK                         _______ _______ _______ _____ _____    ______ ____
ROOT
ATOM      1  C   UNL     1       0.942  13.916  18.957  0.00  0.00    +0.000 A 
ATOM      2  C   UNL     1      -0.364  14.136  19.403  0.00  0.00    +0.000 A 
ATOM      3  C   UNL     1      -1.184  13.074  19.758  0.00  0.00    +0.000 A 
ATOM      4  C   UNL     1      -0.705  11.774  19.662  0.00  0.00    +0.000 A 
ATOM      5  C   UNL     1       0.610  11.500  19.232  0.00  0.00    +0.000 A 
ATOM      6  C   UNL     1       1.413  12.598  18.851  0.00  0.00    +0.000 A 
ENDROOT
BRANCH   1   9
ATOM      7  O   UNL     1       3.552  14.411  20.025  0.00  0.00    +0.000 OA
ATOM      8  C   UNL     1       3.057  15.179  19.207  0.00  0.00    +0.000 C 
ATOM      9  N   UNL     1       1.811  14.984  18.627  0.00  0.00    +0.000 N 
ATOM     10  N   UNL     1       3.705  16.309  18.719  0.00  0.00    +0.000 N 
ATOM     11  H   UNL     1       1.624  15.473  17.761  0.00  0.00    +0.000 HD
ATOM     12  H   UNL     1       3.350  16.688  17.856  0.00  0.00    +0.000 HD
BRANCH  10  13
ATOM     13  C   UNL     1       5.075  16.561  18.994  0.00  0.00    +0.000 A 
ATOM     14  C   UNL     1       5.491  17.489  19.977  0.00  0.00    +0.000 A 
ATOM     15  C   UNL     1       6.769  17.432  20.532  0.00  0.00    +0.000 A 
ATOM     16  C   UNL     1       7.598  16.445  20.066  0.00  0.00    +0.000 A 
ATOM     17  C   UNL     1       7.245  15.642  19.001  0.00  0.00    +0.000 A 
ATOM     18  C   UNL     1       6.010  15.713  18.394  0.00  0.00    +0.000 A 
ATOM     19  O   UNL     1       8.182  14.681  18.760  0.00  0.00    +0.000 OA
ATOM     20  C   UNL     1       8.895  14.752  20.013  0.00  0.00    +0.000 C 
ATOM     21  O   UNL     1       8.769  16.046  20.634  0.00  0.00    +0.000 OA
ENDBRANCH  10  13
ENDBRANCH   1   9
BRANCH   5  22
ATOM     22  C   UNL     1       1.123  10.114  19.280  0.00  0.00    +0.000 A 
ATOM     23  C   UNL     1       1.055   9.299  20.424  0.00  0.00    +0.000 A 
ATOM     24  C   UNL     1       1.532   7.972  20.408  0.00  0.00    +0.000 A 
ATOM     25  C   UNL     1       2.093   7.432  19.245  0.00  0.00    +0.000 A 
ATOM     26  C   UNL     1       2.167   8.242  18.110  0.00  0.00    +0.000 A 
ATOM     27  C   UNL     1       1.686   9.548  18.125  0.00  0.00    +0.000 A 
BRANCH  25  28
ATOM     28  C   UNL     1       2.539   6.046  19.099  0.00  0.00    +0.000 A 
ATOM     29  N   UNL     1       2.212   5.278  18.075  0.00  0.00    +0.000 NA
ATOM     30  C   UNL     1       2.780   4.059  18.314  0.00  0.00    +0.000 A 
ATOM     31  C   UNL     1       2.704   2.888  17.549  0.00  0.00    +0.000 A 
ATOM     32  C   UNL     1       3.367   1.747  18.013  0.00  0.00    +0.000 A 
ATOM     33  C   UNL     1       4.090   1.781  19.205  0.00  0.00    +0.000 A 
ATOM     34  C   UNL     1       4.187   2.954  19.974  0.00  0.00    +0.000 A 
ATOM     35  C   UNL     1       3.507   4.075  19.495  0.00  0.00    +0.000 A 
ATOM     36  N   UNL     1       3.361   5.359  19.965  0.00  0.00    +0.000 N 
ATOM     37  H   UNL     1       3.800   5.741  20.789  0.00  0.00    +0.000 HD
ENDBRANCH  25  28
ENDBRANCH   5  22
TORSDOF 4
ENDMDL
MODEL 4
REMARK VINA RESULT:      -8.4      6.082      8.523
REMARK  Name = 
REMARK  4 active torsions:
REMARK  status: ('A' for Active; 'I' for Inactive)
REMARK    1  A    between atoms: N_3  and  C_4
REMARK    2  A    between atoms: C_8  and  C_9
REMARK    3  A    between atoms: C_12  and  C_13
REMARK    4  A    between atoms: N_25  and  C_26
REMARK                            x       y       z     vdW  Elec       q    Type
REMARK                         _______ _______ _______ _____ _____    ______ ____
ROOT
ATOM      1  C   UNL     1       0.520  17.116  19.097  0.00  0.00    +0.000 A 
ATOM      2  C   UNL     1       0.177  17.791  17.922  0.00  0.00    +0.000 A 
ATOM      3  C   UNL     1       1.113  17.995  16.917  0.00  0.00    +0.000 A 
ATOM      4  C   UNL     1       2.410  17.529  17.084  0.00  0.00    +0.000 A 
ATOM      5  C   UNL     1       2.803  16.829  18.243  0.00  0.00    +0.000 A 
ATOM      6  C   UNL     1       1.837  16.661  19.261  0.00  0.00    +0.000 A 
ENDROOT
BRANCH   1   9
ATOM      7  O   UNL     1      -0.927  14.687  19.542  0.00  0.00    +0.000 OA
ATOM      8  C   UNL     1      -1.114  15.663  20.258  0.00  0.00    +0.000 C 
ATOM      9  N   UNL     1      -0.427  16.861  20.119  0.00  0.00    +0.000 N 
ATOM     10  N   UNL     1      -1.997  15.674  21.334  0.00  0.00    +0.000 N 
ATOM     11  H   UNL     1      -0.412  17.482  20.918  0.00  0.00    +0.000 HD
ATOM     12  H   UNL     1      -1.855  16.399  22.019  0.00  0.00    +0.000 HD
BRANCH  10  13
ATOM     13  C   UNL     1      -2.617  14.486  21.802  0.00  0.00    +0.000 A 
ATOM     14  C   UNL     1      -1.917  13.513  22.554  0.00  0.00    +0.000 A 
ATOM     15  C   UNL     1      -2.592  12.591  23.352  0.00  0.00    +0.000 A 
ATOM     16  C   UNL     1      -3.961  12.668  23.356  0.00  0.00    +0.000 A 
ATOM     17  C   UNL     1      -4.644  13.513  22.506  0.00  0.00    +0.000 A 
ATOM     18  C   UNL     1      -4.005  14.396  21.664  0.00  0.00    +0.000 A 
ATOM     19  O   UNL     1      -5.988  13.484  22.738  0.00  0.00    +0.000 OA
ATOM     20  C   UNL     1      -5.973  12.862  24.039  0.00  0.00    +0.000 C 
ATOM     21  O   UNL     1      -4.796  12.055  24.240  0.00  0.00    +0.000 OA
ENDBRANCH  10  13
ENDBRANCH   1   9
BRANCH   5  22
ATOM     22  C   UNL     1       4.153  16.230  18.315  0.00  0.00    +0.000 A 
ATOM     23  C   UNL     1       5.268  16.887  18.864  0.00  0.00    +0.000 A 
ATOM     24  C   UNL     1       6.528  16.258  18.935  0.00  0.00    +0.000 A 
ATOM     25  C   UNL     1       6.701  14.956  18.453  0.00  0.00    +0.000 A 
ATOM     26  C   UNL     1       5.596  14.303  17.902  0.00  0.00    +0.000 A 
ATOM     27  C   UNL     1       4.351  14.922  17.842  0.00  0.00    +0.000 A 
BRANCH  25  28
ATOM     28  C   UNL     1       7.941  14.186  18.555  0.00  0.00    +0.000 A 
ATOM     29  N   UNL     1       8.551  13.933  19.700  0.00  0.00    +0.000 NA
ATOM     30  C   UNL     1       9.679  13.231  19.386  0.00  0.00    +0.000 A 
ATOM     31  C   UNL     1      10.685  12.754  20.236  0.00  0.00    +0.000 A 
ATOM     32  C   UNL     1      11.764  12.066  19.671  0.00  0.00    +0.000 A 
ATOM     33  C   UNL     1      11.828  11.856  18.294  0.00  0.00    +0.000 A 
ATOM     34  C   UNL     1      10.818  12.315  17.430  0.00  0.00    +0.000 A 
ATOM     35  C   UNL     1       9.759  13.009  18.019  0.00  0.00    +0.000 A 
ATOM     36  N   UNL     1       8.627  13.603  17.512  0.00  0.00    +0.000 N 
ATOM     37  H   UNL     1       8.335  13.594  16.548  0.00  0.00    +0.000 HD
ENDBRANCH  25  28
ENDBRANCH   5  22
TORSDOF 4
ENDMDL
MODEL 5
REMARK VINA RESULT:      -8.3      3.220      4.513
REMARK  Name = 
REMARK  4 active torsions:
REMARK  status: ('A' for Active; 'I' for Inactive)
REMARK    1  A    between atoms: N_3  and  C_4
REMARK    2  A    between atoms: C_8  and  C_9
REMARK    3  A    between atoms: C_12  and  C_13
REMARK    4  A    between atoms: N_25  and  C_26
REMARK                            x       y       z     vdW  Elec       q    Type
REMARK                         _______ _______ _______ _____ _____    ______ ____
ROOT
ATOM      1  C   UNL     1       1.697  14.276  18.540  0.00  0.00    +0.000 A 
ATOM      2  C   UNL     1       0.414  14.683  18.916  0.00  0.00    +0.000 A 
ATOM      3  C   UNL     1      -0.553  13.754  19.273  0.00  0.00    +0.000 A 
ATOM      4  C   UNL     1      -0.246  12.400  19.248  0.00  0.00    +0.000 A 
ATOM      5  C   UNL     1       1.037  11.939  18.890  0.00  0.00    +0.000 A 
ATOM      6  C   UNL     1       1.994  12.905  18.506  0.00  0.00    +0.000 A 
ENDROOT
BRANCH   1   9
ATOM      7  O   UNL     1       4.241  14.579  19.817  0.00  0.00    +0.000 OA
ATOM      8  C   UNL     1       3.916  15.316  18.893  0.00  0.00    +0.000 C 
ATOM      9  N   UNL     1       2.713  15.206  18.210  0.00  0.00    +0.000 N 
ATOM     10  N   UNL     1       4.735  16.317  18.379  0.00  0.00    +0.000 N 
ATOM     11  H   UNL     1       2.663  15.628  17.292  0.00  0.00    +0.000 HD
ATOM     12  H   UNL     1       4.505  16.649  17.456  0.00  0.00    +0.000 HD
BRANCH  10  13
ATOM     13  C   UNL     1       6.095  16.441  18.767  0.00  0.00    +0.000 A 
ATOM     14  C   UNL     1       6.497  17.221  19.877  0.00  0.00    +0.000 A 
ATOM     15  C   UNL     1       7.726  17.013  20.501  0.00  0.00    +0.000 A 
ATOM     16  C   UNL     1       8.524  16.030  19.974  0.00  0.00    +0.000 A 
ATOM     17  C   UNL     1       8.198  15.380  18.802  0.00  0.00    +0.000 A 
ATOM     18  C   UNL     1       7.017  15.605  18.131  0.00  0.00    +0.000 A 
ATOM     19  O   UNL     1       9.090  14.390  18.509  0.00  0.00    +0.000 OA
ATOM     20  C   UNL     1       9.717  14.269  19.803  0.00  0.00    +0.000 C 
ATOM     21  O   UNL     1       9.626  15.490  20.564  0.00  0.00    +0.000 OA
ENDBRANCH  10  13
ENDBRANCH   1   9
BRANCH   5  22
ATOM     22  C   UNL     1       1.359  10.500  19.015  0.00  0.00    +0.000 A 
ATOM     23  C   UNL     1       1.942   9.741  17.985  0.00  0.00    +0.000 A 
ATOM     24  C   UNL     1       2.256   8.379  18.167  0.00  0.00    +0.000 A 
ATOM     25  C   UNL     1       1.989   7.743  19.385  0.00  0.00    +0.000 A 
ATOM     26  C   UNL     1       1.405   8.494  20.407  0.00  0.00    +0.000 A 
ATOM     27  C   UNL     1       1.105   9.841  20.230  0.00  0.00    +0.000 A 
BRANCH  25  28
ATOM     28  C   UNL     1       2.352   6.362  19.703  0.00  0.00    +0.000 A 
ATOM     29  N   UNL     1       1.735   5.638  20.621  0.00  0.00    +0.000 NA
ATOM     30  C   UNL     1       2.377   4.433  20.652  0.00  0.00    +0.000 A 
ATOM     31  C   UNL     1       2.133   3.327  21.477  0.00  0.00    +0.000 A 
ATOM     32  C   UNL     1       2.943   2.196  21.331  0.00  0.00    +0.000 A 
ATOM     33  C   UNL     1       3.963   2.172  20.380  0.00  0.00    +0.000 A 
ATOM     34  C   UNL     1       4.208   3.269  19.535  0.00  0.00    +0.000 A 
ATOM     35  C   UNL     1       3.394   4.389  19.710  0.00  0.00    +0.000 A 
ATOM     36  N   UNL     1       3.343   5.620  19.099  0.00  0.00    +0.000 N 
ATOM     37  H   UNL     1       3.914   5.920  18.325  0.00  0.00    +0.000 HD
ENDBRANCH  25  28
ENDBRANCH   5  22
TORSDOF 4
ENDMDL
MODEL 6
REMARK VINA RESULT:      -8.2      4.679     11.306
REMARK  Name = 
REMARK  4 active torsions:
REMARK  status: ('A' for Active; 'I' for Inactive)
REMARK    1  A    between atoms: N_3  and  C_4
REMARK    2  A    between atoms: C_8  and  C_9
REMARK    3  A    between atoms: C_12  and  C_13
REMARK    4  A    between atoms: N_25  and  C_26
REMARK                            x       y       z     vdW  Elec       q    Type
REMARK                         _______ _______ _______ _____ _____    ______ ____
ROOT
ATOM      1  C   UNL     1       3.814   4.499  19.339  0.00  0.00    +0.000 A 
ATOM      2  C   UNL     1       3.176   3.535  20.125  0.00  0.00    +0.000 A 
ATOM      3  C   UNL     1       2.122   3.880  20.959  0.00  0.00    +0.000 A 
ATOM      4  C   UNL     1       1.699   5.201  21.022  0.00  0.00    +0.000 A 
ATOM      5  C   UNL     1       2.301   6.208  20.239  0.00  0.00    +0.000 A 
ATOM      6  C   UNL     1       3.388   5.834  19.419  0.00  0.00    +0.000 A 
ENDROOT
BRANCH   1   9
ATOM      7  O   UNL     1       3.840   4.827  16.496  0.00  0.00    +0.000 OA
ATOM      8  C   UNL     1       4.798   4.327  17.074  0.00  0.00    +0.000 C 
ATOM      9  N   UNL     1       4.865   4.166  18.451  0.00  0.00    +0.000 N 
ATOM     10  N   UNL     1       5.958   3.911  16.428  0.00  0.00    +0.000 N 
ATOM     11  H   UNL     1       5.784   4.044  18.857  0.00  0.00    +0.000 HD
ATOM     12  H   UNL     1       6.775   3.801  17.007  0.00  0.00    +0.000 HD
BRANCH  10  13
ATOM     13  C   UNL     1       6.198   4.206  15.060  0.00  0.00    +0.000 A 
ATOM     14  C   UNL     1       7.227   5.084  14.645  0.00  0.00    +0.000 A 
ATOM     15  C   UNL     1       7.729   5.048  13.345  0.00  0.00    +0.000 A 
ATOM     16  C   UNL     1       7.162   4.135  12.493  0.00  0.00    +0.000 A 
ATOM     17  C   UNL     1       6.058   3.391  12.854  0.00  0.00    +0.000 A 
ATOM     18  C   UNL     1       5.504   3.447  14.114  0.00  0.00    +0.000 A 
ATOM     19  O   UNL     1       5.715   2.494  11.885  0.00  0.00    +0.000 OA
ATOM     20  C   UNL     1       6.941   2.512  11.126  0.00  0.00    +0.000 C 
ATOM     21  O   UNL     1       7.656   3.753  11.282  0.00  0.00    +0.000 OA
ENDBRANCH  10  13
ENDBRANCH   1   9
BRANCH   5  22
ATOM     22  C   UNL     1       1.726   7.571  20.232  0.00  0.00    +0.000 A 
ATOM     23  C   UNL     1       1.140   8.174  21.359  0.00  0.00    +0.000 A 
ATOM     24  C   UNL     1       0.634   9.489  21.306  0.00  0.00    +0.000 A 
ATOM     25  C   UNL     1       0.699  10.229  20.120  0.00  0.00    +0.000 A 
ATOM     26  C   UNL     1       1.275   9.630  18.998  0.00  0.00    +0.000 A 
ATOM     27  C   UNL     1       1.784   8.336  19.055  0.00  0.00    +0.000 A 
BRANCH  25  28
ATOM     28  C   UNL     1       0.280  11.625  19.984  0.00  0.00    +0.000 A 
ATOM     29  N   UNL     1       0.886  12.495  19.194  0.00  0.00    +0.000 NA
ATOM     30  C   UNL     1       0.238  13.684  19.367  0.00  0.00    +0.000 A 
ATOM     31  C   UNL     1       0.513  14.929  18.785  0.00  0.00    +0.000 A 
ATOM     32  C   UNL     1      -0.294  16.018  19.133  0.00  0.00    +0.000 A 
ATOM     33  C   UNL     1      -1.349  15.862  20.031  0.00  0.00    +0.000 A 
ATOM     34  C   UNL     1      -1.646  14.615  20.609  0.00  0.00    +0.000 A 
ATOM     35  C   UNL     1      -0.819  13.548  20.255  0.00  0.00    +0.000 A 
ATOM     36  N   UNL     1      -0.789  12.220  20.615  0.00  0.00    +0.000 N 
ATOM     37  H   UNL     1      -1.450  11.756  21.218  0.00  0.00    +0.000 HD
ENDBRANCH  25  28
ENDBRANCH   5  22
TORSDOF 4
ENDMDL
MODEL 7
REMARK VINA RESULT:      -8.1      4.403      5.655
REMARK  Name = 
REMARK  4 active torsions:
REMARK  status: ('A' for Active; 'I' for Inactive)
REMARK    1  A    between atoms: N_3  and  C_4
REMARK    2  A    between atoms: C_8  and  C_9
REMARK    3  A    between atoms: C_12  and  C_13
REMARK    4  A    between atoms: N_25  and  C_26
REMARK                            x       y       z     vdW  Elec       q    Type
REMARK                         _______ _______ _______ _____ _____    ______ ____
ROOT
ATOM      1  C   UNL     1      -1.497  11.594  21.293  0.00  0.00    +0.000 A 
ATOM      2  C   UNL     1      -1.615  11.382  22.669  0.00  0.00    +0.000 A 
ATOM      3  C   UNL     1      -0.957  10.327  23.287  0.00  0.00    +0.000 A 
ATOM      4  C   UNL     1      -0.178   9.465  22.527  0.00  0.00    +0.000 A 
ATOM      5  C   UNL     1      -0.015   9.645  21.138  0.00  0.00    +0.000 A 
ATOM      6  C   UNL     1      -0.717  10.710  20.532  0.00  0.00    +0.000 A 
ENDROOT
BRANCH   1   9
ATOM      7  O   UNL     1      -4.077  12.692  21.872  0.00  0.00    +0.000 OA
ATOM      8  C   UNL     1      -3.395  13.149  20.961  0.00  0.00    +0.000 C 
ATOM      9  N   UNL     1      -2.125  12.686  20.646  0.00  0.00    +0.000 N 
ATOM     10  N   UNL     1      -3.787  14.224  20.169  0.00  0.00    +0.000 N 
ATOM     11  H   UNL     1      -1.528  13.304  20.111  0.00  0.00    +0.000 HD
ATOM     12  H   UNL     1      -3.052  14.699  19.670  0.00  0.00    +0.000 HD
BRANCH  10  13
ATOM     13  C   UNL     1      -4.935  14.999  20.478  0.00  0.00    +0.000 A 
ATOM     14  C   UNL     1      -6.250  14.516  20.276  0.00  0.00    +0.000 A 
ATOM     15  C   UNL     1      -7.337  15.074  20.947  0.00  0.00    +0.000 A 
ATOM     16  C   UNL     1      -7.066  16.118  21.794  0.00  0.00    +0.000 A 
ATOM     17  C   UNL     1      -5.811  16.685  21.870  0.00  0.00    +0.000 A 
ATOM     18  C   UNL     1      -4.729  16.192  21.175  0.00  0.00    +0.000 A 
ATOM     19  O   UNL     1      -5.752  17.652  22.832  0.00  0.00    +0.000 OA
ATOM     20  C   UNL     1      -6.951  17.312  23.558  0.00  0.00    +0.000 C 
ATOM     21  O   UNL     1      -7.913  16.634  22.727  0.00  0.00    +0.000 OA
ENDBRANCH  10  13
ENDBRANCH   1   9
BRANCH   5  22
ATOM     22  C   UNL     1       0.936   8.788  20.395  0.00  0.00    +0.000 A 
ATOM     23  C   UNL     1       1.397   7.547  20.868  0.00  0.00    +0.000 A 
ATOM     24  C   UNL     1       2.281   6.756  20.106  0.00  0.00    +0.000 A 
ATOM     25  C   UNL     1       2.727   7.193  18.854  0.00  0.00    +0.000 A 
ATOM     26  C   UNL     1       2.275   8.429  18.385  0.00  0.00    +0.000 A 
ATOM     27  C   UNL     1       1.395   9.203  19.134  0.00  0.00    +0.000 A 
BRANCH  25  28
ATOM     28  C   UNL     1       3.575   6.413  17.951  0.00  0.00    +0.000 A 
ATOM     29  N   UNL     1       4.369   6.956  17.044  0.00  0.00    +0.000 NA
ATOM     30  C   UNL     1       4.959   5.918  16.381  0.00  0.00    +0.000 A 
ATOM     31  C   UNL     1       5.858   5.957  15.308  0.00  0.00    +0.000 A 
ATOM     32  C   UNL     1       6.319   4.745  14.782  0.00  0.00    +0.000 A 
ATOM     33  C   UNL     1       5.895   3.530  15.321  0.00  0.00    +0.000 A 
ATOM     34  C   UNL     1       5.006   3.478  16.409  0.00  0.00    +0.000 A 
ATOM     35  C   UNL     1       4.552   4.701  16.907  0.00  0.00    +0.000 A 
ATOM     36  N   UNL     1       3.691   5.041  17.923  0.00  0.00    +0.000 N 
ATOM     37  H   UNL     1       3.240   4.399  18.556  0.00  0.00    +0.000 HD
ENDBRANCH  25  28
ENDBRANCH   5  22
TORSDOF 4
ENDMDL
MODEL 8
REMARK VINA RESULT:      -8.1      4.045      4.888
REMARK  Name = 
REMARK  4 active torsions:
REMARK  status: ('A' for Active; 'I' for Inactive)
REMARK    1  A    between atoms: N_3  and  C_4
REMARK    2  A    between atoms: C_8  and  C_9
REMARK    3  A    between atoms: C_12  and  C_13
REMARK    4  A    between atoms: N_25  and  C_26
REMARK                            x       y       z     vdW  Elec       q    Type
REMARK                         _______ _______ _______ _____ _____    ______ ____
ROOT
ATOM      1  C   UNL     1      -1.294  11.231  21.723  0.00  0.00    +0.000 A 
ATOM      2  C   UNL     1      -1.123  10.912  23.073  0.00  0.00    +0.000 A 
ATOM      3  C   UNL     1      -0.287   9.874  23.460  0.00  0.00    +0.000 A 
ATOM      4  C   UNL     1       0.383   9.135  22.493  0.00  0.00    +0.000 A 
ATOM      5  C   UNL     1       0.255   9.427  21.119  0.00  0.00    +0.000 A 
ATOM      6  C   UNL     1      -0.623  10.471  20.753  0.00  0.00    +0.000 A 
ENDROOT
BRANCH   1   9
ATOM      7  O   UNL     1      -2.870  12.948  23.385  0.00  0.00    +0.000 OA
ATOM      8  C   UNL     1      -2.873  13.086  22.167  0.00  0.00    +0.000 C 
ATOM      9  N   UNL     1      -2.110  12.310  21.305  0.00  0.00    +0.000 N 
ATOM     10  N   UNL     1      -3.595  14.073  21.504  0.00  0.00    +0.000 N 
ATOM     11  H   UNL     1      -1.934  12.684  20.382  0.00  0.00    +0.000 HD
ATOM     12  H   UNL     1      -3.299  14.286  20.565  0.00  0.00    +0.000 HD
BRANCH  10  13
ATOM     13  C   UNL     1      -4.246  15.121  22.206  0.00  0.00    +0.000 A 
ATOM     14  C   UNL     1      -5.524  14.961  22.790  0.00  0.00    +0.000 A 
ATOM     15  C   UNL     1      -5.968  15.806  23.806  0.00  0.00    +0.000 A 
ATOM     16  C   UNL     1      -5.109  16.803  24.194  0.00  0.00    +0.000 A 
ATOM     17  C   UNL     1      -3.932  17.052  23.520  0.00  0.00    +0.000 A 
ATOM     18  C   UNL     1      -3.495  16.269  22.474  0.00  0.00    +0.000 A 
ATOM     19  O   UNL     1      -3.201  18.032  24.125  0.00  0.00    +0.000 OA
ATOM     20  C   UNL     1      -3.863  18.039  25.406  0.00  0.00    +0.000 C 
ATOM     21  O   UNL     1      -5.221  17.565  25.317  0.00  0.00    +0.000 OA
ENDBRANCH  10  13
ENDBRANCH   1   9
BRANCH   5  22
ATOM     22  C   UNL     1       1.096   8.707  20.137  0.00  0.00    +0.000 A 
ATOM     23  C   UNL     1       1.410   9.213  18.864  0.00  0.00    +0.000 A 
ATOM     24  C   UNL     1       2.241   8.498  17.976  0.00  0.00    +0.000 A 
ATOM     25  C   UNL     1       2.773   7.257  18.343  0.00  0.00    +0.000 A 
ATOM     26  C   UNL     1       2.457   6.750  19.606  0.00  0.00    +0.000 A 
ATOM     27  C   UNL     1       1.646   7.462  20.484  0.00  0.00    +0.000 A 
BRANCH  25  28
ATOM     28  C   UNL     1       3.710   6.478  17.533  0.00  0.00    +0.000 A 
ATOM     29  N   UNL     1       4.555   7.018  16.673  0.00  0.00    +0.000 NA
ATOM     30  C   UNL     1       5.224   5.980  16.090  0.00  0.00    +0.000 A 
ATOM     31  C   UNL     1       6.202   6.014  15.087  0.00  0.00    +0.000 A 
ATOM     32  C   UNL     1       6.736   4.802  14.637  0.00  0.00    +0.000 A 
ATOM     33  C   UNL     1       6.308   3.592  15.182  0.00  0.00    +0.000 A 
ATOM     34  C   UNL     1       5.339   3.544  16.200  0.00  0.00    +0.000 A 
ATOM     35  C   UNL     1       4.814   4.766  16.622  0.00  0.00    +0.000 A 
ATOM     36  N   UNL     1       3.867   5.110  17.559  0.00  0.00    +0.000 N 
ATOM     37  H   UNL     1       3.387   4.474  18.176  0.00  0.00    +0.000 HD
ENDBRANCH  25  28
ENDBRANCH   5  22
TORSDOF 4
ENDMDL
MODEL 9
REMARK VINA RESULT:      -8.0      4.814     11.594
REMARK  Name = 
REMARK  4 active torsions:
REMARK  status: ('A' for Active; 'I' for Inactive)
REMARK    1  A    between atoms: N_3  and  C_4
REMARK    2  A    between atoms: C_8  and  C_9
REMARK    3  A    between atoms: C_12  and  C_13
REMARK    4  A    between atoms: N_25  and  C_26
REMARK                            x       y       z     vdW  Elec       q    Type
REMARK                         _______ _______ _______ _____ _____    ______ ____
ROOT
ATOM      1  C   UNL     1       3.875   4.751  19.037  0.00  0.00    +0.000 A 
ATOM      2  C   UNL     1       3.176   3.655  19.550  0.00  0.00    +0.000 A 
ATOM      3  C   UNL     1       2.054   3.836  20.347  0.00  0.00    +0.000 A 
ATOM      4  C   UNL     1       1.623   5.121  20.646  0.00  0.00    +0.000 A 
ATOM      5  C   UNL     1       2.285   6.259  20.140  0.00  0.00    +0.000 A 
ATOM      6  C   UNL     1       3.440   6.047  19.354  0.00  0.00    +0.000 A 
ENDROOT
BRANCH   1   9
ATOM      7  O   UNL     1       3.871   4.569  16.179  0.00  0.00    +0.000 OA
ATOM      8  C   UNL     1       4.920   4.483  16.807  0.00  0.00    +0.000 C 
ATOM      9  N   UNL     1       4.999   4.593  18.189  0.00  0.00    +0.000 N 
ATOM     10  N   UNL     1       6.166   4.322  16.210  0.00  0.00    +0.000 N 
ATOM     11  H   UNL     1       5.902   4.821  18.583  0.00  0.00    +0.000 HD
ATOM     12  H   UNL     1       6.965   4.562  16.775  0.00  0.00    +0.000 HD
BRANCH  10  13
ATOM     13  C   UNL     1       6.340   4.431  14.805  0.00  0.00    +0.000 A 
ATOM     14  C   UNL     1       7.343   5.246  14.229  0.00  0.00    +0.000 A 
ATOM     15  C   UNL     1       7.784   5.037  12.923  0.00  0.00    +0.000 A 
ATOM     16  C   UNL     1       7.186   4.016  12.229  0.00  0.00    +0.000 A 
ATOM     17  C   UNL     1       6.105   3.326  12.738  0.00  0.00    +0.000 A 
ATOM     18  C   UNL     1       5.610   3.550  14.003  0.00  0.00    +0.000 A 
ATOM     19  O   UNL     1       5.724   2.306  11.916  0.00  0.00    +0.000 OA
ATOM     20  C   UNL     1       6.914   2.224  11.104  0.00  0.00    +0.000 C 
ATOM     21  O   UNL     1       7.626   3.475  11.059  0.00  0.00    +0.000 OA
ENDBRANCH  10  13
ENDBRANCH   1   9
BRANCH   5  22
ATOM     22  C   UNL     1       1.709   7.603  20.367  0.00  0.00    +0.000 A 
ATOM     23  C   UNL     1       1.570   8.571  19.357  0.00  0.00    +0.000 A 
ATOM     24  C   UNL     1       0.986   9.827  19.621  0.00  0.00    +0.000 A 
ATOM     25  C   UNL     1       0.532  10.144  20.906  0.00  0.00    +0.000 A 
ATOM     26  C   UNL     1       0.675   9.186  21.913  0.00  0.00    +0.000 A 
ATOM     27  C   UNL     1       1.242   7.943  21.647  0.00  0.00    +0.000 A 
BRANCH  25  28
ATOM     28  C   UNL     1      -0.162  11.381  21.264  0.00  0.00    +0.000 A 
ATOM     29  N   UNL     1      -0.290  11.813  22.507  0.00  0.00    +0.000 NA
ATOM     30  C   UNL     1      -1.022  12.964  22.439  0.00  0.00    +0.000 A 
ATOM     31  C   UNL     1      -1.462  13.791  23.481  0.00  0.00    +0.000 A 
ATOM     32  C   UNL     1      -2.219  14.922  23.158  0.00  0.00    +0.000 A 
ATOM     33  C   UNL     1      -2.520  15.219  21.830  0.00  0.00    +0.000 A 
ATOM     34  C   UNL     1      -2.071  14.407  20.773  0.00  0.00    +0.000 A 
ATOM     35  C   UNL     1      -1.328  13.278  21.123  0.00  0.00    +0.000 A 
ATOM     36  N   UNL     1      -0.747  12.270  20.390  0.00  0.00    +0.000 N 
ATOM     37  H   UNL     1      -0.731  12.204  19.384  0.00  0.00    +0.000 HD
ENDBRANCH  25  28
ENDBRANCH   5  22
TORSDOF 4
ENDMDL
