MODEL 1
REMARK VINA RESULT:      -7.3      0.000      0.000
REMARK  Name = 
REMARK  7 active torsions:
REMARK  status: ('A' for Active; 'I' for Inactive)
REMARK    1  A    between atoms: C_1  and  C_2
REMARK    2  A    between atoms: C_7  and  C_8
REMARK    3  A    between atoms: C_8  and  O_10
REMARK    4  A    between atoms: O_10  and  C_11
REMARK    5  A    between atoms: C_11  and  C_12
REMARK    6  A    between atoms: C_11  and  C_13
REMARK    7  A    between atoms: C_11  and  C_14
REMARK                            x       y       z     vdW  Elec       q    Type
REMARK                         _______ _______ _______ _____ _____    ______ ____
ROOT
ATOM      1  C   UNL     1       3.995   1.141  18.483  0.00  0.00    +0.000 C 
ATOM      2  C   UNL     1       3.141   2.337  18.871  0.00  0.00    +0.000 C 
ATOM      3  O   UNL     1       2.178   2.138  19.611  0.00  0.00    +0.000 OA
ATOM      4  N   UNL     1       3.546   3.583  18.346  0.00  0.00    +0.000 N 
ATOM      5  C   UNL     1       4.523   3.576  17.256  0.00  0.00    +0.000 C 
ATOM      6  C   UNL     1       4.788   4.878  16.633  0.00  0.00    +0.000 A 
ATOM      7  C   UNL     1       5.581   5.234  15.554  0.00  0.00    +0.000 A 
ATOM      8  N   UNL     1       5.545   6.606  15.392  0.00  0.00    +0.000 NA
ATOM      9  C   UNL     1       4.743   7.047  16.338  0.00  0.00    +0.000 A 
ATOM     10  N   UNL     1       4.242   6.030  17.112  0.00  0.00    +0.000 N 
ATOM     11  C   UNL     1       3.367   6.067  18.205  0.00  0.00    +0.000 A 
ATOM     12  C   UNL     1       2.860   7.300  18.657  0.00  0.00    +0.000 A 
ATOM     13  C   UNL     1       2.016   7.340  19.761  0.00  0.00    +0.000 A 
ATOM     14  C   UNL     1       1.691   6.162  20.417  0.00  0.00    +0.000 A 
ATOM     15  C   UNL     1       2.194   4.936  19.960  0.00  0.00    +0.000 A 
ATOM     16  C   UNL     1       3.026   4.847  18.831  0.00  0.00    +0.000 A 
ENDROOT
BRANCH   7  17
ATOM     17  C   UNL     1       6.357   4.310  14.718  0.00  0.00    +0.000 C 
ATOM     18  O   UNL     1       7.585   4.291  14.765  0.00  0.00    +0.000 OA
BRANCH  17  19
ATOM     19  O   UNL     1       5.587   3.531  13.907  0.00  0.00    +0.000 OA
BRANCH  19  20
ATOM     20  C   UNL     1       5.810   3.541  12.472  0.00  0.00    +0.000 C 
ATOM     21  C   UNL     1       6.824   4.623  12.078  0.00  0.00    +0.000 C 
ATOM     22  C   UNL     1       6.391   2.162  12.102  0.00  0.00    +0.000 C 
ATOM     23  C   UNL     1       4.486   3.702  11.714  0.00  0.00    +0.000 C 
ENDBRANCH  19  20
ENDBRANCH  17  19
ENDBRANCH   7  17
TORSDOF 3
ENDMDL
MODEL 2
REMARK VINA RESULT:      -7.2      3.240      7.406
REMARK  Name = 
REMARK  7 active torsions:
REMARK  status: ('A' for Active; 'I' for Inactive)
REMARK    1  A    between atoms: C_1  and  C_2
REMARK    2  A    between atoms: C_7  and  C_8
REMARK    3  A    between atoms: C_8  and  O_10
REMARK    4  A    between atoms: O_10  and  C_11
REMARK    5  A    between atoms: C_11  and  C_12
REMARK    6  A    between atoms: C_11  and  C_13
REMARK    7  A    between atoms: C_11  and  C_14
REMARK                            x       y       z     vdW  Elec       q    Type
REMARK                         _______ _______ _______ _____ _____    ______ ____
ROOT
ATOM      1  C   UNL     1       1.895   3.294  21.594  0.00  0.00    +0.000 C 
ATOM      2  C   UNL     1       2.950   3.399  20.506  0.00  0.00    +0.000 C 
ATOM      3  O   UNL     1       3.729   2.456  20.368  0.00  0.00    +0.000 OA
ATOM      4  N   UNL     1       2.929   4.581  19.735  0.00  0.00    +0.000 N 
ATOM      5  C   UNL     1       2.136   5.704  20.237  0.00  0.00    +0.000 C 
ATOM      6  C   UNL     1       2.276   6.962  19.494  0.00  0.00    +0.000 A 
ATOM      7  C   UNL     1       1.743   8.222  19.716  0.00  0.00    +0.000 A 
ATOM      8  N   UNL     1       2.128   9.068  18.693  0.00  0.00    +0.000 NA
ATOM      9  C   UNL     1       2.877   8.334  17.897  0.00  0.00    +0.000 A 
ATOM     10  N   UNL     1       3.011   7.046  18.351  0.00  0.00    +0.000 N 
ATOM     11  C   UNL     1       3.714   5.961  17.811  0.00  0.00    +0.000 A 
ATOM     12  C   UNL     1       4.435   6.118  16.612  0.00  0.00    +0.000 A 
ATOM     13  C   UNL     1       5.107   5.035  16.060  0.00  0.00    +0.000 A 
ATOM     14  C   UNL     1       5.050   3.800  16.690  0.00  0.00    +0.000 A 
ATOM     15  C   UNL     1       4.334   3.649  17.886  0.00  0.00    +0.000 A 
ATOM     16  C   UNL     1       3.666   4.725  18.494  0.00  0.00    +0.000 A 
ENDROOT
BRANCH   7  17
ATOM     17  C   UNL     1       0.889   8.606  20.847  0.00  0.00    +0.000 C 
ATOM     18  O   UNL     1       0.032   7.841  21.282  0.00  0.00    +0.000 OA
BRANCH  17  19
ATOM     19  O   UNL     1       1.136   9.863  21.314  0.00  0.00    +0.000 OA
BRANCH  19  20
ATOM     20  C   UNL     1       0.119  10.892  21.191  0.00  0.00    +0.000 C 
ATOM     21  C   UNL     1      -0.673  11.045  22.496  0.00  0.00    +0.000 C 
ATOM     22  C   UNL     1       0.856  12.214  20.902  0.00  0.00    +0.000 C 
ATOM     23  C   UNL     1      -0.804  10.608  19.999  0.00  0.00    +0.000 C 
ENDBRANCH  19  20
ENDBRANCH  17  19
ENDBRANCH   7  17
TORSDOF 3
ENDMDL
MODEL 3
REMARK VINA RESULT:      -7.2      3.640      7.106
REMARK  Name = 
REMARK  7 active torsions:
REMARK  status: ('A' for Active; 'I' for Inactive)
REMARK    1  A    between atoms: C_1  and  C_2
REMARK    2  A    between atoms: C_7  and  C_8
REMARK    3  A    between atoms: C_8  and  O_10
REMARK    4  A    between atoms: O_10  and  C_11
REMARK    5  A    between atoms: C_11  and  C_12
REMARK    6  A    between atoms: C_11  and  C_13
REMARK    7  A    between atoms: C_11  and  C_14
REMARK                            x       y       z     vdW  Elec       q    Type
REMARK                         _______ _______ _______ _____ _____    ______ ____
ROOT
ATOM      1  C   UNL     1       5.120   6.340  15.899  0.00  0.00    +0.000 C 
ATOM      2  C   UNL     1       4.619   5.204  16.775  0.00  0.00    +0.000 C 
ATOM      3  O   UNL     1       4.916   4.055  16.451  0.00  0.00    +0.000 OA
ATOM      4  N   UNL     1       3.858   5.581  17.903  0.00  0.00    +0.000 N 
ATOM      5  C   UNL     1       3.359   6.956  17.957  0.00  0.00    +0.000 C 
ATOM      6  C   UNL     1       2.438   7.254  19.060  0.00  0.00    +0.000 A 
ATOM      7  C   UNL     1       1.731   8.402  19.379  0.00  0.00    +0.000 A 
ATOM      8  N   UNL     1       1.040   8.201  20.559  0.00  0.00    +0.000 NA
ATOM      9  C   UNL     1       1.319   6.966  20.919  0.00  0.00    +0.000 A 
ATOM     10  N   UNL     1       2.155   6.341  20.029  0.00  0.00    +0.000 N 
ATOM     11  C   UNL     1       2.686   5.043  20.038  0.00  0.00    +0.000 A 
ATOM     12  C   UNL     1       2.364   4.161  21.087  0.00  0.00    +0.000 A 
ATOM     13  C   UNL     1       2.915   2.885  21.113  0.00  0.00    +0.000 A 
ATOM     14  C   UNL     1       3.789   2.497  20.109  0.00  0.00    +0.000 A 
ATOM     15  C   UNL     1       4.103   3.378  19.064  0.00  0.00    +0.000 A 
ATOM     16  C   UNL     1       3.546   4.665  18.984  0.00  0.00    +0.000 A 
ENDROOT
BRANCH   7  17
ATOM     17  C   UNL     1       1.724   9.648  18.603  0.00  0.00    +0.000 C 
ATOM     18  O   UNL     1       2.061   9.663  17.422  0.00  0.00    +0.000 OA
BRANCH  17  19
ATOM     19  O   UNL     1       1.339  10.738  19.326  0.00  0.00    +0.000 OA
BRANCH  19  20
ATOM     20  C   UNL     1       0.012  11.298  19.138  0.00  0.00    +0.000 C 
ATOM     21  C   UNL     1      -0.856  10.380  18.268  0.00  0.00    +0.000 C 
ATOM     22  C   UNL     1      -0.629  11.403  20.536  0.00  0.00    +0.000 C 
ATOM     23  C   UNL     1       0.093  12.716  18.560  0.00  0.00    +0.000 C 
ENDBRANCH  19  20
ENDBRANCH  17  19
ENDBRANCH   7  17
TORSDOF 3
ENDMDL
MODEL 4
REMARK VINA RESULT:      -7.1      3.225      7.258
REMARK  Name = 
REMARK  7 active torsions:
REMARK  status: ('A' for Active; 'I' for Inactive)
REMARK    1  A    between atoms: C_1  and  C_2
REMARK    2  A    between atoms: C_7  and  C_8
REMARK    3  A    between atoms: C_8  and  O_10
REMARK    4  A    between atoms: O_10  and  C_11
REMARK    5  A    between atoms: C_11  and  C_12
REMARK    6  A    between atoms: C_11  and  C_13
REMARK    7  A    between atoms: C_11  and  C_14
REMARK                            x       y       z     vdW  Elec       q    Type
REMARK                         _______ _______ _______ _____ _____    ______ ____
ROOT
ATOM      1  C   UNL     1       1.823   3.441  21.408  0.00  0.00    +0.000 C 
ATOM      2  C   UNL     1       2.889   3.483  20.326  0.00  0.00    +0.000 C 
ATOM      3  O   UNL     1       3.624   2.503  20.205  0.00  0.00    +0.000 OA
ATOM      4  N   UNL     1       2.928   4.656  19.541  0.00  0.00    +0.000 N 
ATOM      5  C   UNL     1       2.184   5.821  20.024  0.00  0.00    +0.000 C 
ATOM      6  C   UNL     1       2.388   7.062  19.267  0.00  0.00    +0.000 A 
ATOM      7  C   UNL     1       1.913   8.347  19.470  0.00  0.00    +0.000 A 
ATOM      8  N   UNL     1       2.344   9.162  18.439  0.00  0.00    +0.000 NA
ATOM      9  C   UNL     1       3.063   8.384  17.658  0.00  0.00    +0.000 A 
ATOM     10  N   UNL     1       3.134   7.097  18.128  0.00  0.00    +0.000 N 
ATOM     11  C   UNL     1       3.790   5.973  17.606  0.00  0.00    +0.000 A 
ATOM     12  C   UNL     1       4.525   6.083  16.411  0.00  0.00    +0.000 A 
ATOM     13  C   UNL     1       5.150   4.962  15.877  0.00  0.00    +0.000 A 
ATOM     14  C   UNL     1       5.030   3.740  16.521  0.00  0.00    +0.000 A 
ATOM     15  C   UNL     1       4.301   3.637  17.714  0.00  0.00    +0.000 A 
ATOM     16  C   UNL     1       3.679   4.750  18.304  0.00  0.00    +0.000 A 
ENDROOT
BRANCH   7  17
ATOM     17  C   UNL     1       1.071   8.784  20.589  0.00  0.00    +0.000 C 
ATOM     18  O   UNL     1       1.381   8.536  21.752  0.00  0.00    +0.000 OA
BRANCH  17  19
ATOM     19  O   UNL     1      -0.055   9.446  20.198  0.00  0.00    +0.000 OA
BRANCH  19  20
ATOM     20  C   UNL     1      -0.246  10.834  20.580  0.00  0.00    +0.000 C 
ATOM     21  C   UNL     1       1.044  11.641  20.391  0.00  0.00    +0.000 C 
ATOM     22  C   UNL     1      -1.328  11.408  19.644  0.00  0.00    +0.000 C 
ATOM     23  C   UNL     1      -0.776  10.939  22.016  0.00  0.00    +0.000 C 
ENDBRANCH  19  20
ENDBRANCH  17  19
ENDBRANCH   7  17
TORSDOF 3
ENDMDL
MODEL 5
REMARK VINA RESULT:      -6.8      1.031      1.031
REMARK  Name = 
REMARK  7 active torsions:
REMARK  status: ('A' for Active; 'I' for Inactive)
REMARK    1  A    between atoms: C_1  and  C_2
REMARK    2  A    between atoms: C_7  and  C_8
REMARK    3  A    between atoms: C_8  and  O_10
REMARK    4  A    between atoms: O_10  and  C_11
REMARK    5  A    between atoms: C_11  and  C_12
REMARK    6  A    between atoms: C_11  and  C_13
REMARK    7  A    between atoms: C_11  and  C_14
REMARK                            x       y       z     vdW  Elec       q    Type
REMARK                         _______ _______ _______ _____ _____    ______ ____
ROOT
ATOM      1  C   UNL     1       4.583   1.737  20.076  0.00  0.00    +0.000 C 
ATOM      2  C   UNL     1       3.541   2.840  20.149  0.00  0.00    +0.000 C 
ATOM      3  O   UNL     1       2.567   2.662  20.881  0.00  0.00    +0.000 OA
ATOM      4  N   UNL     1       3.798   3.988  19.369  0.00  0.00    +0.000 N 
ATOM      5  C   UNL     1       4.839   3.893  18.344  0.00  0.00    +0.000 C 
ATOM      6  C   UNL     1       4.957   5.051  17.450  0.00  0.00    +0.000 A 
ATOM      7  C   UNL     1       5.764   5.279  16.347  0.00  0.00    +0.000 A 
ATOM      8  N   UNL     1       5.542   6.559  15.875  0.00  0.00    +0.000 NA
ATOM      9  C   UNL     1       4.621   7.067  16.667  0.00  0.00    +0.000 A 
ATOM     10  N   UNL     1       4.219   6.181  17.634  0.00  0.00    +0.000 N 
ATOM     11  C   UNL     1       3.274   6.320  18.658  0.00  0.00    +0.000 A 
ATOM     12  C   UNL     1       2.565   7.529  18.798  0.00  0.00    +0.000 A 
ATOM     13  C   UNL     1       1.649   7.679  19.833  0.00  0.00    +0.000 A 
ATOM     14  C   UNL     1       1.452   6.638  20.729  0.00  0.00    +0.000 A 
ATOM     15  C   UNL     1       2.157   5.436  20.582  0.00  0.00    +0.000 A 
ATOM     16  C   UNL     1       3.069   5.231  19.534  0.00  0.00    +0.000 A 
ENDROOT
BRANCH   7  17
ATOM     17  C   UNL     1       6.721   4.326  15.773  0.00  0.00    +0.000 C 
ATOM     18  O   UNL     1       7.892   4.301  16.144  0.00  0.00    +0.000 OA
BRANCH  17  19
ATOM     19  O   UNL     1       6.183   3.528  14.807  0.00  0.00    +0.000 OA
BRANCH  19  20
ATOM     20  C   UNL     1       6.227   3.947  13.417  0.00  0.00    +0.000 C 
ATOM     21  C   UNL     1       7.322   4.997  13.191  0.00  0.00    +0.000 C 
ATOM     22  C   UNL     1       6.565   2.695  12.585  0.00  0.00    +0.000 C 
ATOM     23  C   UNL     1       4.854   4.452  12.955  0.00  0.00    +0.000 C 
ENDBRANCH  19  20
ENDBRANCH  17  19
ENDBRANCH   7  17
TORSDOF 3
ENDMDL
MODEL 6
REMARK VINA RESULT:      -6.5      4.595      7.211
REMARK  Name = 
REMARK  7 active torsions:
REMARK  status: ('A' for Active; 'I' for Inactive)
REMARK    1  A    between atoms: C_1  and  C_2
REMARK    2  A    between atoms: C_7  and  C_8
REMARK    3  A    between atoms: C_8  and  O_10
REMARK    4  A    between atoms: O_10  and  C_11
REMARK    5  A    between atoms: C_11  and  C_12
REMARK    6  A    between atoms: C_11  and  C_13
REMARK    7  A    between atoms: C_11  and  C_14
REMARK                            x       y       z     vdW  Elec       q    Type
REMARK                         _______ _______ _______ _____ _____    ______ ____
ROOT
ATOM      1  C   UNL     1       0.016   9.256  23.825  0.00  0.00    +0.000 C 
ATOM      2  C   UNL     1      -0.433  10.294  22.810  0.00  0.00    +0.000 C 
ATOM      3  O   UNL     1      -1.274  11.119  23.166  0.00  0.00    +0.000 OA
ATOM      4  N   UNL     1       0.174  10.219  21.537  0.00  0.00    +0.000 N 
ATOM      5  C   UNL     1       0.915   9.000  21.210  0.00  0.00    +0.000 C 
ATOM      6  C   UNL     1       1.386   8.897  19.823  0.00  0.00    +0.000 A 
ATOM      7  C   UNL     1       2.046   7.880  19.153  0.00  0.00    +0.000 A 
ATOM      8  N   UNL     1       2.326   8.289  17.862  0.00  0.00    +0.000 NA
ATOM      9  C   UNL     1       1.834   9.506  17.770  0.00  0.00    +0.000 A 
ATOM     10  N   UNL     1       1.236   9.917  18.934  0.00  0.00    +0.000 N 
ATOM     11  C   UNL     1       0.598  11.123  19.252  0.00  0.00    +0.000 A 
ATOM     12  C   UNL     1       0.501  12.141  18.284  0.00  0.00    +0.000 A 
ATOM     13  C   UNL     1      -0.104  13.350  18.609  0.00  0.00    +0.000 A 
ATOM     14  C   UNL     1      -0.595  13.547  19.891  0.00  0.00    +0.000 A 
ATOM     15  C   UNL     1      -0.500  12.528  20.849  0.00  0.00    +0.000 A 
ATOM     16  C   UNL     1       0.077  11.282  20.555  0.00  0.00    +0.000 A 
ENDROOT
BRANCH   7  17
ATOM     17  C   UNL     1       2.411   6.575  19.718  0.00  0.00    +0.000 C 
ATOM     18  O   UNL     1       1.746   6.064  20.616  0.00  0.00    +0.000 OA
BRANCH  17  19
ATOM     19  O   UNL     1       3.537   6.039  19.168  0.00  0.00    +0.000 OA
BRANCH  19  20
ATOM     20  C   UNL     1       3.447   4.824  18.377  0.00  0.00    +0.000 C 
ATOM     21  C   UNL     1       2.029   4.630  17.824  0.00  0.00    +0.000 C 
ATOM     22  C   UNL     1       4.420   4.990  17.194  0.00  0.00    +0.000 C 
ATOM     23  C   UNL     1       3.910   3.607  19.189  0.00  0.00    +0.000 C 
ENDBRANCH  19  20
ENDBRANCH  17  19
ENDBRANCH   7  17
TORSDOF 3
ENDMDL
MODEL 7
REMARK VINA RESULT:      -6.5      3.787      7.033
REMARK  Name = 
REMARK  7 active torsions:
REMARK  status: ('A' for Active; 'I' for Inactive)
REMARK    1  A    between atoms: C_1  and  C_2
REMARK    2  A    between atoms: C_7  and  C_8
REMARK    3  A    between atoms: C_8  and  O_10
REMARK    4  A    between atoms: O_10  and  C_11
REMARK    5  A    between atoms: C_11  and  C_12
REMARK    6  A    between atoms: C_11  and  C_13
REMARK    7  A    between atoms: C_11  and  C_14
REMARK                            x       y       z     vdW  Elec       q    Type
REMARK                         _______ _______ _______ _____ _____    ______ ____
ROOT
ATOM      1  C   UNL     1       5.105   6.247  15.920  0.00  0.00    +0.000 C 
ATOM      2  C   UNL     1       4.541   5.194  16.859  0.00  0.00    +0.000 C 
ATOM      3  O   UNL     1       4.798   4.014  16.619  0.00  0.00    +0.000 OA
ATOM      4  N   UNL     1       3.773   5.676  17.941  0.00  0.00    +0.000 N 
ATOM      5  C   UNL     1       3.329   7.070  17.890  0.00  0.00    +0.000 C 
ATOM      6  C   UNL     1       2.399   7.478  18.950  0.00  0.00    +0.000 A 
ATOM      7  C   UNL     1       1.732   8.672  19.174  0.00  0.00    +0.000 A 
ATOM      8  N   UNL     1       1.009   8.579  20.348  0.00  0.00    +0.000 NA
ATOM      9  C   UNL     1       1.231   7.361  20.797  0.00  0.00    +0.000 A 
ATOM     10  N   UNL     1       2.060   6.645  19.971  0.00  0.00    +0.000 N 
ATOM     11  C   UNL     1       2.537   5.332  20.080  0.00  0.00    +0.000 A 
ATOM     12  C   UNL     1       2.159   4.536  21.178  0.00  0.00    +0.000 A 
ATOM     13  C   UNL     1       2.657   3.245  21.302  0.00  0.00    +0.000 A 
ATOM     14  C   UNL     1       3.535   2.755  20.347  0.00  0.00    +0.000 A 
ATOM     15  C   UNL     1       3.905   3.549  19.253  0.00  0.00    +0.000 A 
ATOM     16  C   UNL     1       3.402   4.848  19.073  0.00  0.00    +0.000 A 
ENDROOT
BRANCH   7  17
ATOM     17  C   UNL     1       1.791   9.862  18.316  0.00  0.00    +0.000 C 
ATOM     18  O   UNL     1       2.715  10.029  17.524  0.00  0.00    +0.000 OA
BRANCH  17  19
ATOM     19  O   UNL     1       0.756  10.727  18.513  0.00  0.00    +0.000 OA
BRANCH  19  20
ATOM     20  C   UNL     1       1.020  12.068  19.006  0.00  0.00    +0.000 C 
ATOM     21  C   UNL     1       1.269  12.061  20.520  0.00  0.00    +0.000 C 
ATOM     22  C   UNL     1       2.298  12.558  18.298  0.00  0.00    +0.000 C 
ATOM     23  C   UNL     1      -0.116  13.025  18.623  0.00  0.00    +0.000 C 
ENDBRANCH  19  20
ENDBRANCH  17  19
ENDBRANCH   7  17
TORSDOF 3
ENDMDL
MODEL 8
REMARK VINA RESULT:      -6.5      1.163      1.654
REMARK  Name = 
REMARK  7 active torsions:
REMARK  status: ('A' for Active; 'I' for Inactive)
REMARK    1  A    between atoms: C_1  and  C_2
REMARK    2  A    between atoms: C_7  and  C_8
REMARK    3  A    between atoms: C_8  and  O_10
REMARK    4  A    between atoms: O_10  and  C_11
REMARK    5  A    between atoms: C_11  and  C_12
REMARK    6  A    between atoms: C_11  and  C_13
REMARK    7  A    between atoms: C_11  and  C_14
REMARK                            x       y       z     vdW  Elec       q    Type
REMARK                         _______ _______ _______ _____ _____    ______ ____
ROOT
ATOM      1  C   UNL     1       3.521   1.032  18.894  0.00  0.00    +0.000 C 
ATOM      2  C   UNL     1       2.665   2.255  19.177  0.00  0.00    +0.000 C 
ATOM      3  O   UNL     1       1.524   2.071  19.600  0.00  0.00    +0.000 OA
ATOM      4  N   UNL     1       3.272   3.506  18.935  0.00  0.00    +0.000 N 
ATOM      5  C   UNL     1       4.512   3.519  18.156  0.00  0.00    +0.000 C 
ATOM      6  C   UNL     1       5.015   4.848  17.789  0.00  0.00    +0.000 A 
ATOM      7  C   UNL     1       6.098   5.236  17.015  0.00  0.00    +0.000 A 
ATOM      8  N   UNL     1       6.188   6.616  17.015  0.00  0.00    +0.000 NA
ATOM      9  C   UNL     1       5.182   7.030  17.755  0.00  0.00    +0.000 A 
ATOM     10  N   UNL     1       4.427   5.991  18.237  0.00  0.00    +0.000 N 
ATOM     11  C   UNL     1       3.285   5.997  19.050  0.00  0.00    +0.000 A 
ATOM     12  C   UNL     1       2.746   7.220  19.492  0.00  0.00    +0.000 A 
ATOM     13  C   UNL     1       1.632   7.226  20.323  0.00  0.00    +0.000 A 
ATOM     14  C   UNL     1       1.068   6.023  20.721  0.00  0.00    +0.000 A 
ATOM     15  C   UNL     1       1.606   4.808  20.273  0.00  0.00    +0.000 A 
ATOM     16  C   UNL     1       2.712   4.757  19.409  0.00  0.00    +0.000 A 
ENDROOT
BRANCH   7  17
ATOM     17  C   UNL     1       7.020   4.334  16.316  0.00  0.00    +0.000 C 
ATOM     18  O   UNL     1       8.188   4.216  16.677  0.00  0.00    +0.000 OA
BRANCH  17  19
ATOM     19  O   UNL     1       6.455   3.693  15.254  0.00  0.00    +0.000 OA
BRANCH  19  20
ATOM     20  C   UNL     1       6.362   4.365  13.970  0.00  0.00    +0.000 C 
ATOM     21  C   UNL     1       6.119   3.361  12.836  0.00  0.00    +0.000 C 
ATOM     22  C   UNL     1       5.153   5.317  14.052  0.00  0.00    +0.000 C 
ATOM     23  C   UNL     1       7.608   5.222  13.710  0.00  0.00    +0.000 C 
ENDBRANCH  19  20
ENDBRANCH  17  19
ENDBRANCH   7  17
TORSDOF 3
ENDMDL
MODEL 9
REMARK VINA RESULT:      -6.5      2.475      3.817
REMARK  Name = 
REMARK  7 active torsions:
REMARK  status: ('A' for Active; 'I' for Inactive)
REMARK    1  A    between atoms: C_1  and  C_2
REMARK    2  A    between atoms: C_7  and  C_8
REMARK    3  A    between atoms: C_8  and  O_10
REMARK    4  A    between atoms: O_10  and  C_11
REMARK    5  A    between atoms: C_11  and  C_12
REMARK    6  A    between atoms: C_11  and  C_13
REMARK    7  A    between atoms: C_11  and  C_14
REMARK                            x       y       z     vdW  Elec       q    Type
REMARK                         _______ _______ _______ _____ _____    ______ ____
ROOT
ATOM      1  C   UNL     1       2.358   8.881  17.756  0.00  0.00    +0.000 C 
ATOM      2  C   UNL     1       2.080   7.868  18.854  0.00  0.00    +0.000 C 
ATOM      3  O   UNL     1       1.148   8.097  19.624  0.00  0.00    +0.000 OA
ATOM      4  N   UNL     1       2.924   6.737  18.881  0.00  0.00    +0.000 N 
ATOM      5  C   UNL     1       4.151   6.787  18.085  0.00  0.00    +0.000 C 
ATOM      6  C   UNL     1       5.075   5.662  18.273  0.00  0.00    +0.000 A 
ATOM      7  C   UNL     1       6.334   5.413  17.751  0.00  0.00    +0.000 A 
ATOM      8  N   UNL     1       6.775   4.178  18.188  0.00  0.00    +0.000 NA
ATOM      9  C   UNL     1       5.811   3.717  18.956  0.00  0.00    +0.000 A 
ATOM     10  N   UNL     1       4.759   4.592  19.053  0.00  0.00    +0.000 N 
ATOM     11  C   UNL     1       3.554   4.490  19.761  0.00  0.00    +0.000 A 
ATOM     12  C   UNL     1       3.288   3.341  20.531  0.00  0.00    +0.000 A 
ATOM     13  C   UNL     1       2.080   3.226  21.208  0.00  0.00    +0.000 A 
ATOM     14  C   UNL     1       1.139   4.240  21.108  0.00  0.00    +0.000 A 
ATOM     15  C   UNL     1       1.411   5.384  20.344  0.00  0.00    +0.000 A 
ATOM     16  C   UNL     1       2.630   5.555  19.668  0.00  0.00    +0.000 A 
ENDROOT
BRANCH   7  17
ATOM     17  C   UNL     1       7.085   6.305  16.859  0.00  0.00    +0.000 C 
ATOM     18  O   UNL     1       7.211   7.500  17.115  0.00  0.00    +0.000 OA
BRANCH  17  19
ATOM     19  O   UNL     1       7.580   5.680  15.753  0.00  0.00    +0.000 OA
BRANCH  19  20
ATOM     20  C   UNL     1       6.668   5.168  14.744  0.00  0.00    +0.000 C 
ATOM     21  C   UNL     1       5.405   6.033  14.652  0.00  0.00    +0.000 C 
ATOM     22  C   UNL     1       7.412   5.237  13.396  0.00  0.00    +0.000 C 
ATOM     23  C   UNL     1       6.329   3.696  15.010  0.00  0.00    +0.000 C 
ENDBRANCH  19  20
ENDBRANCH  17  19
ENDBRANCH   7  17
TORSDOF 3
ENDMDL
