MODEL 1
REMARK VINA RESULT:      -9.0      0.000      0.000
REMARK  Name = 
REMARK  6 active torsions:
REMARK  status: ('A' for Active; 'I' for Inactive)
REMARK    1  A    between atoms: C_1  and  C_2
REMARK    2  A    between atoms: C_2  and  C_3
REMARK    3  A    between atoms: C_2  and  C_4
REMARK    4  A    between atoms: N_10  and  C_11
REMARK    5  A    between atoms: C_11  and  C_12
REMARK    6  A    between atoms: N_14  and  C_15
REMARK                            x       y       z     vdW  Elec       q    Type
REMARK                         _______ _______ _______ _____ _____    ______ ____
ROOT
ATOM      1  C   UNL     1       3.244   3.672  20.146  0.00  0.00    +0.000 A 
ATOM      2  N   UNL     1       4.077   2.663  20.369  0.00  0.00    +0.000 NA
ATOM      3  N   UNL     1       5.217   2.864  19.643  0.00  0.00    +0.000 NA
ATOM      4  C   UNL     1       5.090   4.002  18.999  0.00  0.00    +0.000 A 
ATOM      5  C   UNL     1       6.053   4.580  18.108  0.00  0.00    +0.000 A 
ATOM      6  O   UNL     1       7.132   4.058  17.827  0.00  0.00    +0.000 OA
ATOM      7  N   UNL     1       5.694   5.826  17.568  0.00  0.00    +0.000 N 
ATOM      8  C   UNL     1       4.430   6.441  17.872  0.00  0.00    +0.000 A 
ATOM      9  C   UNL     1       4.025   7.631  17.252  0.00  0.00    +0.000 A 
ATOM     10  C   UNL     1       2.860   8.293  17.643  0.00  0.00    +0.000 A 
ATOM     11  C   UNL     1       2.096   7.796  18.687  0.00  0.00    +0.000 A 
ATOM     12  C   UNL     1       2.440   6.583  19.280  0.00  0.00    +0.000 A 
ATOM     13  C   UNL     1       3.563   5.877  18.836  0.00  0.00    +0.000 A 
ATOM     14  N   UNL     1       3.898   4.601  19.339  0.00  0.00    +0.000 N 
ENDROOT
BRANCH   1  16
ATOM     15  C   UNL     1       0.846   3.279  19.528  0.00  0.00    +0.000 C 
ATOM     16  C   UNL     1       1.824   3.697  20.637  0.00  0.00    +0.000 C 
ATOM     17  C   UNL     1       1.639   2.772  21.841  0.00  0.00    +0.000 C 
ENDBRANCH   1  16
BRANCH   7  18
ATOM     18  C   UNL     1       6.754   6.563  16.861  0.00  0.00    +0.000 C 
BRANCH  18  19
ATOM     19  C   UNL     1       7.591   7.513  17.727  0.00  0.00    +0.000 C 
ATOM     20  O   UNL     1       8.151   7.102  18.744  0.00  0.00    +0.000 OA
ATOM     21  N   UNL     1       7.643   8.832  17.285  0.00  0.00    +0.000 N 
ATOM     22  H   UNL     1       6.791   9.176  16.850  0.00  0.00    +0.000 HD
BRANCH  21  23
ATOM     23  C   UNL     1       8.402   9.764  18.035  0.00  0.00    +0.000 A 
ATOM     24  C   UNL     1       8.993   9.395  19.253  0.00  0.00    +0.000 A 
ATOM     25  C   UNL     1       9.559  10.364  20.082  0.00  0.00    +0.000 A 
ATOM     26  C   UNL     1       9.526  11.695  19.689  0.00  0.00    +0.000 A 
ATOM     27  F   UNL     1       9.984  12.640  20.520  0.00  0.00    +0.000 F 
ATOM     28  C   UNL     1       9.005  12.063  18.451  0.00  0.00    +0.000 A 
ATOM     29  C   UNL     1       8.471  11.090  17.600  0.00  0.00    +0.000 A 
ENDBRANCH  21  23
ENDBRANCH  18  19
ENDBRANCH   7  18
TORSDOF 4
ENDMDL
MODEL 2
REMARK VINA RESULT:      -8.3      4.181      5.892
REMARK  Name = 
REMARK  6 active torsions:
REMARK  status: ('A' for Active; 'I' for Inactive)
REMARK    1  A    between atoms: C_1  and  C_2
REMARK    2  A    between atoms: C_2  and  C_3
REMARK    3  A    between atoms: C_2  and  C_4
REMARK    4  A    between atoms: N_10  and  C_11
REMARK    5  A    between atoms: C_11  and  C_12
REMARK    6  A    between atoms: N_14  and  C_15
REMARK                            x       y       z     vdW  Elec       q    Type
REMARK                         _______ _______ _______ _____ _____    ______ ____
ROOT
ATOM      1  C   UNL     1       3.132   3.617  20.323  0.00  0.00    +0.000 A 
ATOM      2  N   UNL     1       3.922   2.553  20.395  0.00  0.00    +0.000 NA
ATOM      3  N   UNL     1       4.925   2.686  19.475  0.00  0.00    +0.000 NA
ATOM      4  C   UNL     1       4.761   3.836  18.863  0.00  0.00    +0.000 A 
ATOM      5  C   UNL     1       5.585   4.359  17.813  0.00  0.00    +0.000 A 
ATOM      6  O   UNL     1       6.558   3.770  17.343  0.00  0.00    +0.000 OA
ATOM      7  N   UNL     1       5.220   5.632  17.345  0.00  0.00    +0.000 N 
ATOM      8  C   UNL     1       4.075   6.326  17.871  0.00  0.00    +0.000 A 
ATOM      9  C   UNL     1       3.646   7.547  17.331  0.00  0.00    +0.000 A 
ATOM     10  C   UNL     1       2.617   8.280  17.924  0.00  0.00    +0.000 A 
ATOM     11  C   UNL     1       2.021   7.823  19.089  0.00  0.00    +0.000 A 
ATOM     12  C   UNL     1       2.383   6.585  19.612  0.00  0.00    +0.000 A 
ATOM     13  C   UNL     1       3.358   5.810  18.975  0.00  0.00    +0.000 A 
ATOM     14  N   UNL     1       3.692   4.509  19.411  0.00  0.00    +0.000 N 
ENDROOT
BRANCH   1  16
ATOM     15  C   UNL     1       0.636   3.678  20.093  0.00  0.00    +0.000 C 
ATOM     16  C   UNL     1       1.828   3.731  21.061  0.00  0.00    +0.000 C 
ATOM     17  C   UNL     1       1.680   2.615  22.098  0.00  0.00    +0.000 C 
ENDBRANCH   1  16
BRANCH   7  18
ATOM     18  C   UNL     1       6.183   6.304  16.458  0.00  0.00    +0.000 C 
BRANCH  18  19
ATOM     19  C   UNL     1       6.563   5.535  15.187  0.00  0.00    +0.000 C 
ATOM     20  O   UNL     1       7.723   5.542  14.775  0.00  0.00    +0.000 OA
ATOM     21  N   UNL     1       5.514   4.869  14.557  0.00  0.00    +0.000 N 
ATOM     22  H   UNL     1       4.614   5.339  14.604  0.00  0.00    +0.000 HD
BRANCH  21  23
ATOM     23  C   UNL     1       5.794   4.134  13.379  0.00  0.00    +0.000 A 
ATOM     24  C   UNL     1       4.778   3.434  12.711  0.00  0.00    +0.000 A 
ATOM     25  C   UNL     1       5.096   2.550  11.679  0.00  0.00    +0.000 A 
ATOM     26  C   UNL     1       6.426   2.368  11.327  0.00  0.00    +0.000 A 
ATOM     27  F   UNL     1       6.745   1.454  10.403  0.00  0.00    +0.000 F 
ATOM     28  C   UNL     1       7.435   3.110  11.937  0.00  0.00    +0.000 A 
ATOM     29  C   UNL     1       7.118   4.025  12.946  0.00  0.00    +0.000 A 
ENDBRANCH  21  23
ENDBRANCH  18  19
ENDBRANCH   7  18
TORSDOF 4
ENDMDL
MODEL 3
REMARK VINA RESULT:      -8.2      6.353      8.923
REMARK  Name = 
REMARK  6 active torsions:
REMARK  status: ('A' for Active; 'I' for Inactive)
REMARK    1  A    between atoms: C_1  and  C_2
REMARK    2  A    between atoms: C_2  and  C_3
REMARK    3  A    between atoms: C_2  and  C_4
REMARK    4  A    between atoms: N_10  and  C_11
REMARK    5  A    between atoms: C_11  and  C_12
REMARK    6  A    between atoms: N_14  and  C_15
REMARK                            x       y       z     vdW  Elec       q    Type
REMARK                         _______ _______ _______ _____ _____    ______ ____
ROOT
ATOM      1  C   UNL     1      -2.424  12.559  21.732  0.00  0.00    +0.000 A 
ATOM      2  N   UNL     1      -1.758  12.810  22.852  0.00  0.00    +0.000 NA
ATOM      3  N   UNL     1      -0.552  12.169  22.800  0.00  0.00    +0.000 NA
ATOM      4  C   UNL     1      -0.472  11.551  21.644  0.00  0.00    +0.000 A 
ATOM      5  C   UNL     1       0.623  10.745  21.191  0.00  0.00    +0.000 A 
ATOM      6  O   UNL     1       1.636  10.523  21.855  0.00  0.00    +0.000 OA
ATOM      7  N   UNL     1       0.481  10.218  19.897  0.00  0.00    +0.000 N 
ATOM      8  C   UNL     1      -0.703  10.452  19.116  0.00  0.00    +0.000 A 
ATOM      9  C   UNL     1      -0.893   9.839  17.870  0.00  0.00    +0.000 A 
ATOM     10  C   UNL     1      -1.979  10.169  17.057  0.00  0.00    +0.000 A 
ATOM     11  C   UNL     1      -2.878  11.143  17.461  0.00  0.00    +0.000 A 
ATOM     12  C   UNL     1      -2.750  11.724  18.721  0.00  0.00    +0.000 A 
ATOM     13  C   UNL     1      -1.708  11.337  19.570  0.00  0.00    +0.000 A 
ATOM     14  N   UNL     1      -1.591  11.826  20.890  0.00  0.00    +0.000 N 
ENDROOT
BRANCH   1  16
ATOM     15  C   UNL     1      -4.664  12.853  22.821  0.00  0.00    +0.000 C 
ATOM     16  C   UNL     1      -3.858  12.952  21.516  0.00  0.00    +0.000 C 
ATOM     17  C   UNL     1      -3.964  14.378  20.971  0.00  0.00    +0.000 C 
ENDBRANCH   1  16
BRANCH   7  18
ATOM     18  C   UNL     1       1.681   9.606  19.304  0.00  0.00    +0.000 C 
BRANCH  18  19
ATOM     19  C   UNL     1       1.829   8.094  19.517  0.00  0.00    +0.000 C 
ATOM     20  O   UNL     1       1.346   7.553  20.512  0.00  0.00    +0.000 OA
ATOM     21  N   UNL     1       2.545   7.421  18.531  0.00  0.00    +0.000 N 
ATOM     22  H   UNL     1       3.315   7.943  18.123  0.00  0.00    +0.000 HD
BRANCH  21  23
ATOM     23  C   UNL     1       2.716   6.021  18.661  0.00  0.00    +0.000 A 
ATOM     24  C   UNL     1       3.767   5.493  19.428  0.00  0.00    +0.000 A 
ATOM     25  C   UNL     1       4.053   4.129  19.383  0.00  0.00    +0.000 A 
ATOM     26  C   UNL     1       3.292   3.302  18.569  0.00  0.00    +0.000 A 
ATOM     27  F   UNL     1       3.619   2.009  18.450  0.00  0.00    +0.000 F 
ATOM     28  C   UNL     1       2.204   3.804  17.858  0.00  0.00    +0.000 A 
ATOM     29  C   UNL     1       1.890   5.164  17.929  0.00  0.00    +0.000 A 
ENDBRANCH  21  23
ENDBRANCH  18  19
ENDBRANCH   7  18
TORSDOF 4
ENDMDL
MODEL 4
REMARK VINA RESULT:      -8.1      6.865      9.629
REMARK  Name = 
REMARK  6 active torsions:
REMARK  status: ('A' for Active; 'I' for Inactive)
REMARK    1  A    between atoms: C_1  and  C_2
REMARK    2  A    between atoms: C_2  and  C_3
REMARK    3  A    between atoms: C_2  and  C_4
REMARK    4  A    between atoms: N_10  and  C_11
REMARK    5  A    between atoms: C_11  and  C_12
REMARK    6  A    between atoms: N_14  and  C_15
REMARK                            x       y       z     vdW  Elec       q    Type
REMARK                         _______ _______ _______ _____ _____    ______ ____
ROOT
ATOM      1  C   UNL     1      -3.010  12.841  22.006  0.00  0.00    +0.000 A 
ATOM      2  N   UNL     1      -2.933  12.900  23.329  0.00  0.00    +0.000 NA
ATOM      3  N   UNL     1      -1.955  12.044  23.753  0.00  0.00    +0.000 NA
ATOM      4  C   UNL     1      -1.422  11.483  22.691  0.00  0.00    +0.000 A 
ATOM      5  C   UNL     1      -0.372  10.508  22.689  0.00  0.00    +0.000 A 
ATOM      6  O   UNL     1       0.156  10.061  23.708  0.00  0.00    +0.000 OA
ATOM      7  N   UNL     1       0.049  10.086  21.418  0.00  0.00    +0.000 N 
ATOM      8  C   UNL     1      -0.569  10.584  20.219  0.00  0.00    +0.000 A 
ATOM      9  C   UNL     1      -0.225  10.085  18.955  0.00  0.00    +0.000 A 
ATOM     10  C   UNL     1      -0.729  10.659  17.786  0.00  0.00    +0.000 A 
ATOM     11  C   UNL     1      -1.561  11.765  17.859  0.00  0.00    +0.000 A 
ATOM     12  C   UNL     1      -1.970  12.243  19.101  0.00  0.00    +0.000 A 
ATOM     13  C   UNL     1      -1.530  11.620  20.274  0.00  0.00    +0.000 A 
ATOM     14  N   UNL     1      -1.990  12.007  21.552  0.00  0.00    +0.000 N 
ENDROOT
BRANCH   1  16
ATOM     15  C   UNL     1      -5.266  12.556  20.951  0.00  0.00    +0.000 C 
ATOM     16  C   UNL     1      -4.092  13.512  21.208  0.00  0.00    +0.000 C 
ATOM     17  C   UNL     1      -4.612  14.761  21.924  0.00  0.00    +0.000 C 
ENDBRANCH   1  16
BRANCH   7  18
ATOM     18  C   UNL     1       1.284   9.288  21.368  0.00  0.00    +0.000 C 
BRANCH  18  19
ATOM     19  C   UNL     1       1.112   7.827  20.935  0.00  0.00    +0.000 C 
ATOM     20  O   UNL     1       0.051   7.235  21.137  0.00  0.00    +0.000 OA
ATOM     21  N   UNL     1       2.228   7.247  20.335  0.00  0.00    +0.000 N 
ATOM     22  H   UNL     1       3.124   7.556  20.701  0.00  0.00    +0.000 HD
BRANCH  21  23
ATOM     23  C   UNL     1       2.138   5.900  19.907  0.00  0.00    +0.000 A 
ATOM     24  C   UNL     1       2.147   5.579  18.541  0.00  0.00    +0.000 A 
ATOM     25  C   UNL     1       1.851   4.281  18.123  0.00  0.00    +0.000 A 
ATOM     26  C   UNL     1       1.544   3.316  19.072  0.00  0.00    +0.000 A 
ATOM     27  F   UNL     1       1.169   2.094  18.673  0.00  0.00    +0.000 F 
ATOM     28  C   UNL     1       1.601   3.608  20.432  0.00  0.00    +0.000 A 
ATOM     29  C   UNL     1       1.934   4.897  20.858  0.00  0.00    +0.000 A 
ENDBRANCH  21  23
ENDBRANCH  18  19
ENDBRANCH   7  18
TORSDOF 4
ENDMDL
MODEL 5
REMARK VINA RESULT:      -7.9      6.665      9.431
REMARK  Name = 
REMARK  6 active torsions:
REMARK  status: ('A' for Active; 'I' for Inactive)
REMARK    1  A    between atoms: C_1  and  C_2
REMARK    2  A    between atoms: C_2  and  C_3
REMARK    3  A    between atoms: C_2  and  C_4
REMARK    4  A    between atoms: N_10  and  C_11
REMARK    5  A    between atoms: C_11  and  C_12
REMARK    6  A    between atoms: N_14  and  C_15
REMARK                            x       y       z     vdW  Elec       q    Type
REMARK                         _______ _______ _______ _____ _____    ______ ____
ROOT
ATOM      1  C   UNL     1      -2.768  12.738  21.897  0.00  0.00    +0.000 A 
ATOM      2  N   UNL     1      -2.598  12.825  23.210  0.00  0.00    +0.000 NA
ATOM      3  N   UNL     1      -1.598  11.971  23.582  0.00  0.00    +0.000 NA
ATOM      4  C   UNL     1      -1.144  11.384  22.498  0.00  0.00    +0.000 A 
ATOM      5  C   UNL     1      -0.102  10.402  22.444  0.00  0.00    +0.000 A 
ATOM      6  O   UNL     1       0.494   9.974  23.432  0.00  0.00    +0.000 OA
ATOM      7  N   UNL     1       0.226   9.950  21.155  0.00  0.00    +0.000 N 
ATOM      8  C   UNL     1      -0.472  10.427  19.992  0.00  0.00    +0.000 A 
ATOM      9  C   UNL     1      -0.220   9.899  18.718  0.00  0.00    +0.000 A 
ATOM     10  C   UNL     1      -0.803  10.451  17.575  0.00  0.00    +0.000 A 
ATOM     11  C   UNL     1      -1.622  11.564  17.682  0.00  0.00    +0.000 A 
ATOM     12  C   UNL     1      -1.940  12.071  18.940  0.00  0.00    +0.000 A 
ATOM     13  C   UNL     1      -1.421  11.470  20.092  0.00  0.00    +0.000 A 
ATOM     14  N   UNL     1      -1.788  11.887  21.390  0.00  0.00    +0.000 N 
ENDROOT
BRANCH   1  16
ATOM     15  C   UNL     1      -5.247  12.750  21.518  0.00  0.00    +0.000 C 
ATOM     16  C   UNL     1      -3.900  13.400  21.163  0.00  0.00    +0.000 C 
ATOM     17  C   UNL     1      -3.968  14.894  21.483  0.00  0.00    +0.000 C 
ENDBRANCH   1  16
BRANCH   7  18
ATOM     18  C   UNL     1       1.451   9.143  21.036  0.00  0.00    +0.000 C 
BRANCH  18  19
ATOM     19  C   UNL     1       1.235   7.640  20.819  0.00  0.00    +0.000 C 
ATOM     20  O   UNL     1       0.193   7.097  21.190  0.00  0.00    +0.000 OA
ATOM     21  N   UNL     1       2.290   6.968  20.206  0.00  0.00    +0.000 N 
ATOM     22  H   UNL     1       3.217   7.308  20.448  0.00  0.00    +0.000 HD
BRANCH  21  23
ATOM     23  C   UNL     1       2.158   5.578  19.971  0.00  0.00    +0.000 A 
ATOM     24  C   UNL     1       2.251   4.658  21.027  0.00  0.00    +0.000 A 
ATOM     25  C   UNL     1       2.328   3.290  20.763  0.00  0.00    +0.000 A 
ATOM     26  C   UNL     1       2.315   2.852  19.446  0.00  0.00    +0.000 A 
ATOM     27  F   UNL     1       2.481   1.550  19.182  0.00  0.00    +0.000 F 
ATOM     28  C   UNL     1       2.152   3.751  18.395  0.00  0.00    +0.000 A 
ATOM     29  C   UNL     1       2.037   5.120  18.657  0.00  0.00    +0.000 A 
ENDBRANCH  21  23
ENDBRANCH  18  19
ENDBRANCH   7  18
TORSDOF 4
ENDMDL
MODEL 6
REMARK VINA RESULT:      -7.7      7.604      9.872
REMARK  Name = 
REMARK  6 active torsions:
REMARK  status: ('A' for Active; 'I' for Inactive)
REMARK    1  A    between atoms: C_1  and  C_2
REMARK    2  A    between atoms: C_2  and  C_3
REMARK    3  A    between atoms: C_2  and  C_4
REMARK    4  A    between atoms: N_10  and  C_11
REMARK    5  A    between atoms: C_11  and  C_12
REMARK    6  A    between atoms: N_14  and  C_15
REMARK                            x       y       z     vdW  Elec       q    Type
REMARK                         _______ _______ _______ _____ _____    ______ ____
ROOT
ATOM      1  C   UNL     1      -5.482  12.398  19.648  0.00  0.00    +0.000 A 
ATOM      2  N   UNL     1      -5.358  13.086  20.776  0.00  0.00    +0.000 NA
ATOM      3  N   UNL     1      -4.030  13.183  21.089  0.00  0.00    +0.000 NA
ATOM      4  C   UNL     1      -3.348  12.578  20.144  0.00  0.00    +0.000 A 
ATOM      5  C   UNL     1      -1.923  12.432  20.093  0.00  0.00    +0.000 A 
ATOM      6  O   UNL     1      -1.155  12.856  20.957  0.00  0.00    +0.000 OA
ATOM      7  N   UNL     1      -1.431  11.771  18.955  0.00  0.00    +0.000 N 
ATOM      8  C   UNL     1      -2.315  11.253  17.946  0.00  0.00    +0.000 A 
ATOM      9  C   UNL     1      -1.833  10.501  16.866  0.00  0.00    +0.000 A 
ATOM     10  C   UNL     1      -2.674  10.111  15.821  0.00  0.00    +0.000 A 
ATOM     11  C   UNL     1      -4.005  10.497  15.820  0.00  0.00    +0.000 A 
ATOM     12  C   UNL     1      -4.525  11.192  16.910  0.00  0.00    +0.000 A 
ATOM     13  C   UNL     1      -3.703  11.514  17.995  0.00  0.00    +0.000 A 
ATOM     14  N   UNL     1      -4.204  12.132  19.162  0.00  0.00    +0.000 N 
ENDROOT
BRANCH   1  16
ATOM     15  C   UNL     1      -7.686  11.338  20.201  0.00  0.00    +0.000 C 
ATOM     16  C   UNL     1      -6.805  11.944  19.098  0.00  0.00    +0.000 C 
ATOM     17  C   UNL     1      -7.556  13.102  18.438  0.00  0.00    +0.000 C 
ENDBRANCH   1  16
BRANCH   7  18
ATOM     18  C   UNL     1       0.024  11.829  18.743  0.00  0.00    +0.000 C 
BRANCH  18  19
ATOM     19  C   UNL     1       0.814  10.607  19.228  0.00  0.00    +0.000 C 
ATOM     20  O   UNL     1       1.050  10.449  20.426  0.00  0.00    +0.000 OA
ATOM     21  N   UNL     1       1.239   9.736  18.227  0.00  0.00    +0.000 N 
ATOM     22  H   UNL     1       1.496  10.179  17.350  0.00  0.00    +0.000 HD
BRANCH  21  23
ATOM     23  C   UNL     1       1.970   8.583  18.604  0.00  0.00    +0.000 A 
ATOM     24  C   UNL     1       2.911   8.013  17.733  0.00  0.00    +0.000 A 
ATOM     25  C   UNL     1       3.472   6.768  18.022  0.00  0.00    +0.000 A 
ATOM     26  C   UNL     1       3.085   6.101  19.176  0.00  0.00    +0.000 A 
ATOM     27  F   UNL     1       3.549   4.868  19.412  0.00  0.00    +0.000 F 
ATOM     28  C   UNL     1       2.205   6.690  20.081  0.00  0.00    +0.000 A 
ATOM     29  C   UNL     1       1.669   7.953  19.814  0.00  0.00    +0.000 A 
ENDBRANCH  21  23
ENDBRANCH  18  19
ENDBRANCH   7  18
TORSDOF 4
ENDMDL
MODEL 7
REMARK VINA RESULT:      -7.7      7.577      9.828
REMARK  Name = 
REMARK  6 active torsions:
REMARK  status: ('A' for Active; 'I' for Inactive)
REMARK    1  A    between atoms: C_1  and  C_2
REMARK    2  A    between atoms: C_2  and  C_3
REMARK    3  A    between atoms: C_2  and  C_4
REMARK    4  A    between atoms: N_10  and  C_11
REMARK    5  A    between atoms: C_11  and  C_12
REMARK    6  A    between atoms: N_14  and  C_15
REMARK                            x       y       z     vdW  Elec       q    Type
REMARK                         _______ _______ _______ _____ _____    ______ ____
ROOT
ATOM      1  C   UNL     1      -2.301  13.884  23.326  0.00  0.00    +0.000 A 
ATOM      2  N   UNL     1      -1.163  14.165  23.949  0.00  0.00    +0.000 NA
ATOM      3  N   UNL     1      -0.120  13.740  23.174  0.00  0.00    +0.000 NA
ATOM      4  C   UNL     1      -0.618  13.225  22.073  0.00  0.00    +0.000 A 
ATOM      5  C   UNL     1       0.131  12.647  20.997  0.00  0.00    +0.000 A 
ATOM      6  O   UNL     1       1.359  12.552  20.985  0.00  0.00    +0.000 OA
ATOM      7  N   UNL     1      -0.635  12.194  19.911  0.00  0.00    +0.000 N 
ATOM      8  C   UNL     1      -2.070  12.281  19.916  0.00  0.00    +0.000 A 
ATOM      9  C   UNL     1      -2.842  11.733  18.883  0.00  0.00    +0.000 A 
ATOM     10  C   UNL     1      -4.223  11.931  18.825  0.00  0.00    +0.000 A 
ATOM     11  C   UNL     1      -4.853  12.711  19.781  0.00  0.00    +0.000 A 
ATOM     12  C   UNL     1      -4.122  13.216  20.854  0.00  0.00    +0.000 A 
ATOM     13  C   UNL     1      -2.753  12.952  20.957  0.00  0.00    +0.000 A 
ATOM     14  N   UNL     1      -1.988  13.360  22.073  0.00  0.00    +0.000 N 
ENDROOT
BRANCH   1  16
ATOM     15  C   UNL     1      -4.112  12.741  24.630  0.00  0.00    +0.000 C 
ATOM     16  C   UNL     1      -3.653  14.045  23.959  0.00  0.00    +0.000 C 
ATOM     17  C   UNL     1      -3.646  15.166  25.001  0.00  0.00    +0.000 C 
ENDBRANCH   1  16
BRANCH   7  18
ATOM     18  C   UNL     1       0.106  11.835  18.691  0.00  0.00    +0.000 C 
BRANCH  18  19
ATOM     19  C   UNL     1       0.425  10.344  18.525  0.00  0.00    +0.000 C 
ATOM     20  O   UNL     1      -0.251   9.639  17.774  0.00  0.00    +0.000 OA
ATOM     21  N   UNL     1       1.494   9.875  19.283  0.00  0.00    +0.000 N 
ATOM     22  H   UNL     1       1.599  10.307  20.197  0.00  0.00    +0.000 HD
BRANCH  21  23
ATOM     23  C   UNL     1       1.848   8.507  19.175  0.00  0.00    +0.000 A 
ATOM     24  C   UNL     1       1.635   7.624  20.245  0.00  0.00    +0.000 A 
ATOM     25  C   UNL     1       2.171   6.336  20.209  0.00  0.00    +0.000 A 
ATOM     26  C   UNL     1       2.920   5.943  19.109  0.00  0.00    +0.000 A 
ATOM     27  F   UNL     1       3.514   4.743  19.110  0.00  0.00    +0.000 F 
ATOM     28  C   UNL     1       3.078   6.788  18.013  0.00  0.00    +0.000 A 
ATOM     29  C   UNL     1       2.511   8.066  18.028  0.00  0.00    +0.000 A 
ENDBRANCH  21  23
ENDBRANCH  18  19
ENDBRANCH   7  18
TORSDOF 4
ENDMDL
MODEL 8
REMARK VINA RESULT:      -7.6      7.023      9.779
REMARK  Name = 
REMARK  6 active torsions:
REMARK  status: ('A' for Active; 'I' for Inactive)
REMARK    1  A    between atoms: C_1  and  C_2
REMARK    2  A    between atoms: C_2  and  C_3
REMARK    3  A    between atoms: C_2  and  C_4
REMARK    4  A    between atoms: N_10  and  C_11
REMARK    5  A    between atoms: C_11  and  C_12
REMARK    6  A    between atoms: N_14  and  C_15
REMARK                            x       y       z     vdW  Elec       q    Type
REMARK                         _______ _______ _______ _____ _____    ______ ____
ROOT
ATOM      1  C   UNL     1      -2.660  13.442  21.855  0.00  0.00    +0.000 A 
ATOM      2  N   UNL     1      -3.219  13.049  22.993  0.00  0.00    +0.000 NA
ATOM      3  N   UNL     1      -2.585  11.918  23.428  0.00  0.00    +0.000 NA
ATOM      4  C   UNL     1      -1.629  11.638  22.572  0.00  0.00    +0.000 A 
ATOM      5  C   UNL     1      -0.732  10.521  22.644  0.00  0.00    +0.000 A 
ATOM      6  O   UNL     1      -0.765   9.668  23.530  0.00  0.00    +0.000 OA
ATOM      7  N   UNL     1       0.229  10.461  21.622  0.00  0.00    +0.000 N 
ATOM      8  C   UNL     1       0.269  11.440  20.570  0.00  0.00    +0.000 A 
ATOM      9  C   UNL     1       1.158  11.322  19.492  0.00  0.00    +0.000 A 
ATOM     10  C   UNL     1       1.286  12.337  18.542  0.00  0.00    +0.000 A 
ATOM     11  C   UNL     1       0.551  13.505  18.672  0.00  0.00    +0.000 A 
ATOM     12  C   UNL     1      -0.384  13.625  19.697  0.00  0.00    +0.000 A 
ATOM     13  C   UNL     1      -0.571  12.576  20.603  0.00  0.00    +0.000 A 
ATOM     14  N   UNL     1      -1.572  12.610  21.600  0.00  0.00    +0.000 N 
ENDROOT
BRANCH   1  16
ATOM     15  C   UNL     1      -4.748  14.486  20.941  0.00  0.00    +0.000 C 
ATOM     16  C   UNL     1      -3.214  14.546  20.999  0.00  0.00    +0.000 C 
ATOM     17  C   UNL     1      -2.787  15.919  21.523  0.00  0.00    +0.000 C 
ENDBRANCH   1  16
BRANCH   7  18
ATOM     18  C   UNL     1       1.316   9.486  21.803  0.00  0.00    +0.000 C 
BRANCH  18  19
ATOM     19  C   UNL     1       1.107   8.127  21.123  0.00  0.00    +0.000 C 
ATOM     20  O   UNL     1      -0.022   7.648  21.017  0.00  0.00    +0.000 OA
ATOM     21  N   UNL     1       2.267   7.501  20.672  0.00  0.00    +0.000 N 
ATOM     22  H   UNL     1       3.090   7.647  21.251  0.00  0.00    +0.000 HD
BRANCH  21  23
ATOM     23  C   UNL     1       2.147   6.244  20.030  0.00  0.00    +0.000 A 
ATOM     24  C   UNL     1       2.315   6.127  18.642  0.00  0.00    +0.000 A 
ATOM     25  C   UNL     1       1.993   4.934  17.994  0.00  0.00    +0.000 A 
ATOM     26  C   UNL     1       1.502   3.870  18.736  0.00  0.00    +0.000 A 
ATOM     27  F   UNL     1       1.105   2.755  18.109  0.00  0.00    +0.000 F 
ATOM     28  C   UNL     1       1.399   3.952  20.122  0.00  0.00    +0.000 A 
ATOM     29  C   UNL     1       1.755   5.133  20.781  0.00  0.00    +0.000 A 
ENDBRANCH  21  23
ENDBRANCH  18  19
ENDBRANCH   7  18
TORSDOF 4
ENDMDL
MODEL 9
REMARK VINA RESULT:      -7.6      4.953      7.652
REMARK  Name = 
REMARK  6 active torsions:
REMARK  status: ('A' for Active; 'I' for Inactive)
REMARK    1  A    between atoms: C_1  and  C_2
REMARK    2  A    between atoms: C_2  and  C_3
REMARK    3  A    between atoms: C_2  and  C_4
REMARK    4  A    between atoms: N_10  and  C_11
REMARK    5  A    between atoms: C_11  and  C_12
REMARK    6  A    between atoms: N_14  and  C_15
REMARK                            x       y       z     vdW  Elec       q    Type
REMARK                         _______ _______ _______ _____ _____    ______ ____
ROOT
ATOM      1  C   UNL     1       1.304  13.316  19.893  0.00  0.00    +0.000 A 
ATOM      2  N   UNL     1       1.836  13.734  18.752  0.00  0.00    +0.000 NA
ATOM      3  N   UNL     1       2.152  12.646  17.987  0.00  0.00    +0.000 NA
ATOM      4  C   UNL     1       1.791  11.570  18.649  0.00  0.00    +0.000 A 
ATOM      5  C   UNL     1       1.958  10.215  18.213  0.00  0.00    +0.000 A 
ATOM      6  O   UNL     1       2.483   9.894  17.147  0.00  0.00    +0.000 OA
ATOM      7  N   UNL     1       1.456   9.239  19.090  0.00  0.00    +0.000 N 
ATOM      8  C   UNL     1       0.855   9.596  20.347  0.00  0.00    +0.000 A 
ATOM      9  C   UNL     1       0.452   8.621  21.270  0.00  0.00    +0.000 A 
ATOM     10  C   UNL     1      -0.247   8.965  22.429  0.00  0.00    +0.000 A 
ATOM     11  C   UNL     1      -0.587  10.287  22.668  0.00  0.00    +0.000 A 
ATOM     12  C   UNL     1      -0.145  11.283  21.801  0.00  0.00    +0.000 A 
ATOM     13  C   UNL     1       0.624  10.950  20.681  0.00  0.00    +0.000 A 
ATOM     14  N   UNL     1       1.174  11.930  19.826  0.00  0.00    +0.000 N 
ENDROOT
BRANCH   1  16
ATOM     15  C   UNL     1       2.292  14.676  21.753  0.00  0.00    +0.000 C 
ATOM     16  C   UNL     1       1.002  14.227  21.049  0.00  0.00    +0.000 C 
ATOM     17  C   UNL     1       0.228  15.465  20.589  0.00  0.00    +0.000 C 
ENDBRANCH   1  16
BRANCH   7  18
ATOM     18  C   UNL     1       1.377   7.866  18.566  0.00  0.00    +0.000 C 
BRANCH  18  19
ATOM     19  C   UNL     1       2.699   7.088  18.544  0.00  0.00    +0.000 C 
ATOM     20  O   UNL     1       3.101   6.509  19.554  0.00  0.00    +0.000 OA
ATOM     21  N   UNL     1       3.385   7.112  17.332  0.00  0.00    +0.000 N 
ATOM     22  H   UNL     1       3.310   7.980  16.809  0.00  0.00    +0.000 HD
BRANCH  21  23
ATOM     23  C   UNL     1       4.612   6.410  17.239  0.00  0.00    +0.000 A 
ATOM     24  C   UNL     1       4.632   5.019  17.057  0.00  0.00    +0.000 A 
ATOM     25  C   UNL     1       5.829   4.313  17.174  0.00  0.00    +0.000 A 
ATOM     26  C   UNL     1       6.996   5.001  17.476  0.00  0.00    +0.000 A 
ATOM     27  F   UNL     1       8.130   4.319  17.681  0.00  0.00    +0.000 F 
ATOM     28  C   UNL     1       6.999   6.388  17.589  0.00  0.00    +0.000 A 
ATOM     29  C   UNL     1       5.808   7.105  17.436  0.00  0.00    +0.000 A 
ENDBRANCH  21  23
ENDBRANCH  18  19
ENDBRANCH   7  18
TORSDOF 4
ENDMDL
