MODEL 1
REMARK VINA RESULT:      -8.8      0.000      0.000
REMARK  Name = 
REMARK  7 active torsions:
REMARK  status: ('A' for Active; 'I' for Inactive)
REMARK    1  A    between atoms: C_1  and  C_2
REMARK    2  A    between atoms: C_2  and  N_3
REMARK    3  A    between atoms: C_4  and  C_6
REMARK    4  A    between atoms: C_10  and  N_11
REMARK    5  A    between atoms: N_11  and  C_12
REMARK    6  A    between atoms: C_15  and  C_16
REMARK    7  A    between atoms: C_16  and  C_18
REMARK                            x       y       z     vdW  Elec       q    Type
REMARK                         _______ _______ _______ _____ _____    ______ ____
ROOT
ATOM      1  N   UNL     1       3.382   5.643  18.096  0.00  0.00    +0.000 N 
ATOM      2  H   UNL     1       2.832   4.792  18.139  0.00  0.00    +0.000 HD
ENDROOT
BRANCH   1   7
ATOM      3  C   UNL     1       6.468   4.999  16.124  0.00  0.00    +0.000 A 
ATOM      4  C   UNL     1       7.437   4.989  17.134  0.00  0.00    +0.000 A 
ATOM      5  C   UNL     1       7.058   5.178  18.460  0.00  0.00    +0.000 A 
ATOM      6  C   UNL     1       5.717   5.387  18.775  0.00  0.00    +0.000 A 
ATOM      7  C   UNL     1       4.738   5.456  17.774  0.00  0.00    +0.000 A 
ATOM      8  C   UNL     1       5.127   5.257  16.443  0.00  0.00    +0.000 A 
BRANCH   3  10
ATOM      9  N   UNL     1       6.074   3.802  14.044  0.00  0.00    +0.000 N 
ATOM     10  C   UNL     1       6.838   4.746  14.703  0.00  0.00    +0.000 C 
ATOM     11  O   UNL     1       7.748   5.376  14.179  0.00  0.00    +0.000 OA
ATOM     12  H   UNL     1       5.220   3.474  14.474  0.00  0.00    +0.000 HD
BRANCH   9  14
ATOM     13  C   UNL     1       4.992   3.270  11.905  0.00  0.00    +0.000 C 
ATOM     14  C   UNL     1       6.296   3.464  12.654  0.00  0.00    +0.000 C 
ENDBRANCH   9  14
ENDBRANCH   3  10
ENDBRANCH   1   7
BRANCH   1  15
ATOM     15  C   UNL     1       2.703   6.808  18.488  0.00  0.00    +0.000 A 
ATOM     16  C   UNL     1       2.536   7.853  17.571  0.00  0.00    +0.000 A 
ATOM     17  C   UNL     1       1.879   9.032  17.937  0.00  0.00    +0.000 A 
ATOM     18  C   UNL     1       1.381   9.193  19.234  0.00  0.00    +0.000 A 
ATOM     19  C   UNL     1       1.551   8.163  20.162  0.00  0.00    +0.000 A 
ATOM     20  C   UNL     1       2.224   6.992  19.792  0.00  0.00    +0.000 A 
BRANCH  18  21
ATOM     21  C   UNL     1       0.613  10.427  19.553  0.00  0.00    +0.000 C 
ATOM     22  O   UNL     1       1.103  11.255  20.318  0.00  0.00    +0.000 OA
BRANCH  21  23
ATOM     23  C   UNL     1      -0.718  10.710  18.952  0.00  0.00    +0.000 A 
ATOM     24  C   UNL     1      -1.512  11.702  19.538  0.00  0.00    +0.000 A 
ATOM     25  C   UNL     1      -2.767  11.996  19.007  0.00  0.00    +0.000 A 
ATOM     26  C   UNL     1      -3.238  11.293  17.898  0.00  0.00    +0.000 A 
ATOM     27  C   UNL     1      -2.458  10.286  17.326  0.00  0.00    +0.000 A 
ATOM     28  C   UNL     1      -1.201   9.985  17.859  0.00  0.00    +0.000 A 
ENDBRANCH  21  23
ENDBRANCH  18  21
ENDBRANCH   1  15
TORSDOF 6
ENDMDL
MODEL 2
REMARK VINA RESULT:      -8.7      1.058      1.556
REMARK  Name = 
REMARK  7 active torsions:
REMARK  status: ('A' for Active; 'I' for Inactive)
REMARK    1  A    between atoms: C_1  and  C_2
REMARK    2  A    between atoms: C_2  and  N_3
REMARK    3  A    between atoms: C_4  and  C_6
REMARK    4  A    between atoms: C_10  and  N_11
REMARK    5  A    between atoms: N_11  and  C_12
REMARK    6  A    between atoms: C_15  and  C_16
REMARK    7  A    between atoms: C_16  and  C_18
REMARK                            x       y       z     vdW  Elec       q    Type
REMARK                         _______ _______ _______ _____ _____    ______ ____
ROOT
ATOM      1  N   UNL     1       3.572   4.895  18.144  0.00  0.00    +0.000 N 
ATOM      2  H   UNL     1       3.070   4.014  18.116  0.00  0.00    +0.000 HD
ENDROOT
BRANCH   1   7
ATOM      3  C   UNL     1       6.407   4.642  15.752  0.00  0.00    +0.000 A 
ATOM      4  C   UNL     1       7.500   4.653  16.627  0.00  0.00    +0.000 A 
ATOM      5  C   UNL     1       7.288   4.727  18.001  0.00  0.00    +0.000 A 
ATOM      6  C   UNL     1       5.988   4.800  18.499  0.00  0.00    +0.000 A 
ATOM      7  C   UNL     1       4.883   4.846  17.639  0.00  0.00    +0.000 A 
ATOM      8  C   UNL     1       5.104   4.764  16.258  0.00  0.00    +0.000 A 
BRANCH   3  10
ATOM      9  N   UNL     1       5.900   3.487  13.673  0.00  0.00    +0.000 N 
ATOM     10  C   UNL     1       6.602   4.510  14.281  0.00  0.00    +0.000 C 
ATOM     11  O   UNL     1       7.324   5.296  13.680  0.00  0.00    +0.000 OA
ATOM     12  H   UNL     1       5.176   3.012  14.194  0.00  0.00    +0.000 HD
BRANCH   9  14
ATOM     13  C   UNL     1       4.592   3.242  11.610  0.00  0.00    +0.000 C 
ATOM     14  C   UNL     1       5.968   3.247  12.247  0.00  0.00    +0.000 C 
ENDBRANCH   9  14
ENDBRANCH   3  10
ENDBRANCH   1   7
BRANCH   1  15
ATOM     15  C   UNL     1       2.896   5.942  18.795  0.00  0.00    +0.000 A 
ATOM     16  C   UNL     1       2.786   7.188  18.166  0.00  0.00    +0.000 A 
ATOM     17  C   UNL     1       2.135   8.255  18.795  0.00  0.00    +0.000 A 
ATOM     18  C   UNL     1       1.586   8.097  20.072  0.00  0.00    +0.000 A 
ATOM     19  C   UNL     1       1.700   6.862  20.714  0.00  0.00    +0.000 A 
ATOM     20  C   UNL     1       2.367   5.804  20.085  0.00  0.00    +0.000 A 
BRANCH  18  21
ATOM     21  C   UNL     1       0.827   9.231  20.665  0.00  0.00    +0.000 C 
ATOM     22  O   UNL     1       0.678   9.277  21.884  0.00  0.00    +0.000 OA
BRANCH  21  23
ATOM     23  C   UNL     1       0.267  10.331  19.835  0.00  0.00    +0.000 A 
ATOM     24  C   UNL     1      -0.938  10.105  19.162  0.00  0.00    +0.000 A 
ATOM     25  C   UNL     1      -1.495  11.110  18.371  0.00  0.00    +0.000 A 
ATOM     26  C   UNL     1      -0.845  12.337  18.241  0.00  0.00    +0.000 A 
ATOM     27  C   UNL     1       0.371  12.556  18.891  0.00  0.00    +0.000 A 
ATOM     28  C   UNL     1       0.935  11.549  19.681  0.00  0.00    +0.000 A 
ENDBRANCH  21  23
ENDBRANCH  18  21
ENDBRANCH   1  15
TORSDOF 6
ENDMDL
MODEL 3
REMARK VINA RESULT:      -8.7      0.631      1.172
REMARK  Name = 
REMARK  7 active torsions:
REMARK  status: ('A' for Active; 'I' for Inactive)
REMARK    1  A    between atoms: C_1  and  C_2
REMARK    2  A    between atoms: C_2  and  N_3
REMARK    3  A    between atoms: C_4  and  C_6
REMARK    4  A    between atoms: C_10  and  N_11
REMARK    5  A    between atoms: N_11  and  C_12
REMARK    6  A    between atoms: C_15  and  C_16
REMARK    7  A    between atoms: C_16  and  C_18
REMARK                            x       y       z     vdW  Elec       q    Type
REMARK                         _______ _______ _______ _____ _____    ______ ____
ROOT
ATOM      1  N   UNL     1       3.419   5.464  18.146  0.00  0.00    +0.000 N 
ATOM      2  H   UNL     1       2.853   4.625  18.079  0.00  0.00    +0.000 HD
ENDROOT
BRANCH   1   7
ATOM      3  C   UNL     1       6.492   4.914  16.128  0.00  0.00    +0.000 A 
ATOM      4  C   UNL     1       7.468   4.862  17.130  0.00  0.00    +0.000 A 
ATOM      5  C   UNL     1       7.098   4.993  18.465  0.00  0.00    +0.000 A 
ATOM      6  C   UNL     1       5.758   5.186  18.798  0.00  0.00    +0.000 A 
ATOM      7  C   UNL     1       4.773   5.295  17.808  0.00  0.00    +0.000 A 
ATOM      8  C   UNL     1       5.152   5.155  16.467  0.00  0.00    +0.000 A 
BRANCH   3  10
ATOM      9  N   UNL     1       6.139   3.751  14.021  0.00  0.00    +0.000 N 
ATOM     10  C   UNL     1       6.852   4.724  14.695  0.00  0.00    +0.000 C 
ATOM     11  O   UNL     1       7.712   5.425  14.175  0.00  0.00    +0.000 OA
ATOM     12  H   UNL     1       5.315   3.357  14.456  0.00  0.00    +0.000 HD
BRANCH   9  14
ATOM     13  C   UNL     1       5.054   3.227  11.881  0.00  0.00    +0.000 C 
ATOM     14  C   UNL     1       6.358   3.466  12.619  0.00  0.00    +0.000 C 
ENDBRANCH   9  14
ENDBRANCH   3  10
ENDBRANCH   1   7
BRANCH   1  15
ATOM     15  C   UNL     1       2.758   6.583  18.682  0.00  0.00    +0.000 A 
ATOM     16  C   UNL     1       2.232   6.519  19.978  0.00  0.00    +0.000 A 
ATOM     17  C   UNL     1       1.554   7.611  20.533  0.00  0.00    +0.000 A 
ATOM     18  C   UNL     1       1.383   8.787  19.796  0.00  0.00    +0.000 A 
ATOM     19  C   UNL     1       1.893   8.859  18.498  0.00  0.00    +0.000 A 
ATOM     20  C   UNL     1       2.556   7.757  17.944  0.00  0.00    +0.000 A 
BRANCH  18  21
ATOM     21  C   UNL     1       0.733   9.951  20.457  0.00  0.00    +0.000 C 
ATOM     22  O   UNL     1       1.204  10.380  21.508  0.00  0.00    +0.000 OA
BRANCH  21  23
ATOM     23  C   UNL     1      -0.451  10.636  19.873  0.00  0.00    +0.000 A 
ATOM     24  C   UNL     1      -0.875  11.836  20.454  0.00  0.00    +0.000 A 
ATOM     25  C   UNL     1      -1.983  12.509  19.938  0.00  0.00    +0.000 A 
ATOM     26  C   UNL     1      -2.677  11.979  18.850  0.00  0.00    +0.000 A 
ATOM     27  C   UNL     1      -2.271  10.769  18.285  0.00  0.00    +0.000 A 
ATOM     28  C   UNL     1      -1.164  10.090  18.802  0.00  0.00    +0.000 A 
ENDBRANCH  21  23
ENDBRANCH  18  21
ENDBRANCH   1  15
TORSDOF 6
ENDMDL
MODEL 4
REMARK VINA RESULT:      -8.5      1.129      1.927
REMARK  Name = 
REMARK  7 active torsions:
REMARK  status: ('A' for Active; 'I' for Inactive)
REMARK    1  A    between atoms: C_1  and  C_2
REMARK    2  A    between atoms: C_2  and  N_3
REMARK    3  A    between atoms: C_4  and  C_6
REMARK    4  A    between atoms: C_10  and  N_11
REMARK    5  A    between atoms: N_11  and  C_12
REMARK    6  A    between atoms: C_15  and  C_16
REMARK    7  A    between atoms: C_16  and  C_18
REMARK                            x       y       z     vdW  Elec       q    Type
REMARK                         _______ _______ _______ _____ _____    ______ ____
ROOT
ATOM      1  N   UNL     1       3.276   5.710  17.942  0.00  0.00    +0.000 N 
ATOM      2  H   UNL     1       2.666   4.921  17.754  0.00  0.00    +0.000 HD
ENDROOT
BRANCH   1   7
ATOM      3  C   UNL     1       6.424   5.012  16.090  0.00  0.00    +0.000 A 
ATOM      4  C   UNL     1       7.345   4.936  17.142  0.00  0.00    +0.000 A 
ATOM      5  C   UNL     1       6.912   5.099  18.455  0.00  0.00    +0.000 A 
ATOM      6  C   UNL     1       5.566   5.348  18.716  0.00  0.00    +0.000 A 
ATOM      7  C   UNL     1       4.637   5.483  17.675  0.00  0.00    +0.000 A 
ATOM      8  C   UNL     1       5.079   5.310  16.357  0.00  0.00    +0.000 A 
BRANCH   3  10
ATOM      9  N   UNL     1       6.091   3.885  13.961  0.00  0.00    +0.000 N 
ATOM     10  C   UNL     1       6.849   4.790  14.680  0.00  0.00    +0.000 C 
ATOM     11  O   UNL     1       7.798   5.409  14.215  0.00  0.00    +0.000 OA
ATOM     12  H   UNL     1       5.211   3.568  14.345  0.00  0.00    +0.000 HD
BRANCH   9  14
ATOM     13  C   UNL     1       5.112   3.157  11.830  0.00  0.00    +0.000 C 
ATOM     14  C   UNL     1       6.365   3.580  12.573  0.00  0.00    +0.000 C 
ENDBRANCH   9  14
ENDBRANCH   3  10
ENDBRANCH   1   7
BRANCH   1  15
ATOM     15  C   UNL     1       2.648   6.814  18.543  0.00  0.00    +0.000 A 
ATOM     16  C   UNL     1       2.295   6.755  19.896  0.00  0.00    +0.000 A 
ATOM     17  C   UNL     1       1.654   7.832  20.519  0.00  0.00    +0.000 A 
ATOM     18  C   UNL     1       1.346   8.988  19.795  0.00  0.00    +0.000 A 
ATOM     19  C   UNL     1       1.683   9.055  18.442  0.00  0.00    +0.000 A 
ATOM     20  C   UNL     1       2.310   7.967  17.822  0.00  0.00    +0.000 A 
BRANCH  18  21
ATOM     21  C   UNL     1       0.744  10.141  20.519  0.00  0.00    +0.000 C 
ATOM     22  O   UNL     1       0.507  10.033  21.720  0.00  0.00    +0.000 OA
BRANCH  21  23
ATOM     23  C   UNL     1       0.446  11.433  19.845  0.00  0.00    +0.000 A 
ATOM     24  C   UNL     1      -0.745  11.542  19.119  0.00  0.00    +0.000 A 
ATOM     25  C   UNL     1      -1.060  12.735  18.470  0.00  0.00    +0.000 A 
ATOM     26  C   UNL     1      -0.183  13.818  18.534  0.00  0.00    +0.000 A 
ATOM     27  C   UNL     1       1.018  13.703  19.237  0.00  0.00    +0.000 A 
ATOM     28  C   UNL     1       1.339  12.507  19.885  0.00  0.00    +0.000 A 
ENDBRANCH  21  23
ENDBRANCH  18  21
ENDBRANCH   1  15
TORSDOF 6
ENDMDL
MODEL 5
REMARK VINA RESULT:      -8.4      4.210      5.752
REMARK  Name = 
REMARK  7 active torsions:
REMARK  status: ('A' for Active; 'I' for Inactive)
REMARK    1  A    between atoms: C_1  and  C_2
REMARK    2  A    between atoms: C_2  and  N_3
REMARK    3  A    between atoms: C_4  and  C_6
REMARK    4  A    between atoms: C_10  and  N_11
REMARK    5  A    between atoms: N_11  and  C_12
REMARK    6  A    between atoms: C_15  and  C_16
REMARK    7  A    between atoms: C_16  and  C_18
REMARK                            x       y       z     vdW  Elec       q    Type
REMARK                         _______ _______ _______ _____ _____    ______ ____
ROOT
ATOM      1  N   UNL     1       7.341   5.297  15.599  0.00  0.00    +0.000 N 
ATOM      2  H   UNL     1       8.263   5.465  15.986  0.00  0.00    +0.000 HD
ENDROOT
BRANCH   1   7
ATOM      3  C   UNL     1       6.515   3.815  12.290  0.00  0.00    +0.000 A 
ATOM      4  C   UNL     1       7.319   4.585  11.441  0.00  0.00    +0.000 A 
ATOM      5  C   UNL     1       8.140   5.575  11.973  0.00  0.00    +0.000 A 
ATOM      6  C   UNL     1       8.149   5.804  13.349  0.00  0.00    +0.000 A 
ATOM      7  C   UNL     1       7.312   5.082  14.210  0.00  0.00    +0.000 A 
ATOM      8  C   UNL     1       6.495   4.082  13.668  0.00  0.00    +0.000 A 
BRANCH   3  10
ATOM      9  N   UNL     1       6.331   1.542  11.445  0.00  0.00    +0.000 N 
ATOM     10  C   UNL     1       5.667   2.714  11.755  0.00  0.00    +0.000 C 
ATOM     11  O   UNL     1       4.457   2.865  11.637  0.00  0.00    +0.000 OA
ATOM     12  H   UNL     1       7.286   1.423  11.755  0.00  0.00    +0.000 HD
BRANCH   9  14
ATOM     13  C   UNL     1       6.248  -0.912  11.463  0.00  0.00    +0.000 C 
ATOM     14  C   UNL     1       5.641   0.376  10.938  0.00  0.00    +0.000 C 
ENDBRANCH   9  14
ENDBRANCH   3  10
ENDBRANCH   1   7
BRANCH   1  15
ATOM     15  C   UNL     1       6.281   5.438  16.511  0.00  0.00    +0.000 A 
ATOM     16  C   UNL     1       5.324   6.440  16.307  0.00  0.00    +0.000 A 
ATOM     17  C   UNL     1       4.267   6.617  17.206  0.00  0.00    +0.000 A 
ATOM     18  C   UNL     1       4.151   5.797  18.334  0.00  0.00    +0.000 A 
ATOM     19  C   UNL     1       5.105   4.801  18.554  0.00  0.00    +0.000 A 
ATOM     20  C   UNL     1       6.169   4.641  17.658  0.00  0.00    +0.000 A 
BRANCH  18  21
ATOM     21  C   UNL     1       2.962   5.964  19.214  0.00  0.00    +0.000 C 
ATOM     22  O   UNL     1       2.512   7.092  19.402  0.00  0.00    +0.000 OA
BRANCH  21  23
ATOM     23  C   UNL     1       2.280   4.807  19.852  0.00  0.00    +0.000 A 
ATOM     24  C   UNL     1       2.605   4.493  21.176  0.00  0.00    +0.000 A 
ATOM     25  C   UNL     1       1.989   3.414  21.810  0.00  0.00    +0.000 A 
ATOM     26  C   UNL     1       1.056   2.639  21.120  0.00  0.00    +0.000 A 
ATOM     27  C   UNL     1       0.749   2.934  19.791  0.00  0.00    +0.000 A 
ATOM     28  C   UNL     1       1.368   4.012  19.151  0.00  0.00    +0.000 A 
ENDBRANCH  21  23
ENDBRANCH  18  21
ENDBRANCH   1  15
TORSDOF 6
ENDMDL
MODEL 6
REMARK VINA RESULT:      -8.4      2.966      8.855
REMARK  Name = 
REMARK  7 active torsions:
REMARK  status: ('A' for Active; 'I' for Inactive)
REMARK    1  A    between atoms: C_1  and  C_2
REMARK    2  A    between atoms: C_2  and  N_3
REMARK    3  A    between atoms: C_4  and  C_6
REMARK    4  A    between atoms: C_10  and  N_11
REMARK    5  A    between atoms: N_11  and  C_12
REMARK    6  A    between atoms: C_15  and  C_16
REMARK    7  A    between atoms: C_16  and  C_18
REMARK                            x       y       z     vdW  Elec       q    Type
REMARK                         _______ _______ _______ _____ _____    ______ ____
ROOT
ATOM      1  N   UNL     1       1.168   9.077  20.475  0.00  0.00    +0.000 N 
ATOM      2  H   UNL     1       1.053   9.072  21.483  0.00  0.00    +0.000 HD
ENDROOT
BRANCH   1   7
ATOM      3  C   UNL     1      -1.066  11.213  18.409  0.00  0.00    +0.000 A 
ATOM      4  C   UNL     1      -0.382  12.434  18.445  0.00  0.00    +0.000 A 
ATOM      5  C   UNL     1       0.821  12.534  19.138  0.00  0.00    +0.000 A 
ATOM      6  C   UNL     1       1.334  11.422  19.803  0.00  0.00    +0.000 A 
ATOM      7  C   UNL     1       0.638  10.205  19.825  0.00  0.00    +0.000 A 
ATOM      8  C   UNL     1      -0.568  10.110  19.119  0.00  0.00    +0.000 A 
BRANCH   3  10
ATOM      9  N   UNL     1      -2.214  11.240  16.265  0.00  0.00    +0.000 N 
ATOM     10  C   UNL     1      -2.327  11.063  17.631  0.00  0.00    +0.000 C 
ATOM     11  O   UNL     1      -3.373  10.771  18.198  0.00  0.00    +0.000 OA
ATOM     12  H   UNL     1      -1.293  11.278  15.850  0.00  0.00    +0.000 HD
BRANCH   9  14
ATOM     13  C   UNL     1      -3.160   9.956  14.397  0.00  0.00    +0.000 C 
ATOM     14  C   UNL     1      -3.346  11.103  15.374  0.00  0.00    +0.000 C 
ENDBRANCH   9  14
ENDBRANCH   3  10
ENDBRANCH   1   7
BRANCH   1  15
ATOM     15  C   UNL     1       1.720   7.903  19.935  0.00  0.00    +0.000 A 
ATOM     16  C   UNL     1       2.335   7.943  18.679  0.00  0.00    +0.000 A 
ATOM     17  C   UNL     1       2.878   6.787  18.107  0.00  0.00    +0.000 A 
ATOM     18  C   UNL     1       2.808   5.563  18.781  0.00  0.00    +0.000 A 
ATOM     19  C   UNL     1       2.186   5.508  20.030  0.00  0.00    +0.000 A 
ATOM     20  C   UNL     1       1.631   6.666  20.588  0.00  0.00    +0.000 A 
BRANCH  18  21
ATOM     21  C   UNL     1       3.475   4.379  18.175  0.00  0.00    +0.000 C 
ATOM     22  O   UNL     1       2.935   3.279  18.264  0.00  0.00    +0.000 OA
BRANCH  21  23
ATOM     23  C   UNL     1       4.762   4.486  17.437  0.00  0.00    +0.000 A 
ATOM     24  C   UNL     1       4.735   4.381  16.042  0.00  0.00    +0.000 A 
ATOM     25  C   UNL     1       5.920   4.474  15.311  0.00  0.00    +0.000 A 
ATOM     26  C   UNL     1       7.134   4.657  15.973  0.00  0.00    +0.000 A 
ATOM     27  C   UNL     1       7.167   4.737  17.366  0.00  0.00    +0.000 A 
ATOM     28  C   UNL     1       5.982   4.640  18.101  0.00  0.00    +0.000 A 
ENDBRANCH  21  23
ENDBRANCH  18  21
ENDBRANCH   1  15
TORSDOF 6
ENDMDL
MODEL 7
REMARK VINA RESULT:      -8.3      2.031      3.427
REMARK  Name = 
REMARK  7 active torsions:
REMARK  status: ('A' for Active; 'I' for Inactive)
REMARK    1  A    between atoms: C_1  and  C_2
REMARK    2  A    between atoms: C_2  and  N_3
REMARK    3  A    between atoms: C_4  and  C_6
REMARK    4  A    between atoms: C_10  and  N_11
REMARK    5  A    between atoms: N_11  and  C_12
REMARK    6  A    between atoms: C_15  and  C_16
REMARK    7  A    between atoms: C_16  and  C_18
REMARK                            x       y       z     vdW  Elec       q    Type
REMARK                         _______ _______ _______ _____ _____    ______ ____
ROOT
ATOM      1  N   UNL     1       2.166   7.202  20.703  0.00  0.00    +0.000 N 
ATOM      2  H   UNL     1       2.652   7.427  21.564  0.00  0.00    +0.000 HD
ENDROOT
BRANCH   1   7
ATOM      3  C   UNL     1       3.778   4.380  18.897  0.00  0.00    +0.000 A 
ATOM      4  C   UNL     1       2.859   3.351  19.129  0.00  0.00    +0.000 A 
ATOM      5  C   UNL     1       1.706   3.604  19.866  0.00  0.00    +0.000 A 
ATOM      6  C   UNL     1       1.477   4.880  20.379  0.00  0.00    +0.000 A 
ATOM      7  C   UNL     1       2.410   5.910  20.205  0.00  0.00    +0.000 A 
ATOM      8  C   UNL     1       3.565   5.649  19.456  0.00  0.00    +0.000 A 
BRANCH   3  10
ATOM      9  N   UNL     1       4.775   4.004  16.710  0.00  0.00    +0.000 N 
ATOM     10  C   UNL     1       4.994   4.152  18.067  0.00  0.00    +0.000 C 
ATOM     11  O   UNL     1       6.103   4.131  18.586  0.00  0.00    +0.000 OA
ATOM     12  H   UNL     1       3.865   4.232  16.333  0.00  0.00    +0.000 HD
BRANCH   9  14
ATOM     13  C   UNL     1       6.271   5.092  15.096  0.00  0.00    +0.000 C 
ATOM     14  C   UNL     1       5.857   3.799  15.772  0.00  0.00    +0.000 C 
ENDBRANCH   9  14
ENDBRANCH   3  10
ENDBRANCH   1   7
BRANCH   1  15
ATOM     15  C   UNL     1       1.455   8.270  20.127  0.00  0.00    +0.000 A 
ATOM     16  C   UNL     1       0.469   8.925  20.873  0.00  0.00    +0.000 A 
ATOM     17  C   UNL     1      -0.267   9.979  20.322  0.00  0.00    +0.000 A 
ATOM     18  C   UNL     1      -0.035  10.394  19.007  0.00  0.00    +0.000 A 
ATOM     19  C   UNL     1       0.939   9.741  18.248  0.00  0.00    +0.000 A 
ATOM     20  C   UNL     1       1.660   8.676  18.802  0.00  0.00    +0.000 A 
BRANCH  18  21
ATOM     21  C   UNL     1      -0.779  11.576  18.492  0.00  0.00    +0.000 C 
ATOM     22  O   UNL     1      -0.217  12.669  18.463  0.00  0.00    +0.000 OA
BRANCH  21  23
ATOM     23  C   UNL     1      -2.172  11.475  17.981  0.00  0.00    +0.000 A 
ATOM     24  C   UNL     1      -2.364  11.067  16.657  0.00  0.00    +0.000 A 
ATOM     25  C   UNL     1      -3.654  10.961  16.138  0.00  0.00    +0.000 A 
ATOM     26  C   UNL     1      -4.755  11.274  16.936  0.00  0.00    +0.000 A 
ATOM     27  C   UNL     1      -4.565  11.706  18.250  0.00  0.00    +0.000 A 
ATOM     28  C   UNL     1      -3.273  11.817  18.771  0.00  0.00    +0.000 A 
ENDBRANCH  21  23
ENDBRANCH  18  21
ENDBRANCH   1  15
TORSDOF 6
ENDMDL
MODEL 8
REMARK VINA RESULT:      -8.3      1.602      2.514
REMARK  Name = 
REMARK  7 active torsions:
REMARK  status: ('A' for Active; 'I' for Inactive)
REMARK    1  A    between atoms: C_1  and  C_2
REMARK    2  A    between atoms: C_2  and  N_3
REMARK    3  A    between atoms: C_4  and  C_6
REMARK    4  A    between atoms: C_10  and  N_11
REMARK    5  A    between atoms: N_11  and  C_12
REMARK    6  A    between atoms: C_15  and  C_16
REMARK    7  A    between atoms: C_16  and  C_18
REMARK                            x       y       z     vdW  Elec       q    Type
REMARK                         _______ _______ _______ _____ _____    ______ ____
ROOT
ATOM      1  N   UNL     1       3.317   5.642  18.062  0.00  0.00    +0.000 N 
ATOM      2  H   UNL     1       2.754   4.799  18.104  0.00  0.00    +0.000 HD
ENDROOT
BRANCH   1   7
ATOM      3  C   UNL     1       6.410   4.966  16.112  0.00  0.00    +0.000 A 
ATOM      4  C   UNL     1       7.369   4.925  17.132  0.00  0.00    +0.000 A 
ATOM      5  C   UNL     1       6.980   5.104  18.457  0.00  0.00    +0.000 A 
ATOM      6  C   UNL     1       5.639   5.334  18.761  0.00  0.00    +0.000 A 
ATOM      7  C   UNL     1       4.672   5.434  17.751  0.00  0.00    +0.000 A 
ATOM      8  C   UNL     1       5.070   5.245  16.422  0.00  0.00    +0.000 A 
BRANCH   3  10
ATOM      9  N   UNL     1       6.044   3.771  14.026  0.00  0.00    +0.000 N 
ATOM     10  C   UNL     1       6.789   4.725  14.692  0.00  0.00    +0.000 C 
ATOM     11  O   UNL     1       7.691   5.372  14.174  0.00  0.00    +0.000 OA
ATOM     12  H   UNL     1       5.194   3.427  14.452  0.00  0.00    +0.000 HD
BRANCH   9  14
ATOM     13  C   UNL     1       4.978   3.282  11.869  0.00  0.00    +0.000 C 
ATOM     14  C   UNL     1       6.277   3.442  12.636  0.00  0.00    +0.000 C 
ENDBRANCH   9  14
ENDBRANCH   3  10
ENDBRANCH   1   7
BRANCH   1  15
ATOM     15  C   UNL     1       2.652   6.819  18.446  0.00  0.00    +0.000 A 
ATOM     16  C   UNL     1       2.439   7.831  17.502  0.00  0.00    +0.000 A 
ATOM     17  C   UNL     1       1.795   9.021  17.858  0.00  0.00    +0.000 A 
ATOM     18  C   UNL     1       1.357   9.225  19.170  0.00  0.00    +0.000 A 
ATOM     19  C   UNL     1       1.574   8.228  20.124  0.00  0.00    +0.000 A 
ATOM     20  C   UNL     1       2.233   7.046  19.763  0.00  0.00    +0.000 A 
BRANCH  18  21
ATOM     21  C   UNL     1       0.600  10.468  19.482  0.00  0.00    +0.000 C 
ATOM     22  O   UNL     1      -0.609  10.393  19.690  0.00  0.00    +0.000 OA
BRANCH  21  23
ATOM     23  C   UNL     1       1.262  11.796  19.582  0.00  0.00    +0.000 A 
ATOM     24  C   UNL     1       2.003  12.251  18.487  0.00  0.00    +0.000 A 
ATOM     25  C   UNL     1       2.641  13.490  18.540  0.00  0.00    +0.000 A 
ATOM     26  C   UNL     1       2.552  14.271  19.693  0.00  0.00    +0.000 A 
ATOM     27  C   UNL     1       1.835  13.808  20.797  0.00  0.00    +0.000 A 
ATOM     28  C   UNL     1       1.198  12.564  20.748  0.00  0.00    +0.000 A 
ENDBRANCH  21  23
ENDBRANCH  18  21
ENDBRANCH   1  15
TORSDOF 6
ENDMDL
MODEL 9
REMARK VINA RESULT:      -8.2      2.377      9.661
REMARK  Name = 
REMARK  7 active torsions:
REMARK  status: ('A' for Active; 'I' for Inactive)
REMARK    1  A    between atoms: C_1  and  C_2
REMARK    2  A    between atoms: C_2  and  N_3
REMARK    3  A    between atoms: C_4  and  C_6
REMARK    4  A    between atoms: C_10  and  N_11
REMARK    5  A    between atoms: N_11  and  C_12
REMARK    6  A    between atoms: C_15  and  C_16
REMARK    7  A    between atoms: C_16  and  C_18
REMARK                            x       y       z     vdW  Elec       q    Type
REMARK                         _______ _______ _______ _____ _____    ______ ____
ROOT
ATOM      1  N   UNL     1       2.383   6.634  18.859  0.00  0.00    +0.000 N 
ATOM      2  H   UNL     1       1.783   5.893  19.205  0.00  0.00    +0.000 HD
ENDROOT
BRANCH   1   7
ATOM      3  C   UNL     1       0.900   9.626  20.494  0.00  0.00    +0.000 A 
ATOM      4  C   UNL     1       0.803  10.506  19.410  0.00  0.00    +0.000 A 
ATOM      5  C   UNL     1       1.213  10.095  18.145  0.00  0.00    +0.000 A 
ATOM      6  C   UNL     1       1.729   8.812  17.965  0.00  0.00    +0.000 A 
ATOM      7  C   UNL     1       1.885   7.935  19.046  0.00  0.00    +0.000 A 
ATOM      8  C   UNL     1       1.464   8.353  20.315  0.00  0.00    +0.000 A 
BRANCH   3  10
ATOM      9  N   UNL     1      -0.730  10.785  21.877  0.00  0.00    +0.000 N 
ATOM     10  C   UNL     1       0.420  10.019  21.848  0.00  0.00    +0.000 C 
ATOM     11  O   UNL     1       1.018   9.645  22.850  0.00  0.00    +0.000 OA
ATOM     12  H   UNL     1      -1.276  10.883  21.032  0.00  0.00    +0.000 HD
BRANCH   9  14
ATOM     13  C   UNL     1      -1.577  12.722  23.126  0.00  0.00    +0.000 C 
ATOM     14  C   UNL     1      -1.332  11.225  23.118  0.00  0.00    +0.000 C 
ENDBRANCH   9  14
ENDBRANCH   3  10
ENDBRANCH   1   7
BRANCH   1  15
ATOM     15  C   UNL     1       3.520   6.197  18.157  0.00  0.00    +0.000 A 
ATOM     16  C   UNL     1       3.793   4.827  18.070  0.00  0.00    +0.000 A 
ATOM     17  C   UNL     1       4.926   4.361  17.393  0.00  0.00    +0.000 A 
ATOM     18  C   UNL     1       5.813   5.262  16.795  0.00  0.00    +0.000 A 
ATOM     19  C   UNL     1       5.558   6.632  16.885  0.00  0.00    +0.000 A 
ATOM     20  C   UNL     1       4.431   7.090  17.578  0.00  0.00    +0.000 A 
BRANCH  18  21
ATOM     21  C   UNL     1       6.956   4.719  16.011  0.00  0.00    +0.000 C 
ATOM     22  O   UNL     1       7.994   4.421  16.598  0.00  0.00    +0.000 OA
BRANCH  21  23
ATOM     23  C   UNL     1       6.875   4.495  14.543  0.00  0.00    +0.000 A 
ATOM     24  C   UNL     1       7.732   5.225  13.713  0.00  0.00    +0.000 A 
ATOM     25  C   UNL     1       7.687   5.046  12.331  0.00  0.00    +0.000 A 
ATOM     26  C   UNL     1       6.778   4.147  11.774  0.00  0.00    +0.000 A 
ATOM     27  C   UNL     1       5.904   3.435  12.597  0.00  0.00    +0.000 A 
ATOM     28  C   UNL     1       5.944   3.616  13.983  0.00  0.00    +0.000 A 
ENDBRANCH  21  23
ENDBRANCH  18  21
ENDBRANCH   1  15
TORSDOF 6
ENDMDL
