MODEL 1
REMARK VINA RESULT:      -7.3      0.000      0.000
REMARK  Name = 
REMARK  8 active torsions:
REMARK  status: ('A' for Active; 'I' for Inactive)
REMARK    1  A    between atoms: C_1  and  C_2
REMARK    2  A    between atoms: C_5  and  C_6
REMARK    3  A    between atoms: C_8  and  C_9
REMARK    4  A    between atoms: C_9  and  O_10
REMARK    5  A    between atoms: O_10  and  N_11
REMARK    6  A    between atoms: N_15  and  C_16
REMARK    7  A    between atoms: C_19  and  S_20
REMARK    8  A    between atoms: S_20  and  N_21
REMARK                            x       y       z     vdW  Elec       q    Type
REMARK                         _______ _______ _______ _____ _____    ______ ____
ROOT
ATOM      1  C   UNL     1       6.663   5.455  16.156  0.00  0.00    +0.000 A 
ATOM      2  C   UNL     1       7.029   5.149  14.855  0.00  0.00    +0.000 A 
ATOM      3  C   UNL     1       6.316   3.986  14.507  0.00  0.00    +0.000 A 
ATOM      4  N   UNL     1       5.581   3.542  15.530  0.00  0.00    +0.000 NA
ATOM      5  N   UNL     1       5.662   4.527  16.471  0.00  0.00    +0.000 N 
ENDROOT
BRANCH   1  10
ATOM      6  C   UNL     1       9.050   9.552  19.498  0.00  0.00    +0.000 C 
ATOM      7  C   UNL     1       8.392   8.490  18.669  0.00  0.00    +0.000 A 
ATOM      8  C   UNL     1       8.445   7.143  19.036  0.00  0.00    +0.000 A 
ATOM      9  C   UNL     1       7.868   6.162  18.221  0.00  0.00    +0.000 A 
ATOM     10  C   UNL     1       7.211   6.507  17.032  0.00  0.00    +0.000 A 
ATOM     11  C   UNL     1       7.093   7.868  16.719  0.00  0.00    +0.000 A 
ATOM     12  C   UNL     1       7.714   8.845  17.502  0.00  0.00    +0.000 A 
ENDBRANCH   1  10
BRANCH   5  13
ATOM     13  C   UNL     1       4.761   4.499  17.574  0.00  0.00    +0.000 A 
ATOM     14  C   UNL     1       3.657   5.366  17.583  0.00  0.00    +0.000 A 
ATOM     15  C   UNL     1       2.704   5.270  18.600  0.00  0.00    +0.000 A 
ATOM     16  C   UNL     1       2.868   4.316  19.609  0.00  0.00    +0.000 A 
ATOM     17  C   UNL     1       4.001   3.506  19.651  0.00  0.00    +0.000 A 
ATOM     18  C   UNL     1       4.954   3.605  18.639  0.00  0.00    +0.000 A 
BRANCH  16  19
ATOM     19  S   UNL     1       1.622   4.124  20.848  0.00  0.00    +0.000 S 
ATOM     20  O   UNL     1       2.178   3.435  21.986  0.00  0.00    +0.000 OA
ATOM     21  O   UNL     1       0.868   5.348  20.966  0.00  0.00    +0.000 OA
BRANCH  19  22
ATOM     22  N   UNL     1       0.602   3.021  20.096  0.00  0.00    +0.000 NA
ATOM     23  H   UNL     1       0.254   3.407  19.218  0.00  0.00    +0.000 HD
ATOM     24  H   UNL     1       1.068   2.119  20.004  0.00  0.00    +0.000 HD
ENDBRANCH  19  22
ENDBRANCH  16  19
ENDBRANCH   5  13
BRANCH   3  25
ATOM     25  C   UNL     1       6.315   3.278  13.188  0.00  0.00    +0.000 C 
BRANCH  25  26
ATOM     26  O   UNL     1       5.199   3.710  12.415  0.00  0.00    +0.000 OA
BRANCH  26  27
ATOM     27  N   UNL     1       4.773   2.734  11.500  0.00  0.00    +0.000 N 
ATOM     28  O   UNL     1       5.502   1.752  11.338  0.00  0.00    +0.000 OA
ATOM     29  O   UNL     1       3.710   3.021  10.951  0.00  0.00    +0.000 OA
ENDBRANCH  26  27
ENDBRANCH  25  26
ENDBRANCH   3  25
TORSDOF 7
ENDMDL
MODEL 2
REMARK VINA RESULT:      -7.2      4.231      6.436
REMARK  Name = 
REMARK  8 active torsions:
REMARK  status: ('A' for Active; 'I' for Inactive)
REMARK    1  A    between atoms: C_1  and  C_2
REMARK    2  A    between atoms: C_5  and  C_6
REMARK    3  A    between atoms: C_8  and  C_9
REMARK    4  A    between atoms: C_9  and  O_10
REMARK    5  A    between atoms: O_10  and  N_11
REMARK    6  A    between atoms: N_15  and  C_16
REMARK    7  A    between atoms: C_19  and  S_20
REMARK    8  A    between atoms: S_20  and  N_21
REMARK                            x       y       z     vdW  Elec       q    Type
REMARK                         _______ _______ _______ _____ _____    ______ ____
ROOT
ATOM      1  C   UNL     1       3.645   5.191  18.281  0.00  0.00    +0.000 A 
ATOM      2  C   UNL     1       4.726   4.858  17.481  0.00  0.00    +0.000 A 
ATOM      3  C   UNL     1       4.943   5.960  16.632  0.00  0.00    +0.000 A 
ATOM      4  N   UNL     1       4.032   6.916  16.834  0.00  0.00    +0.000 NA
ATOM      5  N   UNL     1       3.351   6.519  17.947  0.00  0.00    +0.000 N 
ENDROOT
BRANCH   1  10
ATOM      6  C   UNL     1       0.862   2.037  22.276  0.00  0.00    +0.000 C 
ATOM      7  C   UNL     1       1.597   2.806  21.220  0.00  0.00    +0.000 A 
ATOM      8  C   UNL     1       2.986   2.948  21.257  0.00  0.00    +0.000 A 
ATOM      9  C   UNL     1       3.648   3.713  20.289  0.00  0.00    +0.000 A 
ATOM     10  C   UNL     1       2.938   4.339  19.255  0.00  0.00    +0.000 A 
ATOM     11  C   UNL     1       1.556   4.119  19.182  0.00  0.00    +0.000 A 
ATOM     12  C   UNL     1       0.886   3.401  20.177  0.00  0.00    +0.000 A 
ENDBRANCH   1  10
BRANCH   5  13
ATOM     13  C   UNL     1       2.498   7.454  18.600  0.00  0.00    +0.000 A 
ATOM     14  C   UNL     1       2.219   7.294  19.966  0.00  0.00    +0.000 A 
ATOM     15  C   UNL     1       1.478   8.265  20.645  0.00  0.00    +0.000 A 
ATOM     16  C   UNL     1       1.009   9.384  19.949  0.00  0.00    +0.000 A 
ATOM     17  C   UNL     1       1.213   9.511  18.577  0.00  0.00    +0.000 A 
ATOM     18  C   UNL     1       1.948   8.539  17.899  0.00  0.00    +0.000 A 
BRANCH  16  19
ATOM     19  S   UNL     1       0.151  10.662  20.817  0.00  0.00    +0.000 S 
ATOM     20  O   UNL     1       1.101  11.621  21.322  0.00  0.00    +0.000 OA
ATOM     21  O   UNL     1      -1.025  11.043  20.073  0.00  0.00    +0.000 OA
BRANCH  19  22
ATOM     22  N   UNL     1      -0.402   9.813  22.156  0.00  0.00    +0.000 NA
ATOM     23  H   UNL     1      -1.292  10.198  22.473  0.00  0.00    +0.000 HD
ATOM     24  H   UNL     1      -0.424   8.813  21.953  0.00  0.00    +0.000 HD
ENDBRANCH  19  22
ENDBRANCH  16  19
ENDBRANCH   5  13
BRANCH   3  25
ATOM     25  C   UNL     1       6.029   6.128  15.615  0.00  0.00    +0.000 C 
BRANCH  25  26
ATOM     26  O   UNL     1       7.295   5.894  16.226  0.00  0.00    +0.000 OA
BRANCH  26  27
ATOM     27  N   UNL     1       7.560   6.797  17.270  0.00  0.00    +0.000 N 
ATOM     28  O   UNL     1       7.799   6.321  18.382  0.00  0.00    +0.000 OA
ATOM     29  O   UNL     1       7.485   7.973  16.919  0.00  0.00    +0.000 OA
ENDBRANCH  26  27
ENDBRANCH  25  26
ENDBRANCH   3  25
TORSDOF 7
ENDMDL
MODEL 3
REMARK VINA RESULT:      -7.2      4.200      6.550
REMARK  Name = 
REMARK  8 active torsions:
REMARK  status: ('A' for Active; 'I' for Inactive)
REMARK    1  A    between atoms: C_1  and  C_2
REMARK    2  A    between atoms: C_5  and  C_6
REMARK    3  A    between atoms: C_8  and  C_9
REMARK    4  A    between atoms: C_9  and  O_10
REMARK    5  A    between atoms: O_10  and  N_11
REMARK    6  A    between atoms: N_15  and  C_16
REMARK    7  A    between atoms: C_19  and  S_20
REMARK    8  A    between atoms: S_20  and  N_21
REMARK                            x       y       z     vdW  Elec       q    Type
REMARK                         _______ _______ _______ _____ _____    ______ ____
ROOT
ATOM      1  C   UNL     1       3.660   5.267  18.286  0.00  0.00    +0.000 A 
ATOM      2  C   UNL     1       4.760   4.953  17.504  0.00  0.00    +0.000 A 
ATOM      3  C   UNL     1       4.974   6.058  16.660  0.00  0.00    +0.000 A 
ATOM      4  N   UNL     1       4.045   6.999  16.847  0.00  0.00    +0.000 NA
ATOM      5  N   UNL     1       3.351   6.590  17.947  0.00  0.00    +0.000 N 
ENDROOT
BRANCH   1  10
ATOM      6  C   UNL     1       0.863   2.065  22.233  0.00  0.00    +0.000 C 
ATOM      7  C   UNL     1       1.602   2.847  21.189  0.00  0.00    +0.000 A 
ATOM      8  C   UNL     1       2.990   2.996  21.238  0.00  0.00    +0.000 A 
ATOM      9  C   UNL     1       3.656   3.773  20.282  0.00  0.00    +0.000 A 
ATOM     10  C   UNL     1       2.951   4.403  19.247  0.00  0.00    +0.000 A 
ATOM     11  C   UNL     1       1.570   4.176  19.162  0.00  0.00    +0.000 A 
ATOM     12  C   UNL     1       0.896   3.447  20.145  0.00  0.00    +0.000 A 
ENDBRANCH   1  10
BRANCH   5  13
ATOM     13  C   UNL     1       2.472   7.511  18.585  0.00  0.00    +0.000 A 
ATOM     14  C   UNL     1       2.191   7.361  19.953  0.00  0.00    +0.000 A 
ATOM     15  C   UNL     1       1.423   8.321  20.617  0.00  0.00    +0.000 A 
ATOM     16  C   UNL     1       0.929   9.419  19.906  0.00  0.00    +0.000 A 
ATOM     17  C   UNL     1       1.135   9.534  18.533  0.00  0.00    +0.000 A 
ATOM     18  C   UNL     1       1.897   8.573  17.869  0.00  0.00    +0.000 A 
BRANCH  16  19
ATOM     19  S   UNL     1       0.035  10.685  20.754  0.00  0.00    +0.000 S 
ATOM     20  O   UNL     1      -0.796  11.398  19.817  0.00  0.00    +0.000 OA
ATOM     21  O   UNL     1      -0.462  10.168  22.005  0.00  0.00    +0.000 OA
BRANCH  19  22
ATOM     22  N   UNL     1       1.285  11.736  21.152  0.00  0.00    +0.000 NA
ATOM     23  H   UNL     1       1.073  12.676  20.818  0.00  0.00    +0.000 HD
ATOM     24  H   UNL     1       1.487  11.679  22.150  0.00  0.00    +0.000 HD
ENDBRANCH  19  22
ENDBRANCH  16  19
ENDBRANCH   5  13
BRANCH   3  25
ATOM     25  C   UNL     1       6.075   6.244  15.662  0.00  0.00    +0.000 C 
BRANCH  25  26
ATOM     26  O   UNL     1       7.333   6.022  16.292  0.00  0.00    +0.000 OA
BRANCH  26  27
ATOM     27  N   UNL     1       7.588   6.949  17.318  0.00  0.00    +0.000 N 
ATOM     28  O   UNL     1       7.546   8.145  17.023  0.00  0.00    +0.000 OA
ATOM     29  O   UNL     1       7.852   6.414  18.393  0.00  0.00    +0.000 OA
ENDBRANCH  26  27
ENDBRANCH  25  26
ENDBRANCH   3  25
TORSDOF 7
ENDMDL
MODEL 4
REMARK VINA RESULT:      -7.2      4.034      6.372
REMARK  Name = 
REMARK  8 active torsions:
REMARK  status: ('A' for Active; 'I' for Inactive)
REMARK    1  A    between atoms: C_1  and  C_2
REMARK    2  A    between atoms: C_5  and  C_6
REMARK    3  A    between atoms: C_8  and  C_9
REMARK    4  A    between atoms: C_9  and  O_10
REMARK    5  A    between atoms: O_10  and  N_11
REMARK    6  A    between atoms: N_15  and  C_16
REMARK    7  A    between atoms: C_19  and  S_20
REMARK    8  A    between atoms: S_20  and  N_21
REMARK                            x       y       z     vdW  Elec       q    Type
REMARK                         _______ _______ _______ _____ _____    ______ ____
ROOT
ATOM      1  C   UNL     1       3.241   5.623  18.407  0.00  0.00    +0.000 A 
ATOM      2  C   UNL     1       4.243   5.286  17.512  0.00  0.00    +0.000 A 
ATOM      3  C   UNL     1       4.412   6.401  16.669  0.00  0.00    +0.000 A 
ATOM      4  N   UNL     1       3.542   7.370  16.966  0.00  0.00    +0.000 NA
ATOM      5  N   UNL     1       2.950   6.964  18.125  0.00  0.00    +0.000 N 
ENDROOT
BRANCH   1  10
ATOM      6  C   UNL     1       0.843   2.047  22.295  0.00  0.00    +0.000 C 
ATOM      7  C   UNL     1       1.424   3.007  21.301  0.00  0.00    +0.000 A 
ATOM      8  C   UNL     1       0.857   3.177  20.035  0.00  0.00    +0.000 A 
ATOM      9  C   UNL     1       1.445   4.040  19.104  0.00  0.00    +0.000 A 
ATOM     10  C   UNL     1       2.601   4.765  19.422  0.00  0.00    +0.000 A 
ATOM     11  C   UNL     1       3.111   4.649  20.723  0.00  0.00    +0.000 A 
ATOM     12  C   UNL     1       2.558   3.747  21.636  0.00  0.00    +0.000 A 
ENDBRANCH   1  10
BRANCH   5  13
ATOM     13  C   UNL     1       2.175   7.902  18.866  0.00  0.00    +0.000 A 
ATOM     14  C   UNL     1       1.908   7.655  20.223  0.00  0.00    +0.000 A 
ATOM     15  C   UNL     1       1.249   8.619  20.990  0.00  0.00    +0.000 A 
ATOM     16  C   UNL     1       0.849   9.819  20.392  0.00  0.00    +0.000 A 
ATOM     17  C   UNL     1       1.040  10.038  19.029  0.00  0.00    +0.000 A 
ATOM     18  C   UNL     1       1.693   9.074  18.263  0.00  0.00    +0.000 A 
BRANCH  16  19
ATOM     19  S   UNL     1       0.098  11.083  21.373  0.00  0.00    +0.000 S 
ATOM     20  O   UNL     1       0.999  12.202  21.487  0.00  0.00    +0.000 OA
ATOM     21  O   UNL     1      -1.286  11.227  20.995  0.00  0.00    +0.000 OA
BRANCH  19  22
ATOM     22  N   UNL     1       0.092  10.343  22.882  0.00  0.00    +0.000 NA
ATOM     23  H   UNL     1      -0.667   9.663  22.936  0.00  0.00    +0.000 HD
ATOM     24  H   UNL     1       1.015   9.961  23.089  0.00  0.00    +0.000 HD
ENDBRANCH  19  22
ENDBRANCH  16  19
ENDBRANCH   5  13
BRANCH   3  25
ATOM     25  C   UNL     1       5.411   6.568  15.567  0.00  0.00    +0.000 C 
BRANCH  25  26
ATOM     26  O   UNL     1       5.794   5.288  15.073  0.00  0.00    +0.000 OA
BRANCH  26  27
ATOM     27  N   UNL     1       7.174   5.057  15.202  0.00  0.00    +0.000 N 
ATOM     28  O   UNL     1       7.567   4.548  16.254  0.00  0.00    +0.000 OA
ATOM     29  O   UNL     1       7.818   5.434  14.224  0.00  0.00    +0.000 OA
ENDBRANCH  26  27
ENDBRANCH  25  26
ENDBRANCH   3  25
TORSDOF 7
ENDMDL
MODEL 5
REMARK VINA RESULT:      -7.2      4.113      6.334
REMARK  Name = 
REMARK  8 active torsions:
REMARK  status: ('A' for Active; 'I' for Inactive)
REMARK    1  A    between atoms: C_1  and  C_2
REMARK    2  A    between atoms: C_5  and  C_6
REMARK    3  A    between atoms: C_8  and  C_9
REMARK    4  A    between atoms: C_9  and  O_10
REMARK    5  A    between atoms: O_10  and  N_11
REMARK    6  A    between atoms: N_15  and  C_16
REMARK    7  A    between atoms: C_19  and  S_20
REMARK    8  A    between atoms: S_20  and  N_21
REMARK                            x       y       z     vdW  Elec       q    Type
REMARK                         _______ _______ _______ _____ _____    ______ ____
ROOT
ATOM      1  C   UNL     1       3.649   5.098  18.225  0.00  0.00    +0.000 A 
ATOM      2  C   UNL     1       4.669   4.716  17.367  0.00  0.00    +0.000 A 
ATOM      3  C   UNL     1       4.914   5.820  16.529  0.00  0.00    +0.000 A 
ATOM      4  N   UNL     1       4.076   6.826  16.792  0.00  0.00    +0.000 NA
ATOM      5  N   UNL     1       3.425   6.448  17.930  0.00  0.00    +0.000 N 
ENDROOT
BRANCH   1  10
ATOM      6  C   UNL     1       0.848   2.046  22.286  0.00  0.00    +0.000 C 
ATOM      7  C   UNL     1       1.587   2.788  21.213  0.00  0.00    +0.000 A 
ATOM      8  C   UNL     1       2.978   2.912  21.240  0.00  0.00    +0.000 A 
ATOM      9  C   UNL     1       3.644   3.653  20.257  0.00  0.00    +0.000 A 
ATOM     10  C   UNL     1       2.937   4.271  19.216  0.00  0.00    +0.000 A 
ATOM     11  C   UNL     1       1.551   4.068  19.155  0.00  0.00    +0.000 A 
ATOM     12  C   UNL     1       0.878   3.376  20.165  0.00  0.00    +0.000 A 
ENDBRANCH   1  10
BRANCH   5  13
ATOM     13  C   UNL     1       2.664   7.421  18.640  0.00  0.00    +0.000 A 
ATOM     14  C   UNL     1       2.196   8.558  17.962  0.00  0.00    +0.000 A 
ATOM     15  C   UNL     1       1.353   9.461  18.615  0.00  0.00    +0.000 A 
ATOM     16  C   UNL     1       0.994   9.228  19.947  0.00  0.00    +0.000 A 
ATOM     17  C   UNL     1       1.518   8.145  20.650  0.00  0.00    +0.000 A 
ATOM     18  C   UNL     1       2.363   7.247  20.000  0.00  0.00    +0.000 A 
BRANCH  16  19
ATOM     19  S   UNL     1      -0.144  10.313  20.754  0.00  0.00    +0.000 S 
ATOM     20  O   UNL     1      -1.045  10.875  19.779  0.00  0.00    +0.000 OA
ATOM     21  O   UNL     1      -0.598   9.708  21.981  0.00  0.00    +0.000 OA
BRANCH  19  22
ATOM     22  N   UNL     1       0.885  11.563  21.205  0.00  0.00    +0.000 NA
ATOM     23  H   UNL     1       0.600  12.432  20.754  0.00  0.00    +0.000 HD
ATOM     24  H   UNL     1       0.945  11.616  22.222  0.00  0.00    +0.000 HD
ENDBRANCH  19  22
ENDBRANCH  16  19
ENDBRANCH   5  13
BRANCH   3  25
ATOM     25  C   UNL     1       5.959   5.941  15.464  0.00  0.00    +0.000 C 
BRANCH  25  26
ATOM     26  O   UNL     1       7.249   5.743  16.036  0.00  0.00    +0.000 OA
BRANCH  26  27
ATOM     27  N   UNL     1       7.495   6.611  17.113  0.00  0.00    +0.000 N 
ATOM     28  O   UNL     1       7.732   6.100  18.210  0.00  0.00    +0.000 OA
ATOM     29  O   UNL     1       7.409   7.798  16.802  0.00  0.00    +0.000 OA
ENDBRANCH  26  27
ENDBRANCH  25  26
ENDBRANCH   3  25
TORSDOF 7
ENDMDL
MODEL 6
REMARK VINA RESULT:      -7.1      3.800      6.124
REMARK  Name = 
REMARK  8 active torsions:
REMARK  status: ('A' for Active; 'I' for Inactive)
REMARK    1  A    between atoms: C_1  and  C_2
REMARK    2  A    between atoms: C_5  and  C_6
REMARK    3  A    between atoms: C_8  and  C_9
REMARK    4  A    between atoms: C_9  and  O_10
REMARK    5  A    between atoms: O_10  and  N_11
REMARK    6  A    between atoms: N_15  and  C_16
REMARK    7  A    between atoms: C_19  and  S_20
REMARK    8  A    between atoms: S_20  and  N_21
REMARK                            x       y       z     vdW  Elec       q    Type
REMARK                         _______ _______ _______ _____ _____    ______ ____
ROOT
ATOM      1  C   UNL     1       3.453   5.329  18.200  0.00  0.00    +0.000 A 
ATOM      2  C   UNL     1       4.428   4.988  17.276  0.00  0.00    +0.000 A 
ATOM      3  C   UNL     1       4.610   6.119  16.458  0.00  0.00    +0.000 A 
ATOM      4  N   UNL     1       3.774   7.103  16.797  0.00  0.00    +0.000 NA
ATOM      5  N   UNL     1       3.193   6.684  17.957  0.00  0.00    +0.000 N 
ENDROOT
BRANCH   1  10
ATOM      6  C   UNL     1       0.916   2.125  22.317  0.00  0.00    +0.000 C 
ATOM      7  C   UNL     1       1.589   2.908  21.230  0.00  0.00    +0.000 A 
ATOM      8  C   UNL     1       2.971   3.111  21.228  0.00  0.00    +0.000 A 
ATOM      9  C   UNL     1       3.573   3.888  20.231  0.00  0.00    +0.000 A 
ATOM     10  C   UNL     1       2.811   4.464  19.206  0.00  0.00    +0.000 A 
ATOM     11  C   UNL     1       1.437   4.183  19.174  0.00  0.00    +0.000 A 
ATOM     12  C   UNL     1       0.826   3.453  20.197  0.00  0.00    +0.000 A 
ENDBRANCH   1  10
BRANCH   5  13
ATOM     13  C   UNL     1       2.460   7.624  18.737  0.00  0.00    +0.000 A 
ATOM     14  C   UNL     1       1.973   8.792  18.129  0.00  0.00    +0.000 A 
ATOM     15  C   UNL     1       1.156   9.665  18.851  0.00  0.00    +0.000 A 
ATOM     16  C   UNL     1       0.842   9.372  20.182  0.00  0.00    +0.000 A 
ATOM     17  C   UNL     1       1.386   8.257  20.817  0.00  0.00    +0.000 A 
ATOM     18  C   UNL     1       2.205   7.388  20.097  0.00  0.00    +0.000 A 
BRANCH  16  19
ATOM     19  S   UNL     1      -0.265  10.420  21.076  0.00  0.00    +0.000 S 
ATOM     20  O   UNL     1      -1.201  11.022  20.161  0.00  0.00    +0.000 OA
ATOM     21  O   UNL     1      -0.672   9.763  22.294  0.00  0.00    +0.000 OA
BRANCH  19  22
ATOM     22  N   UNL     1       0.780  11.651  21.542  0.00  0.00    +0.000 NA
ATOM     23  H   UNL     1       0.727  12.426  20.880  0.00  0.00    +0.000 HD
ATOM     24  H   UNL     1       0.604  11.912  22.512  0.00  0.00    +0.000 HD
ENDBRANCH  19  22
ENDBRANCH  16  19
ENDBRANCH   5  13
BRANCH   3  25
ATOM     25  C   UNL     1       5.591   6.286  15.340  0.00  0.00    +0.000 C 
BRANCH  25  26
ATOM     26  O   UNL     1       6.911   6.062  15.826  0.00  0.00    +0.000 OA
BRANCH  26  27
ATOM     27  N   UNL     1       7.291   4.712  15.739  0.00  0.00    +0.000 N 
ATOM     28  O   UNL     1       6.899   4.076  14.757  0.00  0.00    +0.000 OA
ATOM     29  O   UNL     1       7.959   4.338  16.701  0.00  0.00    +0.000 OA
ENDBRANCH  26  27
ENDBRANCH  25  26
ENDBRANCH   3  25
TORSDOF 7
ENDMDL
MODEL 7
REMARK VINA RESULT:      -7.1      3.689      5.943
REMARK  Name = 
REMARK  8 active torsions:
REMARK  status: ('A' for Active; 'I' for Inactive)
REMARK    1  A    between atoms: C_1  and  C_2
REMARK    2  A    between atoms: C_5  and  C_6
REMARK    3  A    between atoms: C_8  and  C_9
REMARK    4  A    between atoms: C_9  and  O_10
REMARK    5  A    between atoms: O_10  and  N_11
REMARK    6  A    between atoms: N_15  and  C_16
REMARK    7  A    between atoms: C_19  and  S_20
REMARK    8  A    between atoms: S_20  and  N_21
REMARK                            x       y       z     vdW  Elec       q    Type
REMARK                         _______ _______ _______ _____ _____    ______ ____
ROOT
ATOM      1  C   UNL     1       3.629   5.190  18.274  0.00  0.00    +0.000 A 
ATOM      2  C   UNL     1       4.700   4.852  17.463  0.00  0.00    +0.000 A 
ATOM      3  C   UNL     1       4.905   5.947  16.603  0.00  0.00    +0.000 A 
ATOM      4  N   UNL     1       3.997   6.904  16.809  0.00  0.00    +0.000 NA
ATOM      5  N   UNL     1       3.330   6.515  17.934  0.00  0.00    +0.000 N 
ENDROOT
BRANCH   1  10
ATOM      6  C   UNL     1       0.922   2.057  22.338  0.00  0.00    +0.000 C 
ATOM      7  C   UNL     1       1.632   2.821  21.261  0.00  0.00    +0.000 A 
ATOM      8  C   UNL     1       3.027   2.868  21.201  0.00  0.00    +0.000 A 
ATOM      9  C   UNL     1       3.671   3.629  20.218  0.00  0.00    +0.000 A 
ATOM     10  C   UNL     1       2.935   4.345  19.264  0.00  0.00    +0.000 A 
ATOM     11  C   UNL     1       1.539   4.221  19.285  0.00  0.00    +0.000 A 
ATOM     12  C   UNL     1       0.893   3.507  20.297  0.00  0.00    +0.000 A 
ENDBRANCH   1  10
BRANCH   5  13
ATOM     13  C   UNL     1       2.485   7.455  18.590  0.00  0.00    +0.000 A 
ATOM     14  C   UNL     1       2.206   7.293  19.957  0.00  0.00    +0.000 A 
ATOM     15  C   UNL     1       1.473   8.268  20.639  0.00  0.00    +0.000 A 
ATOM     16  C   UNL     1       1.012   9.392  19.947  0.00  0.00    +0.000 A 
ATOM     17  C   UNL     1       1.216   9.521  18.575  0.00  0.00    +0.000 A 
ATOM     18  C   UNL     1       1.942   8.546  17.893  0.00  0.00    +0.000 A 
BRANCH  16  19
ATOM     19  S   UNL     1       0.165  10.675  20.819  0.00  0.00    +0.000 S 
ATOM     20  O   UNL     1       1.122  11.630  21.318  0.00  0.00    +0.000 OA
ATOM     21  O   UNL     1      -1.014  11.060  20.082  0.00  0.00    +0.000 OA
BRANCH  19  22
ATOM     22  N   UNL     1      -0.384   9.828  22.162  0.00  0.00    +0.000 NA
ATOM     23  H   UNL     1      -1.367   9.583  22.045  0.00  0.00    +0.000 HD
ATOM     24  H   UNL     1       0.229   9.035  22.351  0.00  0.00    +0.000 HD
ENDBRANCH  19  22
ENDBRANCH  16  19
ENDBRANCH   5  13
BRANCH   3  25
ATOM     25  C   UNL     1       5.978   6.107  15.571  0.00  0.00    +0.000 C 
BRANCH  25  26
ATOM     26  O   UNL     1       6.532   4.833  15.257  0.00  0.00    +0.000 OA
BRANCH  26  27
ATOM     27  N   UNL     1       7.031   4.776  13.945  0.00  0.00    +0.000 N 
ATOM     28  O   UNL     1       6.532   3.941  13.186  0.00  0.00    +0.000 OA
ATOM     29  O   UNL     1       7.943   5.574  13.742  0.00  0.00    +0.000 OA
ENDBRANCH  26  27
ENDBRANCH  25  26
ENDBRANCH   3  25
TORSDOF 7
ENDMDL
MODEL 8
REMARK VINA RESULT:      -7.0      3.614      5.543
REMARK  Name = 
REMARK  8 active torsions:
REMARK  status: ('A' for Active; 'I' for Inactive)
REMARK    1  A    between atoms: C_1  and  C_2
REMARK    2  A    between atoms: C_5  and  C_6
REMARK    3  A    between atoms: C_8  and  C_9
REMARK    4  A    between atoms: C_9  and  O_10
REMARK    5  A    between atoms: O_10  and  N_11
REMARK    6  A    between atoms: N_15  and  C_16
REMARK    7  A    between atoms: C_19  and  S_20
REMARK    8  A    between atoms: S_20  and  N_21
REMARK                            x       y       z     vdW  Elec       q    Type
REMARK                         _______ _______ _______ _____ _____    ______ ____
ROOT
ATOM      1  C   UNL     1       3.892   4.670  18.025  0.00  0.00    +0.000 A 
ATOM      2  C   UNL     1       4.902   4.175  17.215  0.00  0.00    +0.000 A 
ATOM      3  C   UNL     1       5.203   5.195  16.292  0.00  0.00    +0.000 A 
ATOM      4  N   UNL     1       4.407   6.253  16.461  0.00  0.00    +0.000 NA
ATOM      5  N   UNL     1       3.729   6.000  17.617  0.00  0.00    +0.000 N 
ENDROOT
BRANCH   1  10
ATOM      6  C   UNL     1       0.931   2.086  22.292  0.00  0.00    +0.000 C 
ATOM      7  C   UNL     1       1.708   2.705  21.169  0.00  0.00    +0.000 A 
ATOM      8  C   UNL     1       3.104   2.740  21.184  0.00  0.00    +0.000 A 
ATOM      9  C   UNL     1       3.810   3.368  20.150  0.00  0.00    +0.000 A 
ATOM     10  C   UNL     1       3.136   3.960  19.073  0.00  0.00    +0.000 A 
ATOM     11  C   UNL     1       1.739   3.844  19.030  0.00  0.00    +0.000 A 
ATOM     12  C   UNL     1       1.030   3.265  20.086  0.00  0.00    +0.000 A 
ENDBRANCH   1  10
BRANCH   5  13
ATOM     13  C   UNL     1       3.005   7.059  18.234  0.00  0.00    +0.000 A 
ATOM     14  C   UNL     1       2.656   8.189  17.476  0.00  0.00    +0.000 A 
ATOM     15  C   UNL     1       1.848   9.182  18.036  0.00  0.00    +0.000 A 
ATOM     16  C   UNL     1       1.404   9.045  19.355  0.00  0.00    +0.000 A 
ATOM     17  C   UNL     1       1.811   7.968  20.140  0.00  0.00    +0.000 A 
ATOM     18  C   UNL     1       2.621   6.980  19.583  0.00  0.00    +0.000 A 
BRANCH  16  19
ATOM     19  S   UNL     1       0.307  10.249  20.043  0.00  0.00    +0.000 S 
ATOM     20  O   UNL     1       1.070  11.369  20.534  0.00  0.00    +0.000 OA
ATOM     21  O   UNL     1      -0.840  10.400  19.182  0.00  0.00    +0.000 OA
BRANCH  19  22
ATOM     22  N   UNL     1      -0.239   9.430  21.404  0.00  0.00    +0.000 NA
ATOM     23  H   UNL     1      -0.292  10.068  22.199  0.00  0.00    +0.000 HD
ATOM     24  H   UNL     1      -1.111   8.944  21.195  0.00  0.00    +0.000 HD
ENDBRANCH  19  22
ENDBRANCH  16  19
ENDBRANCH   5  13
BRANCH   3  25
ATOM     25  C   UNL     1       6.262   5.182  15.234  0.00  0.00    +0.000 C 
BRANCH  25  26
ATOM     26  O   UNL     1       6.210   3.949  14.522  0.00  0.00    +0.000 OA
BRANCH  26  27
ATOM     27  N   UNL     1       6.625   4.085  13.187  0.00  0.00    +0.000 N 
ATOM     28  O   UNL     1       7.466   4.953  12.941  0.00  0.00    +0.000 OA
ATOM     29  O   UNL     1       6.049   3.312  12.424  0.00  0.00    +0.000 OA
ENDBRANCH  26  27
ENDBRANCH  25  26
ENDBRANCH   3  25
TORSDOF 7
ENDMDL
MODEL 9
REMARK VINA RESULT:      -7.0      3.873      6.198
REMARK  Name = 
REMARK  8 active torsions:
REMARK  status: ('A' for Active; 'I' for Inactive)
REMARK    1  A    between atoms: C_1  and  C_2
REMARK    2  A    between atoms: C_5  and  C_6
REMARK    3  A    between atoms: C_8  and  C_9
REMARK    4  A    between atoms: C_9  and  O_10
REMARK    5  A    between atoms: O_10  and  N_11
REMARK    6  A    between atoms: N_15  and  C_16
REMARK    7  A    between atoms: C_19  and  S_20
REMARK    8  A    between atoms: S_20  and  N_21
REMARK                            x       y       z     vdW  Elec       q    Type
REMARK                         _______ _______ _______ _____ _____    ______ ____
ROOT
ATOM      1  C   UNL     1       3.416   5.556  18.310  0.00  0.00    +0.000 A 
ATOM      2  C   UNL     1       4.448   5.294  17.424  0.00  0.00    +0.000 A 
ATOM      3  C   UNL     1       4.589   6.446  16.629  0.00  0.00    +0.000 A 
ATOM      4  N   UNL     1       3.676   7.369  16.944  0.00  0.00    +0.000 NA
ATOM      5  N   UNL     1       3.077   6.894  18.073  0.00  0.00    +0.000 N 
ENDROOT
BRANCH   1  10
ATOM      6  C   UNL     1       0.903   2.133  22.262  0.00  0.00    +0.000 C 
ATOM      7  C   UNL     1       1.577   2.974  21.221  0.00  0.00    +0.000 A 
ATOM      8  C   UNL     1       2.913   3.364  21.353  0.00  0.00    +0.000 A 
ATOM      9  C   UNL     1       3.509   4.192  20.395  0.00  0.00    +0.000 A 
ATOM     10  C   UNL     1       2.790   4.635  19.276  0.00  0.00    +0.000 A 
ATOM     11  C   UNL     1       1.478   4.168  19.114  0.00  0.00    +0.000 A 
ATOM     12  C   UNL     1       0.863   3.386  20.095  0.00  0.00    +0.000 A 
ENDBRANCH   1  10
BRANCH   5  13
ATOM     13  C   UNL     1       2.251   7.772  18.832  0.00  0.00    +0.000 A 
ATOM     14  C   UNL     1       2.023   7.499  20.191  0.00  0.00    +0.000 A 
ATOM     15  C   UNL     1       1.311   8.411  20.975  0.00  0.00    +0.000 A 
ATOM     16  C   UNL     1       0.819   9.583  20.392  0.00  0.00    +0.000 A 
ATOM     17  C   UNL     1       0.972   9.823  19.028  0.00  0.00    +0.000 A 
ATOM     18  C   UNL     1       1.678   8.910  18.245  0.00  0.00    +0.000 A 
BRANCH  16  19
ATOM     19  S   UNL     1      -0.002  10.785  21.393  0.00  0.00    +0.000 S 
ATOM     20  O   UNL     1      -0.715  10.120  22.456  0.00  0.00    +0.000 OA
ATOM     21  O   UNL     1       0.879  11.904  21.623  0.00  0.00    +0.000 OA
BRANCH  19  22
ATOM     22  N   UNL     1      -1.177  11.332  20.323  0.00  0.00    +0.000 NA
ATOM     23  H   UNL     1      -1.754  12.045  20.770  0.00  0.00    +0.000 HD
ATOM     24  H   UNL     1      -0.744  11.627  19.449  0.00  0.00    +0.000 HD
ENDBRANCH  19  22
ENDBRANCH  16  19
ENDBRANCH   5  13
BRANCH   3  25
ATOM     25  C   UNL     1       5.603   6.695  15.555  0.00  0.00    +0.000 C 
BRANCH  25  26
ATOM     26  O   UNL     1       5.890   5.475  14.878  0.00  0.00    +0.000 OA
BRANCH  26  27
ATOM     27  N   UNL     1       7.255   5.147  14.923  0.00  0.00    +0.000 N 
ATOM     28  O   UNL     1       7.944   5.457  13.947  0.00  0.00    +0.000 OA
ATOM     29  O   UNL     1       7.574   4.554  15.952  0.00  0.00    +0.000 OA
ENDBRANCH  26  27
ENDBRANCH  25  26
ENDBRANCH   3  25
TORSDOF 7
ENDMDL
