MODEL 1
REMARK VINA RESULT:      -8.3      0.000      0.000
REMARK  Name = 
REMARK  5 active torsions:
REMARK  status: ('A' for Active; 'I' for Inactive)
REMARK    1  A    between atoms: C_1  and  C_2
REMARK    2  A    between atoms: C_4  and  N_5
REMARK    3  A    between atoms: C_7  and  C_8
REMARK    4  A    between atoms: C_10  and  C_11
REMARK    5  A    between atoms: C_15  and  C_16
REMARK                            x       y       z     vdW  Elec       q    Type
REMARK                         _______ _______ _______ _____ _____    ______ ____
ROOT
ATOM      1  C   UNL     1       2.478   3.249  20.761  0.00  0.00    +0.000 C 
ATOM      2  C   UNL     1       2.862   4.349  19.803  0.00  0.00    +0.000 A 
ATOM      3  C   UNL     1       3.797   3.995  18.706  0.00  0.00    +0.000 A 
ATOM      4  C   UNL     1       4.228   4.998  17.919  0.00  0.00    +0.000 A 
ATOM      5  N   UNL     1       3.658   6.269  18.093  0.00  0.00    +0.000 N 
ATOM      6  N   UNL     1       3.796   7.369  17.303  0.00  0.00    +0.000 NA
ATOM      7  C   UNL     1       3.040   8.297  17.850  0.00  0.00    +0.000 A 
ATOM      8  C   UNL     1       2.320   7.832  18.959  0.00  0.00    +0.000 A 
ATOM      9  C   UNL     1       2.725   6.509  19.111  0.00  0.00    +0.000 A 
ATOM     10  N   UNL     1       2.367   5.536  20.004  0.00  0.00    +0.000 NA
ENDROOT
BRANCH   4  11
ATOM     11  N   UNL     1       5.182   4.750  16.919  0.00  0.00    +0.000 N 
ATOM     12  N   UNL     1       4.864   4.196  15.695  0.00  0.00    +0.000 NA
ATOM     13  C   UNL     1       6.000   4.186  14.995  0.00  0.00    +0.000 A 
ATOM     14  C   UNL     1       6.015   3.782  13.567  0.00  0.00    +0.000 C 
ATOM     15  C   UNL     1       7.098   4.537  15.786  0.00  0.00    +0.000 A 
ATOM     16  C   UNL     1       6.576   4.854  17.018  0.00  0.00    +0.000 A 
ATOM     17  C   UNL     1       7.307   5.144  18.280  0.00  0.00    +0.000 C 
ENDBRANCH   4  11
BRANCH   8  18
ATOM     18  C   UNL     1       1.372   8.533  19.796  0.00  0.00    +0.000 A 
ATOM     19  C   UNL     1       1.203   8.192  21.140  0.00  0.00    +0.000 A 
ATOM     20  C   UNL     1       0.348   8.927  21.952  0.00  0.00    +0.000 A 
ATOM     21  C   UNL     1      -0.374   9.996  21.422  0.00  0.00    +0.000 A 
ATOM     22  C   UNL     1      -0.251  10.318  20.072  0.00  0.00    +0.000 A 
ATOM     23  C   UNL     1       0.620   9.594  19.262  0.00  0.00    +0.000 A 
ENDBRANCH   8  18
TORSDOF 2
ENDMDL
MODEL 2
REMARK VINA RESULT:      -8.2      0.108      1.013
REMARK  Name = 
REMARK  5 active torsions:
REMARK  status: ('A' for Active; 'I' for Inactive)
REMARK    1  A    between atoms: C_1  and  C_2
REMARK    2  A    between atoms: C_4  and  N_5
REMARK    3  A    between atoms: C_7  and  C_8
REMARK    4  A    between atoms: C_10  and  C_11
REMARK    5  A    between atoms: C_15  and  C_16
REMARK                            x       y       z     vdW  Elec       q    Type
REMARK                         _______ _______ _______ _____ _____    ______ ____
ROOT
ATOM      1  C   UNL     1       2.480   3.363  20.891  0.00  0.00    +0.000 C 
ATOM      2  C   UNL     1       2.852   4.442  19.904  0.00  0.00    +0.000 A 
ATOM      3  C   UNL     1       3.778   4.066  18.807  0.00  0.00    +0.000 A 
ATOM      4  C   UNL     1       4.199   5.051  17.993  0.00  0.00    +0.000 A 
ATOM      5  N   UNL     1       3.628   6.324  18.144  0.00  0.00    +0.000 N 
ATOM      6  N   UNL     1       3.755   7.407  17.328  0.00  0.00    +0.000 NA
ATOM      7  C   UNL     1       3.001   8.345  17.860  0.00  0.00    +0.000 A 
ATOM      8  C   UNL     1       2.292   7.903  18.987  0.00  0.00    +0.000 A 
ATOM      9  C   UNL     1       2.702   6.586  19.164  0.00  0.00    +0.000 A 
ATOM     10  N   UNL     1       2.355   5.632  20.083  0.00  0.00    +0.000 NA
ENDROOT
BRANCH   4  11
ATOM     11  N   UNL     1       5.144   4.784  16.991  0.00  0.00    +0.000 N 
ATOM     12  N   UNL     1       4.813   4.227  15.771  0.00  0.00    +0.000 NA
ATOM     13  C   UNL     1       5.945   4.195  15.066  0.00  0.00    +0.000 A 
ATOM     14  C   UNL     1       5.947   3.784  13.641  0.00  0.00    +0.000 C 
ATOM     15  C   UNL     1       7.052   4.536  15.851  0.00  0.00    +0.000 A 
ATOM     16  C   UNL     1       6.540   4.867  17.083  0.00  0.00    +0.000 A 
ATOM     17  C   UNL     1       7.282   5.154  18.340  0.00  0.00    +0.000 C 
ENDBRANCH   4  11
BRANCH   8  18
ATOM     18  C   UNL     1       1.350   8.621  19.816  0.00  0.00    +0.000 A 
ATOM     19  C   UNL     1       0.564   9.651  19.293  0.00  0.00    +0.000 A 
ATOM     20  C   UNL     1      -0.394  10.275  20.082  0.00  0.00    +0.000 A 
ATOM     21  C   UNL     1      -0.558   9.900  21.415  0.00  0.00    +0.000 A 
ATOM     22  C   UNL     1       0.252   8.907  21.962  0.00  0.00    +0.000 A 
ATOM     23  C   UNL     1       1.199   8.267  21.168  0.00  0.00    +0.000 A 
ENDBRANCH   8  18
TORSDOF 2
ENDMDL
MODEL 3
REMARK VINA RESULT:      -8.0      0.947      1.023
REMARK  Name = 
REMARK  5 active torsions:
REMARK  status: ('A' for Active; 'I' for Inactive)
REMARK    1  A    between atoms: C_1  and  C_2
REMARK    2  A    between atoms: C_4  and  N_5
REMARK    3  A    between atoms: C_7  and  C_8
REMARK    4  A    between atoms: C_10  and  C_11
REMARK    5  A    between atoms: C_15  and  C_16
REMARK                            x       y       z     vdW  Elec       q    Type
REMARK                         _______ _______ _______ _____ _____    ______ ____
ROOT
ATOM      1  C   UNL     1       2.053   2.611  19.162  0.00  0.00    +0.000 C 
ATOM      2  C   UNL     1       2.682   3.811  18.500  0.00  0.00    +0.000 A 
ATOM      3  C   UNL     1       3.665   3.550  17.419  0.00  0.00    +0.000 A 
ATOM      4  C   UNL     1       4.310   4.613  16.906  0.00  0.00    +0.000 A 
ATOM      5  N   UNL     1       3.910   5.894  17.318  0.00  0.00    +0.000 N 
ATOM      6  N   UNL     1       4.279   7.098  16.803  0.00  0.00    +0.000 NA
ATOM      7  C   UNL     1       3.609   8.001  17.488  0.00  0.00    +0.000 A 
ATOM      8  C   UNL     1       2.722   7.434  18.415  0.00  0.00    +0.000 A 
ATOM      9  C   UNL     1       2.920   6.062  18.296  0.00  0.00    +0.000 A 
ATOM     10  N   UNL     1       2.340   4.993  18.925  0.00  0.00    +0.000 NA
ENDROOT
BRANCH   4  11
ATOM     11  N   UNL     1       5.317   4.432  15.944  0.00  0.00    +0.000 N 
ATOM     12  N   UNL     1       5.060   4.013  14.654  0.00  0.00    +0.000 NA
ATOM     13  C   UNL     1       6.236   4.031  14.024  0.00  0.00    +0.000 A 
ATOM     14  C   UNL     1       6.328   3.771  12.567  0.00  0.00    +0.000 C 
ATOM     15  C   UNL     1       7.292   4.263  14.911  0.00  0.00    +0.000 A 
ATOM     16  C   UNL     1       6.704   4.474  16.136  0.00  0.00    +0.000 A 
ATOM     17  C   UNL     1       7.364   4.612  17.462  0.00  0.00    +0.000 C 
ENDBRANCH   4  11
BRANCH   8  18
ATOM     18  C   UNL     1       1.802   8.087  19.319  0.00  0.00    +0.000 A 
ATOM     19  C   UNL     1       1.593   7.603  20.613  0.00  0.00    +0.000 A 
ATOM     20  C   UNL     1       0.768   8.287  21.496  0.00  0.00    +0.000 A 
ATOM     21  C   UNL     1       0.114   9.449  21.087  0.00  0.00    +0.000 A 
ATOM     22  C   UNL     1       0.275   9.916  19.785  0.00  0.00    +0.000 A 
ATOM     23  C   UNL     1       1.117   9.243  18.904  0.00  0.00    +0.000 A 
ENDBRANCH   8  18
TORSDOF 2
ENDMDL
MODEL 4
REMARK VINA RESULT:      -7.8      2.218      7.355
REMARK  Name = 
REMARK  5 active torsions:
REMARK  status: ('A' for Active; 'I' for Inactive)
REMARK    1  A    between atoms: C_1  and  C_2
REMARK    2  A    between atoms: C_4  and  N_5
REMARK    3  A    between atoms: C_7  and  C_8
REMARK    4  A    between atoms: C_10  and  C_11
REMARK    5  A    between atoms: C_15  and  C_16
REMARK                            x       y       z     vdW  Elec       q    Type
REMARK                         _______ _______ _______ _____ _____    ______ ____
ROOT
ATOM      1  C   UNL     1       8.221   5.935  19.038  0.00  0.00    +0.000 C 
ATOM      2  C   UNL     1       6.921   5.414  18.478  0.00  0.00    +0.000 A 
ATOM      3  C   UNL     1       5.771   5.321  19.410  0.00  0.00    +0.000 A 
ATOM      4  C   UNL     1       4.644   4.752  18.943  0.00  0.00    +0.000 A 
ATOM      5  N   UNL     1       4.585   4.423  17.579  0.00  0.00    +0.000 N 
ATOM      6  N   UNL     1       3.504   4.023  16.855  0.00  0.00    +0.000 NA
ATOM      7  C   UNL     1       3.935   3.879  15.620  0.00  0.00    +0.000 A 
ATOM      8  C   UNL     1       5.278   4.251  15.463  0.00  0.00    +0.000 A 
ATOM      9  C   UNL     1       5.695   4.607  16.742  0.00  0.00    +0.000 A 
ATOM     10  N   UNL     1       6.892   5.065  17.224  0.00  0.00    +0.000 NA
ENDROOT
BRANCH   4  11
ATOM     11  N   UNL     1       3.548   4.550  19.795  0.00  0.00    +0.000 N 
ATOM     12  N   UNL     1       3.206   3.312  20.304  0.00  0.00    +0.000 NA
ATOM     13  C   UNL     1       2.173   3.527  21.120  0.00  0.00    +0.000 A 
ATOM     14  C   UNL     1       1.621   2.436  21.959  0.00  0.00    +0.000 C 
ATOM     15  C   UNL     1       1.699   4.839  21.018  0.00  0.00    +0.000 A 
ATOM     16  C   UNL     1       2.551   5.471  20.143  0.00  0.00    +0.000 A 
ATOM     17  C   UNL     1       2.422   6.830  19.554  0.00  0.00    +0.000 C 
ENDBRANCH   4  11
BRANCH   8  18
ATOM     18  C   UNL     1       6.092   4.264  14.268  0.00  0.00    +0.000 A 
ATOM     19  C   UNL     1       5.804   3.426  13.188  0.00  0.00    +0.000 A 
ATOM     20  C   UNL     1       6.546   3.509  12.016  0.00  0.00    +0.000 A 
ATOM     21  C   UNL     1       7.606   4.409  11.919  0.00  0.00    +0.000 A 
ATOM     22  C   UNL     1       7.934   5.216  13.006  0.00  0.00    +0.000 A 
ATOM     23  C   UNL     1       7.180   5.149  14.174  0.00  0.00    +0.000 A 
ENDBRANCH   8  18
TORSDOF 2
ENDMDL
MODEL 5
REMARK VINA RESULT:      -7.6      2.215      7.353
REMARK  Name = 
REMARK  5 active torsions:
REMARK  status: ('A' for Active; 'I' for Inactive)
REMARK    1  A    between atoms: C_1  and  C_2
REMARK    2  A    between atoms: C_4  and  N_5
REMARK    3  A    between atoms: C_7  and  C_8
REMARK    4  A    between atoms: C_10  and  C_11
REMARK    5  A    between atoms: C_15  and  C_16
REMARK                            x       y       z     vdW  Elec       q    Type
REMARK                         _______ _______ _______ _____ _____    ______ ____
ROOT
ATOM      1  C   UNL     1       8.161   6.138  18.941  0.00  0.00    +0.000 C 
ATOM      2  C   UNL     1       6.877   5.552  18.410  0.00  0.00    +0.000 A 
ATOM      3  C   UNL     1       5.749   5.416  19.365  0.00  0.00    +0.000 A 
ATOM      4  C   UNL     1       4.642   4.792  18.924  0.00  0.00    +0.000 A 
ATOM      5  N   UNL     1       4.573   4.447  17.565  0.00  0.00    +0.000 N 
ATOM      6  N   UNL     1       3.499   3.989  16.865  0.00  0.00    +0.000 NA
ATOM      7  C   UNL     1       3.914   3.853  15.623  0.00  0.00    +0.000 A 
ATOM      8  C   UNL     1       5.235   4.283  15.438  0.00  0.00    +0.000 A 
ATOM      9  C   UNL     1       5.658   4.672  16.706  0.00  0.00    +0.000 A 
ATOM     10  N   UNL     1       6.841   5.189  17.160  0.00  0.00    +0.000 NA
ENDROOT
BRANCH   4  11
ATOM     11  N   UNL     1       3.572   4.549  19.799  0.00  0.00    +0.000 N 
ATOM     12  N   UNL     1       3.268   3.294  20.289  0.00  0.00    +0.000 NA
ATOM     13  C   UNL     1       2.252   3.470  21.135  0.00  0.00    +0.000 A 
ATOM     14  C   UNL     1       1.744   2.350  21.964  0.00  0.00    +0.000 C 
ATOM     15  C   UNL     1       1.748   4.773  21.072  0.00  0.00    +0.000 A 
ATOM     16  C   UNL     1       2.564   5.440  20.190  0.00  0.00    +0.000 A 
ATOM     17  C   UNL     1       2.393   6.809  19.633  0.00  0.00    +0.000 C 
ENDBRANCH   4  11
BRANCH   8  18
ATOM     18  C   UNL     1       6.026   4.321  14.228  0.00  0.00    +0.000 A 
ATOM     19  C   UNL     1       7.138   5.160  14.117  0.00  0.00    +0.000 A 
ATOM     20  C   UNL     1       7.935   5.125  12.979  0.00  0.00    +0.000 A 
ATOM     21  C   UNL     1       7.611   4.274  11.923  0.00  0.00    +0.000 A 
ATOM     22  C   UNL     1       6.479   3.467  12.001  0.00  0.00    +0.000 A 
ATOM     23  C   UNL     1       5.690   3.486  13.148  0.00  0.00    +0.000 A 
ENDBRANCH   8  18
TORSDOF 2
ENDMDL
MODEL 6
REMARK VINA RESULT:      -7.2      4.337      7.590
REMARK  Name = 
REMARK  5 active torsions:
REMARK  status: ('A' for Active; 'I' for Inactive)
REMARK    1  A    between atoms: C_1  and  C_2
REMARK    2  A    between atoms: C_4  and  N_5
REMARK    3  A    between atoms: C_7  and  C_8
REMARK    4  A    between atoms: C_10  and  C_11
REMARK    5  A    between atoms: C_15  and  C_16
REMARK                            x       y       z     vdW  Elec       q    Type
REMARK                         _______ _______ _______ _____ _____    ______ ____
ROOT
ATOM      1  C   UNL     1       3.308   3.720  17.415  0.00  0.00    +0.000 C 
ATOM      2  C   UNL     1       4.523   4.297  16.733  0.00  0.00    +0.000 A 
ATOM      3  C   UNL     1       5.377   5.209  17.533  0.00  0.00    +0.000 A 
ATOM      4  C   UNL     1       6.397   5.814  16.895  0.00  0.00    +0.000 A 
ATOM      5  N   UNL     1       6.669   5.433  15.572  0.00  0.00    +0.000 N 
ATOM      6  N   UNL     1       7.745   5.761  14.805  0.00  0.00    +0.000 NA
ATOM      7  C   UNL     1       7.574   5.131  13.662  0.00  0.00    +0.000 A 
ATOM      8  C   UNL     1       6.438   4.309  13.656  0.00  0.00    +0.000 A 
ATOM      9  C   UNL     1       5.855   4.508  14.904  0.00  0.00    +0.000 A 
ATOM     10  N   UNL     1       4.737   3.977  15.490  0.00  0.00    +0.000 NA
ENDROOT
BRANCH   4  11
ATOM     11  N   UNL     1       7.191   6.757  17.567  0.00  0.00    +0.000 N 
ATOM     12  N   UNL     1       7.426   8.027  17.080  0.00  0.00    +0.000 NA
ATOM     13  C   UNL     1       8.149   8.646  18.015  0.00  0.00    +0.000 A 
ATOM     14  C   UNL     1       8.476  10.088  17.898  0.00  0.00    +0.000 C 
ATOM     15  C   UNL     1       8.562   7.763  19.017  0.00  0.00    +0.000 A 
ATOM     16  C   UNL     1       7.985   6.555  18.703  0.00  0.00    +0.000 A 
ATOM     17  C   UNL     1       8.215   5.232  19.342  0.00  0.00    +0.000 C 
ENDBRANCH   4  11
BRANCH   8  18
ATOM     18  C   UNL     1       5.938   3.445  12.610  0.00  0.00    +0.000 A 
ATOM     19  C   UNL     1       6.729   2.427  12.072  0.00  0.00    +0.000 A 
ATOM     20  C   UNL     1       6.207   1.554  11.126  0.00  0.00    +0.000 A 
ATOM     21  C   UNL     1       4.894   1.707  10.681  0.00  0.00    +0.000 A 
ATOM     22  C   UNL     1       4.109   2.747  11.174  0.00  0.00    +0.000 A 
ATOM     23  C   UNL     1       4.624   3.610  12.137  0.00  0.00    +0.000 A 
ENDBRANCH   8  18
TORSDOF 2
ENDMDL
MODEL 7
REMARK VINA RESULT:      -7.2      3.202      7.586
REMARK  Name = 
REMARK  5 active torsions:
REMARK  status: ('A' for Active; 'I' for Inactive)
REMARK    1  A    between atoms: C_1  and  C_2
REMARK    2  A    between atoms: C_4  and  N_5
REMARK    3  A    between atoms: C_7  and  C_8
REMARK    4  A    between atoms: C_10  and  C_11
REMARK    5  A    between atoms: C_15  and  C_16
REMARK                            x       y       z     vdW  Elec       q    Type
REMARK                         _______ _______ _______ _____ _____    ______ ____
ROOT
ATOM      1  C   UNL     1       0.064   9.362  23.453  0.00  0.00    +0.000 C 
ATOM      2  C   UNL     1       0.535   9.508  22.027  0.00  0.00    +0.000 A 
ATOM      3  C   UNL     1       0.404  10.849  21.405  0.00  0.00    +0.000 A 
ATOM      4  C   UNL     1       0.718  10.955  20.101  0.00  0.00    +0.000 A 
ATOM      5  N   UNL     1       1.280   9.838  19.462  0.00  0.00    +0.000 N 
ATOM      6  N   UNL     1       1.841   9.770  18.224  0.00  0.00    +0.000 NA
ATOM      7  C   UNL     1       2.265   8.531  18.092  0.00  0.00    +0.000 A 
ATOM      8  C   UNL     1       2.076   7.763  19.250  0.00  0.00    +0.000 A 
ATOM      9  C   UNL     1       1.437   8.621  20.140  0.00  0.00    +0.000 A 
ATOM     10  N   UNL     1       1.008   8.453  21.428  0.00  0.00    +0.000 NA
ENDROOT
BRANCH   4  11
ATOM     11  N   UNL     1       0.533  12.172  19.426  0.00  0.00    +0.000 N 
ATOM     12  N   UNL     1       1.307  13.290  19.663  0.00  0.00    +0.000 NA
ATOM     13  C   UNL     1       0.891  14.212  18.793  0.00  0.00    +0.000 A 
ATOM     14  C   UNL     1       1.594  15.511  18.659  0.00  0.00    +0.000 C 
ATOM     15  C   UNL     1      -0.264  13.801  18.120  0.00  0.00    +0.000 A 
ATOM     16  C   UNL     1      -0.510  12.522  18.559  0.00  0.00    +0.000 A 
ATOM     17  C   UNL     1      -1.698  11.669  18.288  0.00  0.00    +0.000 C 
ENDBRANCH   4  11
BRANCH   8  18
ATOM     18  C   UNL     1       2.434   6.385  19.504  0.00  0.00    +0.000 A 
ATOM     19  C   UNL     1       1.777   5.636  20.483  0.00  0.00    +0.000 A 
ATOM     20  C   UNL     1       2.077   4.291  20.659  0.00  0.00    +0.000 A 
ATOM     21  C   UNL     1       3.061   3.684  19.880  0.00  0.00    +0.000 A 
ATOM     22  C   UNL     1       3.757   4.431  18.933  0.00  0.00    +0.000 A 
ATOM     23  C   UNL     1       3.445   5.774  18.741  0.00  0.00    +0.000 A 
ENDBRANCH   8  18
TORSDOF 2
ENDMDL
MODEL 8
REMARK VINA RESULT:      -7.2      4.100      7.559
REMARK  Name = 
REMARK  5 active torsions:
REMARK  status: ('A' for Active; 'I' for Inactive)
REMARK    1  A    between atoms: C_1  and  C_2
REMARK    2  A    between atoms: C_4  and  N_5
REMARK    3  A    between atoms: C_7  and  C_8
REMARK    4  A    between atoms: C_10  and  C_11
REMARK    5  A    between atoms: C_15  and  C_16
REMARK                            x       y       z     vdW  Elec       q    Type
REMARK                         _______ _______ _______ _____ _____    ______ ____
ROOT
ATOM      1  C   UNL     1       2.999   4.141  17.396  0.00  0.00    +0.000 C 
ATOM      2  C   UNL     1       4.285   4.582  16.745  0.00  0.00    +0.000 A 
ATOM      3  C   UNL     1       5.187   5.448  17.545  0.00  0.00    +0.000 A 
ATOM      4  C   UNL     1       6.279   5.935  16.928  0.00  0.00    +0.000 A 
ATOM      5  N   UNL     1       6.566   5.478  15.632  0.00  0.00    +0.000 N 
ATOM      6  N   UNL     1       7.695   5.680  14.899  0.00  0.00    +0.000 NA
ATOM      7  C   UNL     1       7.513   5.022  13.774  0.00  0.00    +0.000 A 
ATOM      8  C   UNL     1       6.309   4.303  13.751  0.00  0.00    +0.000 A 
ATOM      9  C   UNL     1       5.699   4.602  14.965  0.00  0.00    +0.000 A 
ATOM     10  N   UNL     1       4.518   4.194  15.524  0.00  0.00    +0.000 NA
ENDROOT
BRANCH   4  11
ATOM     11  N   UNL     1       7.128   6.831  17.597  0.00  0.00    +0.000 N 
ATOM     12  N   UNL     1       7.404   8.100  17.128  0.00  0.00    +0.000 NA
ATOM     13  C   UNL     1       8.174   8.671  18.055  0.00  0.00    +0.000 A 
ATOM     14  C   UNL     1       8.557  10.100  17.958  0.00  0.00    +0.000 C 
ATOM     15  C   UNL     1       8.575   7.752  19.030  0.00  0.00    +0.000 A 
ATOM     16  C   UNL     1       7.941   6.575  18.709  0.00  0.00    +0.000 A 
ATOM     17  C   UNL     1       8.132   5.231  19.317  0.00  0.00    +0.000 C 
ENDBRANCH   4  11
BRANCH   8  18
ATOM     18  C   UNL     1       5.774   3.445  12.718  0.00  0.00    +0.000 A 
ATOM     19  C   UNL     1       4.509   3.673  12.171  0.00  0.00    +0.000 A 
ATOM     20  C   UNL     1       4.042   2.888  11.123  0.00  0.00    +0.000 A 
ATOM     21  C   UNL     1       4.823   1.845  10.628  0.00  0.00    +0.000 A 
ATOM     22  C   UNL     1       6.067   1.577  11.195  0.00  0.00    +0.000 A 
ATOM     23  C   UNL     1       6.544   2.373  12.232  0.00  0.00    +0.000 A 
ENDBRANCH   8  18
TORSDOF 2
ENDMDL
MODEL 9
REMARK VINA RESULT:      -7.2      3.264      7.615
REMARK  Name = 
REMARK  5 active torsions:
REMARK  status: ('A' for Active; 'I' for Inactive)
REMARK    1  A    between atoms: C_1  and  C_2
REMARK    2  A    between atoms: C_4  and  N_5
REMARK    3  A    between atoms: C_7  and  C_8
REMARK    4  A    between atoms: C_10  and  C_11
REMARK    5  A    between atoms: C_15  and  C_16
REMARK                            x       y       z     vdW  Elec       q    Type
REMARK                         _______ _______ _______ _____ _____    ______ ____
ROOT
ATOM      1  C   UNL     1       0.013   9.379  23.483  0.00  0.00    +0.000 C 
ATOM      2  C   UNL     1       0.492   9.519  22.060  0.00  0.00    +0.000 A 
ATOM      3  C   UNL     1       0.363  10.856  21.429  0.00  0.00    +0.000 A 
ATOM      4  C   UNL     1       0.685  10.955  20.127  0.00  0.00    +0.000 A 
ATOM      5  N   UNL     1       1.254   9.836  19.498  0.00  0.00    +0.000 N 
ATOM      6  N   UNL     1       1.823   9.763  18.264  0.00  0.00    +0.000 NA
ATOM      7  C   UNL     1       2.251   8.524  18.141  0.00  0.00    +0.000 A 
ATOM      8  C   UNL     1       2.056   7.762  19.302  0.00  0.00    +0.000 A 
ATOM      9  C   UNL     1       1.410   8.623  20.183  0.00  0.00    +0.000 A 
ATOM     10  N   UNL     1       0.972   8.462  21.470  0.00  0.00    +0.000 NA
ENDROOT
BRANCH   4  11
ATOM     11  N   UNL     1       0.502  12.168  19.444  0.00  0.00    +0.000 N 
ATOM     12  N   UNL     1       1.267  13.292  19.685  0.00  0.00    +0.000 NA
ATOM     13  C   UNL     1       0.856  14.207  18.806  0.00  0.00    +0.000 A 
ATOM     14  C   UNL     1       1.553  15.509  18.675  0.00  0.00    +0.000 C 
ATOM     15  C   UNL     1      -0.289  13.787  18.121  0.00  0.00    +0.000 A 
ATOM     16  C   UNL     1      -0.533  12.508  18.562  0.00  0.00    +0.000 A 
ATOM     17  C   UNL     1      -1.713  11.647  18.281  0.00  0.00    +0.000 C 
ENDBRANCH   4  11
BRANCH   8  18
ATOM     18  C   UNL     1       2.416   6.387  19.566  0.00  0.00    +0.000 A 
ATOM     19  C   UNL     1       3.547   5.809  18.982  0.00  0.00    +0.000 A 
ATOM     20  C   UNL     1       3.924   4.513  19.309  0.00  0.00    +0.000 A 
ATOM     21  C   UNL     1       3.158   3.764  20.202  0.00  0.00    +0.000 A 
ATOM     22  C   UNL     1       2.002   4.310  20.755  0.00  0.00    +0.000 A 
ATOM     23  C   UNL     1       1.633   5.616  20.443  0.00  0.00    +0.000 A 
ENDBRANCH   8  18
TORSDOF 2
ENDMDL
