MODEL 1
REMARK VINA RESULT:      -7.2      0.000      0.000
REMARK  Name = 
REMARK  10 active torsions:
REMARK  status: ('A' for Active; 'I' for Inactive)
REMARK    1  A    between atoms: C_1  and  C_2
REMARK    2  A    between atoms: C_2  and  C_3
REMARK    3  A    between atoms: N_5  and  C_6
REMARK    4  A    between atoms: N_5  and  C_12
REMARK    5  A    between atoms: C_12  and  C_13
REMARK    6  A    between atoms: C_13  and  O_14
REMARK    7  A    between atoms: O_14  and  C_15
REMARK    8  A    between atoms: N_18  and  C_19
REMARK    9  A    between atoms: C_19  and  C_20
REMARK   10  A    between atoms: C_20  and  C_21
REMARK                            x       y       z     vdW  Elec       q    Type
REMARK                         _______ _______ _______ _____ _____    ______ ____
ROOT
ATOM      1  C   UNL     1       4.765   4.903  17.447  0.00  0.00    +0.000 C 
ATOM      2  C   UNL     1       5.868   4.371  18.398  0.00  0.00    +0.000 C 
ATOM      3  C   UNL     1       6.749   5.483  18.948  0.00  0.00    +0.000 C 
ATOM      4  N   UNL     1       7.411   6.285  17.911  0.00  0.00    +0.000 NA
ATOM      5  C   UNL     1       6.488   6.758  16.867  0.00  0.00    +0.000 C 
ATOM      6  C   UNL     1       5.533   5.687  16.340  0.00  0.00    +0.000 C 
ENDROOT
BRANCH   1   9
ATOM      7  C   UNL     1       3.415   7.012  17.892  0.00  0.00    +0.000 C 
ATOM      8  O   UNL     1       4.027   7.614  17.006  0.00  0.00    +0.000 OA
ATOM      9  N   UNL     1       3.708   5.678  18.246  0.00  0.00    +0.000 N 
BRANCH   9  10
ATOM     10  C   UNL     1       2.864   4.980  19.169  0.00  0.00    +0.000 A 
ATOM     11  C   UNL     1       1.664   4.396  18.734  0.00  0.00    +0.000 A 
ATOM     12  C   UNL     1       0.823   3.724  19.625  0.00  0.00    +0.000 A 
ATOM     13  C   UNL     1       1.189   3.604  20.962  0.00  0.00    +0.000 A 
ATOM     14  C   UNL     1       2.389   4.161  21.405  0.00  0.00    +0.000 A 
ATOM     15  C   UNL     1       3.216   4.860  20.517  0.00  0.00    +0.000 A 
ENDBRANCH   9  10
BRANCH   7  17
ATOM     16  C   UNL     1       1.736   8.917  17.872  0.00  0.00    +0.000 C 
ATOM     17  C   UNL     1       2.290   7.729  18.643  0.00  0.00    +0.000 C 
ENDBRANCH   7  17
ENDBRANCH   1   9
BRANCH   1  18
ATOM     18  C   UNL     1       4.137   3.649  16.744  0.00  0.00    +0.000 C 
BRANCH  18  19
ATOM     19  O   UNL     1       4.555   2.425  17.361  0.00  0.00    +0.000 OA
ATOM     20  C   UNL     1       3.430   1.700  17.847  0.00  0.00    +0.000 C 
ENDBRANCH  18  19
ENDBRANCH   1  18
BRANCH   4  21
ATOM     21  C   UNL     1       8.061   7.472  18.527  0.00  0.00    +0.000 C 
BRANCH  21  22
ATOM     22  C   UNL     1       8.029   8.723  17.642  0.00  0.00    +0.000 C 
BRANCH  22  23
ATOM     23  C   UNL     1       8.630   9.899  18.324  0.00  0.00    +0.000 A 
ATOM     24  C   UNL     1       8.679  11.213  17.906  0.00  0.00    +0.000 A 
ATOM     25  N   UNL     1       9.374  11.869  18.882  0.00  0.00    +0.000 N 
ATOM     26  C   UNL     1       9.709  10.954  19.839  0.00  0.00    +0.000 A 
ATOM     27  N   UNL     1       9.261   9.759  19.536  0.00  0.00    +0.000 NA
ATOM     28  H   UNL     1       9.612  12.849  18.894  0.00  0.00    +0.000 HD
ENDBRANCH  22  23
ENDBRANCH  21  22
ENDBRANCH   4  21
TORSDOF 8
ENDMDL
MODEL 2
REMARK VINA RESULT:      -7.1      2.973      6.011
REMARK  Name = 
REMARK  10 active torsions:
REMARK  status: ('A' for Active; 'I' for Inactive)
REMARK    1  A    between atoms: C_1  and  C_2
REMARK    2  A    between atoms: C_2  and  C_3
REMARK    3  A    between atoms: N_5  and  C_6
REMARK    4  A    between atoms: N_5  and  C_12
REMARK    5  A    between atoms: C_12  and  C_13
REMARK    6  A    between atoms: C_13  and  O_14
REMARK    7  A    between atoms: O_14  and  C_15
REMARK    8  A    between atoms: N_18  and  C_19
REMARK    9  A    between atoms: C_19  and  C_20
REMARK   10  A    between atoms: C_20  and  C_21
REMARK                            x       y       z     vdW  Elec       q    Type
REMARK                         _______ _______ _______ _____ _____    ______ ____
ROOT
ATOM      1  C   UNL     1       3.830   4.180  18.531  0.00  0.00    +0.000 C 
ATOM      2  C   UNL     1       2.669   4.676  17.631  0.00  0.00    +0.000 C 
ATOM      3  C   UNL     1       2.418   6.169  17.776  0.00  0.00    +0.000 C 
ATOM      4  N   UNL     1       2.121   6.592  19.150  0.00  0.00    +0.000 NA
ATOM      5  C   UNL     1       3.089   6.083  20.135  0.00  0.00    +0.000 C 
ATOM      6  C   UNL     1       3.426   4.601  19.976  0.00  0.00    +0.000 C 
ENDROOT
BRANCH   1   9
ATOM      7  C   UNL     1       6.245   4.889  18.896  0.00  0.00    +0.000 C 
ATOM      8  O   UNL     1       6.132   4.715  20.112  0.00  0.00    +0.000 OA
ATOM      9  N   UNL     1       5.171   4.704  17.999  0.00  0.00    +0.000 N 
BRANCH   9  10
ATOM     10  C   UNL     1       5.399   4.766  16.587  0.00  0.00    +0.000 A 
ATOM     11  C   UNL     1       5.799   3.622  15.879  0.00  0.00    +0.000 A 
ATOM     12  C   UNL     1       6.038   3.670  14.503  0.00  0.00    +0.000 A 
ATOM     13  C   UNL     1       5.852   4.863  13.812  0.00  0.00    +0.000 A 
ATOM     14  C   UNL     1       5.434   6.004  14.498  0.00  0.00    +0.000 A 
ATOM     15  C   UNL     1       5.224   5.961  15.882  0.00  0.00    +0.000 A 
ENDBRANCH   9  10
BRANCH   7  17
ATOM     16  C   UNL     1       7.858   6.810  18.500  0.00  0.00    +0.000 C 
ATOM     17  C   UNL     1       7.598   5.322  18.325  0.00  0.00    +0.000 C 
ENDBRANCH   7  17
ENDBRANCH   1   9
BRANCH   1  18
ATOM     18  C   UNL     1       3.783   2.611  18.499  0.00  0.00    +0.000 C 
BRANCH  18  19
ATOM     19  O   UNL     1       2.528   2.125  18.007  0.00  0.00    +0.000 OA
ATOM     20  C   UNL     1       1.690   1.722  19.086  0.00  0.00    +0.000 C 
ENDBRANCH  18  19
ENDBRANCH   1  18
BRANCH   4  21
ATOM     21  C   UNL     1       2.113   8.076  19.233  0.00  0.00    +0.000 C 
BRANCH  21  22
ATOM     22  C   UNL     1       1.720   8.766  17.922  0.00  0.00    +0.000 C 
BRANCH  22  23
ATOM     23  C   UNL     1       0.805   9.915  18.153  0.00  0.00    +0.000 A 
ATOM     24  C   UNL     1      -0.521  10.052  17.800  0.00  0.00    +0.000 A 
ATOM     25  N   UNL     1      -0.869  11.308  18.212  0.00  0.00    +0.000 N 
ATOM     26  C   UNL     1       0.230  11.872  18.793  0.00  0.00    +0.000 A 
ATOM     27  N   UNL     1       1.252  11.050  18.785  0.00  0.00    +0.000 NA
ATOM     28  H   UNL     1      -1.769  11.749  18.098  0.00  0.00    +0.000 HD
ENDBRANCH  22  23
ENDBRANCH  21  22
ENDBRANCH   4  21
TORSDOF 8
ENDMDL
MODEL 3
REMARK VINA RESULT:      -7.1      2.943      6.070
REMARK  Name = 
REMARK  10 active torsions:
REMARK  status: ('A' for Active; 'I' for Inactive)
REMARK    1  A    between atoms: C_1  and  C_2
REMARK    2  A    between atoms: C_2  and  C_3
REMARK    3  A    between atoms: N_5  and  C_6
REMARK    4  A    between atoms: N_5  and  C_12
REMARK    5  A    between atoms: C_12  and  C_13
REMARK    6  A    between atoms: C_13  and  O_14
REMARK    7  A    between atoms: O_14  and  C_15
REMARK    8  A    between atoms: N_18  and  C_19
REMARK    9  A    between atoms: C_19  and  C_20
REMARK   10  A    between atoms: C_20  and  C_21
REMARK                            x       y       z     vdW  Elec       q    Type
REMARK                         _______ _______ _______ _____ _____    ______ ____
ROOT
ATOM      1  C   UNL     1       3.839   4.387  18.955  0.00  0.00    +0.000 C 
ATOM      2  C   UNL     1       2.463   4.303  18.245  0.00  0.00    +0.000 C 
ATOM      3  C   UNL     1       2.095   5.595  17.532  0.00  0.00    +0.000 C 
ATOM      4  N   UNL     1       2.066   6.772  18.410  0.00  0.00    +0.000 NA
ATOM      5  C   UNL     1       3.275   6.907  19.238  0.00  0.00    +0.000 C 
ATOM      6  C   UNL     1       3.721   5.611  19.914  0.00  0.00    +0.000 C 
ENDROOT
BRANCH   1   9
ATOM      7  C   UNL     1       4.872   3.607  16.766  0.00  0.00    +0.000 C 
ATOM      8  O   UNL     1       3.947   2.810  16.591  0.00  0.00    +0.000 OA
ATOM      9  N   UNL     1       4.968   4.420  17.915  0.00  0.00    +0.000 N 
BRANCH   9  10
ATOM     10  C   UNL     1       5.973   5.436  17.991  0.00  0.00    +0.000 A 
ATOM     11  C   UNL     1       5.876   6.594  17.203  0.00  0.00    +0.000 A 
ATOM     12  C   UNL     1       6.857   7.589  17.256  0.00  0.00    +0.000 A 
ATOM     13  C   UNL     1       7.936   7.448  18.122  0.00  0.00    +0.000 A 
ATOM     14  C   UNL     1       8.035   6.313  18.927  0.00  0.00    +0.000 A 
ATOM     15  C   UNL     1       7.067   5.304  18.851  0.00  0.00    +0.000 A 
ENDBRANCH   9  10
BRANCH   7  17
ATOM     16  C   UNL     1       5.450   4.331  14.401  0.00  0.00    +0.000 C 
ATOM     17  C   UNL     1       5.964   3.729  15.700  0.00  0.00    +0.000 C 
ENDBRANCH   7  17
ENDBRANCH   1   9
BRANCH   1  18
ATOM     18  C   UNL     1       3.950   3.118  19.871  0.00  0.00    +0.000 C 
BRANCH  18  19
ATOM     19  O   UNL     1       2.664   2.565  20.175  0.00  0.00    +0.000 OA
ATOM     20  C   UNL     1       2.383   2.687  21.566  0.00  0.00    +0.000 C 
ENDBRANCH  18  19
ENDBRANCH   1  18
BRANCH   4  21
ATOM     21  C   UNL     1       1.922   8.007  17.595  0.00  0.00    +0.000 C 
BRANCH  21  22
ATOM     22  C   UNL     1       2.202   9.297  18.374  0.00  0.00    +0.000 C 
BRANCH  22  23
ATOM     23  C   UNL     1       1.005   9.764  19.122  0.00  0.00    +0.000 A 
ATOM     24  C   UNL     1       0.627   9.480  20.418  0.00  0.00    +0.000 A 
ATOM     25  N   UNL     1      -0.564  10.128  20.588  0.00  0.00    +0.000 N 
ATOM     26  C   UNL     1      -0.856  10.773  19.421  0.00  0.00    +0.000 A 
ATOM     27  N   UNL     1       0.080  10.583  18.522  0.00  0.00    +0.000 NA
ATOM     28  H   UNL     1      -1.136  10.125  21.420  0.00  0.00    +0.000 HD
ENDBRANCH  22  23
ENDBRANCH  21  22
ENDBRANCH   4  21
TORSDOF 8
ENDMDL
MODEL 4
REMARK VINA RESULT:      -7.0      2.772      6.922
REMARK  Name = 
REMARK  10 active torsions:
REMARK  status: ('A' for Active; 'I' for Inactive)
REMARK    1  A    between atoms: C_1  and  C_2
REMARK    2  A    between atoms: C_2  and  C_3
REMARK    3  A    between atoms: N_5  and  C_6
REMARK    4  A    between atoms: N_5  and  C_12
REMARK    5  A    between atoms: C_12  and  C_13
REMARK    6  A    between atoms: C_13  and  O_14
REMARK    7  A    between atoms: O_14  and  C_15
REMARK    8  A    between atoms: N_18  and  C_19
REMARK    9  A    between atoms: C_19  and  C_20
REMARK   10  A    between atoms: C_20  and  C_21
REMARK                            x       y       z     vdW  Elec       q    Type
REMARK                         _______ _______ _______ _____ _____    ______ ____
ROOT
ATOM      1  C   UNL     1       3.002   6.279  18.164  0.00  0.00    +0.000 C 
ATOM      2  C   UNL     1       2.996   6.573  19.686  0.00  0.00    +0.000 C 
ATOM      3  C   UNL     1       2.662   5.342  20.515  0.00  0.00    +0.000 C 
ATOM      4  N   UNL     1       1.369   4.732  20.179  0.00  0.00    +0.000 NA
ATOM      5  C   UNL     1       1.191   4.507  18.736  0.00  0.00    +0.000 C 
ATOM      6  C   UNL     1       1.588   5.697  17.862  0.00  0.00    +0.000 C 
ENDROOT
BRANCH   1   9
ATOM      7  C   UNL     1       4.028   4.295  16.948  0.00  0.00    +0.000 C 
ATOM      8  O   UNL     1       2.918   3.949  16.537  0.00  0.00    +0.000 OA
ATOM      9  N   UNL     1       4.210   5.406  17.799  0.00  0.00    +0.000 N 
BRANCH   9  10
ATOM     10  C   UNL     1       5.532   5.855  18.116  0.00  0.00    +0.000 A 
ATOM     11  C   UNL     1       6.152   6.847  17.340  0.00  0.00    +0.000 A 
ATOM     12  C   UNL     1       7.447   7.287  17.629  0.00  0.00    +0.000 A 
ATOM     13  C   UNL     1       8.129   6.756  18.719  0.00  0.00    +0.000 A 
ATOM     14  C   UNL     1       7.517   5.785  19.513  0.00  0.00    +0.000 A 
ATOM     15  C   UNL     1       6.231   5.324  19.204  0.00  0.00    +0.000 A 
ENDBRANCH   9  10
BRANCH   7  17
ATOM     16  C   UNL     1       5.778   3.901  15.151  0.00  0.00    +0.000 C 
ATOM     17  C   UNL     1       5.265   3.498  16.524  0.00  0.00    +0.000 C 
ENDBRANCH   7  17
ENDBRANCH   1   9
BRANCH   1  18
ATOM     18  C   UNL     1       3.070   7.670  17.439  0.00  0.00    +0.000 C 
BRANCH  18  19
ATOM     19  O   UNL     1       1.815   8.360  17.491  0.00  0.00    +0.000 OA
ATOM     20  C   UNL     1       2.002   9.706  17.917  0.00  0.00    +0.000 C 
ENDBRANCH  18  19
ENDBRANCH   1  18
BRANCH   4  21
ATOM     21  C   UNL     1       1.232   3.424  20.872  0.00  0.00    +0.000 C 
BRANCH  21  22
ATOM     22  C   UNL     1       2.533   2.920  21.504  0.00  0.00    +0.000 C 
BRANCH  22  23
ATOM     23  C   UNL     1       3.375   2.181  20.526  0.00  0.00    +0.000 A 
ATOM     24  C   UNL     1       4.725   1.906  20.577  0.00  0.00    +0.000 A 
ATOM     25  N   UNL     1       4.995   1.239  19.416  0.00  0.00    +0.000 N 
ATOM     26  C   UNL     1       3.825   1.128  18.720  0.00  0.00    +0.000 A 
ATOM     27  N   UNL     1       2.827   1.675  19.372  0.00  0.00    +0.000 NA
ATOM     28  H   UNL     1       5.895   0.898  19.114  0.00  0.00    +0.000 HD
ENDBRANCH  22  23
ENDBRANCH  21  22
ENDBRANCH   4  21
TORSDOF 8
ENDMDL
MODEL 5
REMARK VINA RESULT:      -7.0      1.535      1.925
REMARK  Name = 
REMARK  10 active torsions:
REMARK  status: ('A' for Active; 'I' for Inactive)
REMARK    1  A    between atoms: C_1  and  C_2
REMARK    2  A    between atoms: C_2  and  C_3
REMARK    3  A    between atoms: N_5  and  C_6
REMARK    4  A    between atoms: N_5  and  C_12
REMARK    5  A    between atoms: C_12  and  C_13
REMARK    6  A    between atoms: C_13  and  O_14
REMARK    7  A    between atoms: O_14  and  C_15
REMARK    8  A    between atoms: N_18  and  C_19
REMARK    9  A    between atoms: C_19  and  C_20
REMARK   10  A    between atoms: C_20  and  C_21
REMARK                            x       y       z     vdW  Elec       q    Type
REMARK                         _______ _______ _______ _____ _____    ______ ____
ROOT
ATOM      1  C   UNL     1       5.853   4.941  16.746  0.00  0.00    +0.000 C 
ATOM      2  C   UNL     1       6.987   4.475  17.695  0.00  0.00    +0.000 C 
ATOM      3  C   UNL     1       7.524   5.606  18.559  0.00  0.00    +0.000 C 
ATOM      4  N   UNL     1       8.034   6.750  17.792  0.00  0.00    +0.000 NA
ATOM      5  C   UNL     1       7.096   7.222  16.762  0.00  0.00    +0.000 C 
ATOM      6  C   UNL     1       6.475   6.107  15.920  0.00  0.00    +0.000 C 
ENDROOT
BRANCH   1   9
ATOM      7  C   UNL     1       4.011   6.541  17.463  0.00  0.00    +0.000 C 
ATOM      8  O   UNL     1       4.526   7.455  16.817  0.00  0.00    +0.000 OA
ATOM      9  N   UNL     1       4.585   5.254  17.552  0.00  0.00    +0.000 N 
BRANCH   9  10
ATOM     10  C   UNL     1       3.864   4.190  18.183  0.00  0.00    +0.000 A 
ATOM     11  C   UNL     1       2.854   3.506  17.489  0.00  0.00    +0.000 A 
ATOM     12  C   UNL     1       2.132   2.473  18.096  0.00  0.00    +0.000 A 
ATOM     13  C   UNL     1       2.434   2.095  19.400  0.00  0.00    +0.000 A 
ATOM     14  C   UNL     1       3.450   2.752  20.095  0.00  0.00    +0.000 A 
ATOM     15  C   UNL     1       4.152   3.805  19.496  0.00  0.00    +0.000 A 
ENDBRANCH   9  10
BRANCH   7  17
ATOM     16  C   UNL     1       2.149   8.195  17.960  0.00  0.00    +0.000 C 
ATOM     17  C   UNL     1       2.694   6.796  18.202  0.00  0.00    +0.000 C 
ENDBRANCH   7  17
ENDBRANCH   1   9
BRANCH   1  18
ATOM     18  C   UNL     1       5.605   3.767  15.734  0.00  0.00    +0.000 C 
BRANCH  18  19
ATOM     19  O   UNL     1       5.258   4.251  14.430  0.00  0.00    +0.000 OA
ATOM     20  C   UNL     1       6.103   3.672  13.441  0.00  0.00    +0.000 C 
ENDBRANCH  18  19
ENDBRANCH   1  18
BRANCH   4  21
ATOM     21  C   UNL     1       8.325   7.884  18.708  0.00  0.00    +0.000 C 
BRANCH  21  22
ATOM     22  C   UNL     1       8.161   9.262  18.057  0.00  0.00    +0.000 C 
BRANCH  22  23
ATOM     23  C   UNL     1       9.067  10.273  18.664  0.00  0.00    +0.000 A 
ATOM     24  C   UNL     1       9.478  10.393  19.975  0.00  0.00    +0.000 A 
ATOM     25  N   UNL     1      10.269  11.508  19.997  0.00  0.00    +0.000 N 
ATOM     26  C   UNL     1      10.315  12.008  18.727  0.00  0.00    +0.000 A 
ATOM     27  N   UNL     1       9.610  11.276  17.898  0.00  0.00    +0.000 NA
ATOM     28  H   UNL     1      10.728  11.902  20.803  0.00  0.00    +0.000 HD
ENDBRANCH  22  23
ENDBRANCH  21  22
ENDBRANCH   4  21
TORSDOF 8
ENDMDL
MODEL 6
REMARK VINA RESULT:      -6.9      3.380      6.330
REMARK  Name = 
REMARK  10 active torsions:
REMARK  status: ('A' for Active; 'I' for Inactive)
REMARK    1  A    between atoms: C_1  and  C_2
REMARK    2  A    between atoms: C_2  and  C_3
REMARK    3  A    between atoms: N_5  and  C_6
REMARK    4  A    between atoms: N_5  and  C_12
REMARK    5  A    between atoms: C_12  and  C_13
REMARK    6  A    between atoms: C_13  and  O_14
REMARK    7  A    between atoms: O_14  and  C_15
REMARK    8  A    between atoms: N_18  and  C_19
REMARK    9  A    between atoms: C_19  and  C_20
REMARK   10  A    between atoms: C_20  and  C_21
REMARK                            x       y       z     vdW  Elec       q    Type
REMARK                         _______ _______ _______ _____ _____    ______ ____
ROOT
ATOM      1  C   UNL     1       5.225   5.265  17.958  0.00  0.00    +0.000 C 
ATOM      2  C   UNL     1       5.742   6.435  17.081  0.00  0.00    +0.000 C 
ATOM      3  C   UNL     1       5.500   6.201  15.598  0.00  0.00    +0.000 C 
ATOM      4  N   UNL     1       6.104   4.966  15.084  0.00  0.00    +0.000 NA
ATOM      5  C   UNL     1       5.789   3.783  15.901  0.00  0.00    +0.000 C 
ATOM      6  C   UNL     1       5.948   4.000  17.406  0.00  0.00    +0.000 C 
ENDROOT
BRANCH   1   9
ATOM      7  C   UNL     1       3.013   4.017  17.813  0.00  0.00    +0.000 C 
ATOM      8  O   UNL     1       3.605   2.955  17.605  0.00  0.00    +0.000 OA
ATOM      9  N   UNL     1       3.690   5.247  17.963  0.00  0.00    +0.000 N 
BRANCH   9  10
ATOM     10  C   UNL     1       2.968   6.418  18.358  0.00  0.00    +0.000 A 
ATOM     11  C   UNL     1       2.633   7.400  17.412  0.00  0.00    +0.000 A 
ATOM     12  C   UNL     1       1.940   8.556  17.785  0.00  0.00    +0.000 A 
ATOM     13  C   UNL     1       1.549   8.729  19.108  0.00  0.00    +0.000 A 
ATOM     14  C   UNL     1       1.856   7.752  20.055  0.00  0.00    +0.000 A 
ATOM     15  C   UNL     1       2.576   6.608  19.686  0.00  0.00    +0.000 A 
ENDBRANCH   9  10
BRANCH   7  17
ATOM     16  C   UNL     1       0.958   2.871  18.767  0.00  0.00    +0.000 C 
ATOM     17  C   UNL     1       1.486   4.015  17.916  0.00  0.00    +0.000 C 
ENDBRANCH   7  17
ENDBRANCH   1   9
BRANCH   1  18
ATOM     18  C   UNL     1       5.792   5.502  19.402  0.00  0.00    +0.000 C 
BRANCH  18  19
ATOM     19  O   UNL     1       7.077   4.892  19.578  0.00  0.00    +0.000 OA
ATOM     20  C   UNL     1       8.105   5.878  19.558  0.00  0.00    +0.000 C 
ENDBRANCH  18  19
ENDBRANCH   1  18
BRANCH   4  21
ATOM     21  C   UNL     1       5.631   4.710  13.698  0.00  0.00    +0.000 C 
BRANCH  21  22
ATOM     22  C   UNL     1       6.760   4.403  12.707  0.00  0.00    +0.000 C 
BRANCH  22  23
ATOM     23  C   UNL     1       6.556   3.099  12.022  0.00  0.00    +0.000 A 
ATOM     24  C   UNL     1       7.495   2.251  11.475  0.00  0.00    +0.000 A 
ATOM     25  N   UNL     1       6.774   1.220  10.941  0.00  0.00    +0.000 N 
ATOM     26  C   UNL     1       5.453   1.469  11.185  0.00  0.00    +0.000 A 
ATOM     27  N   UNL     1       5.292   2.590  11.847  0.00  0.00    +0.000 NA
ATOM     28  H   UNL     1       7.142   0.423  10.445  0.00  0.00    +0.000 HD
ENDBRANCH  22  23
ENDBRANCH  21  22
ENDBRANCH   4  21
TORSDOF 8
ENDMDL
MODEL 7
REMARK VINA RESULT:      -6.9      2.999      6.216
REMARK  Name = 
REMARK  10 active torsions:
REMARK  status: ('A' for Active; 'I' for Inactive)
REMARK    1  A    between atoms: C_1  and  C_2
REMARK    2  A    between atoms: C_2  and  C_3
REMARK    3  A    between atoms: N_5  and  C_6
REMARK    4  A    between atoms: N_5  and  C_12
REMARK    5  A    between atoms: C_12  and  C_13
REMARK    6  A    between atoms: C_13  and  O_14
REMARK    7  A    between atoms: O_14  and  C_15
REMARK    8  A    between atoms: N_18  and  C_19
REMARK    9  A    between atoms: C_19  and  C_20
REMARK   10  A    between atoms: C_20  and  C_21
REMARK                            x       y       z     vdW  Elec       q    Type
REMARK                         _______ _______ _______ _____ _____    ______ ____
ROOT
ATOM      1  C   UNL     1       3.826   4.362  18.643  0.00  0.00    +0.000 C 
ATOM      2  C   UNL     1       2.679   4.772  17.683  0.00  0.00    +0.000 C 
ATOM      3  C   UNL     1       2.436   6.274  17.676  0.00  0.00    +0.000 C 
ATOM      4  N   UNL     1       2.125   6.833  18.997  0.00  0.00    +0.000 NA
ATOM      5  C   UNL     1       3.078   6.420  20.040  0.00  0.00    +0.000 C 
ATOM      6  C   UNL     1       3.407   4.927  20.034  0.00  0.00    +0.000 C 
ENDROOT
BRANCH   1   9
ATOM      7  C   UNL     1       6.261   5.024  18.960  0.00  0.00    +0.000 C 
ATOM      8  O   UNL     1       6.152   4.913  20.183  0.00  0.00    +0.000 OA
ATOM      9  N   UNL     1       5.177   4.824  18.079  0.00  0.00    +0.000 N 
BRANCH   9  10
ATOM     10  C   UNL     1       5.397   4.811  16.664  0.00  0.00    +0.000 A 
ATOM     11  C   UNL     1       5.729   3.615  16.007  0.00  0.00    +0.000 A 
ATOM     12  C   UNL     1       5.960   3.589  14.628  0.00  0.00    +0.000 A 
ATOM     13  C   UNL     1       5.833   4.758  13.885  0.00  0.00    +0.000 A 
ATOM     14  C   UNL     1       5.483   5.949  14.521  0.00  0.00    +0.000 A 
ATOM     15  C   UNL     1       5.281   5.980  15.907  0.00  0.00    +0.000 A 
ENDBRANCH   9  10
BRANCH   7  17
ATOM     16  C   UNL     1       7.891   6.888  18.395  0.00  0.00    +0.000 C 
ATOM     17  C   UNL     1       7.621   5.392  18.360  0.00  0.00    +0.000 C 
ENDBRANCH   7  17
ENDBRANCH   1   9
BRANCH   1  18
ATOM     18  C   UNL     1       3.769   2.798  18.767  0.00  0.00    +0.000 C 
BRANCH  18  19
ATOM     19  O   UNL     1       3.665   2.375  20.132  0.00  0.00    +0.000 OA
ATOM     20  C   UNL     1       4.814   1.623  20.510  0.00  0.00    +0.000 C 
ENDBRANCH  18  19
ENDBRANCH   1  18
BRANCH   4  21
ATOM     21  C   UNL     1       2.126   8.318  18.931  0.00  0.00    +0.000 C 
BRANCH  21  22
ATOM     22  C   UNL     1       1.294   8.886  17.776  0.00  0.00    +0.000 C 
BRANCH  22  23
ATOM     23  C   UNL     1       0.349   9.937  18.238  0.00  0.00    +0.000 A 
ATOM     24  C   UNL     1       0.541  10.919  19.188  0.00  0.00    +0.000 A 
ATOM     25  N   UNL     1      -0.650  11.586  19.252  0.00  0.00    +0.000 N 
ATOM     26  C   UNL     1      -1.499  11.005  18.355  0.00  0.00    +0.000 A 
ATOM     27  N   UNL     1      -0.920  10.015  17.718  0.00  0.00    +0.000 NA
ATOM     28  H   UNL     1      -0.872  12.360  19.859  0.00  0.00    +0.000 HD
ENDBRANCH  22  23
ENDBRANCH  21  22
ENDBRANCH   4  21
TORSDOF 8
ENDMDL
MODEL 8
REMARK VINA RESULT:      -6.9      2.950      6.043
REMARK  Name = 
REMARK  10 active torsions:
REMARK  status: ('A' for Active; 'I' for Inactive)
REMARK    1  A    between atoms: C_1  and  C_2
REMARK    2  A    between atoms: C_2  and  C_3
REMARK    3  A    between atoms: N_5  and  C_6
REMARK    4  A    between atoms: N_5  and  C_12
REMARK    5  A    between atoms: C_12  and  C_13
REMARK    6  A    between atoms: C_13  and  O_14
REMARK    7  A    between atoms: O_14  and  C_15
REMARK    8  A    between atoms: N_18  and  C_19
REMARK    9  A    between atoms: C_19  and  C_20
REMARK   10  A    between atoms: C_20  and  C_21
REMARK                            x       y       z     vdW  Elec       q    Type
REMARK                         _______ _______ _______ _____ _____    ______ ____
ROOT
ATOM      1  C   UNL     1       3.513   4.541  18.904  0.00  0.00    +0.000 C 
ATOM      2  C   UNL     1       2.189   4.775  18.130  0.00  0.00    +0.000 C 
ATOM      3  C   UNL     1       2.093   6.180  17.554  0.00  0.00    +0.000 C 
ATOM      4  N   UNL     1       2.210   7.244  18.559  0.00  0.00    +0.000 NA
ATOM      5  C   UNL     1       3.370   7.077  19.449  0.00  0.00    +0.000 C 
ATOM      6  C   UNL     1       3.545   5.658  19.990  0.00  0.00    +0.000 C 
ENDROOT
BRANCH   1   9
ATOM      7  C   UNL     1       4.588   3.690  16.762  0.00  0.00    +0.000 C 
ATOM      8  O   UNL     1       3.609   2.978  16.530  0.00  0.00    +0.000 OA
ATOM      9  N   UNL     1       4.693   4.483  17.925  0.00  0.00    +0.000 N 
BRANCH   9  10
ATOM     10  C   UNL     1       5.778   5.407  18.066  0.00  0.00    +0.000 A 
ATOM     11  C   UNL     1       6.806   5.161  18.989  0.00  0.00    +0.000 A 
ATOM     12  C   UNL     1       7.864   6.061  19.148  0.00  0.00    +0.000 A 
ATOM     13  C   UNL     1       7.919   7.208  18.363  0.00  0.00    +0.000 A 
ATOM     14  C   UNL     1       6.915   7.455  17.426  0.00  0.00    +0.000 A 
ATOM     15  C   UNL     1       5.840   6.568  17.289  0.00  0.00    +0.000 A 
ENDBRANCH   9  10
BRANCH   7  17
ATOM     16  C   UNL     1       5.361   4.406  14.451  0.00  0.00    +0.000 C 
ATOM     17  C   UNL     1       5.743   3.725  15.756  0.00  0.00    +0.000 C 
ENDBRANCH   7  17
ENDBRANCH   1   9
BRANCH   1  18
ATOM     18  C   UNL     1       3.348   3.183  19.672  0.00  0.00    +0.000 C 
BRANCH  18  19
ATOM     19  O   UNL     1       1.986   2.946  20.051  0.00  0.00    +0.000 OA
ATOM     20  C   UNL     1       1.894   2.687  21.449  0.00  0.00    +0.000 C 
ENDBRANCH  18  19
ENDBRANCH   1  18
BRANCH   4  21
ATOM     21  C   UNL     1       2.330   8.565  17.886  0.00  0.00    +0.000 C 
BRANCH  21  22
ATOM     22  C   UNL     1       0.983   9.239  17.603  0.00  0.00    +0.000 C 
BRANCH  22  23
ATOM     23  C   UNL     1       0.564  10.128  18.719  0.00  0.00    +0.000 A 
ATOM     24  C   UNL     1       1.324  11.011  19.457  0.00  0.00    +0.000 A 
ATOM     25  N   UNL     1       0.460  11.540  20.374  0.00  0.00    +0.000 N 
ATOM     26  C   UNL     1      -0.766  10.980  20.160  0.00  0.00    +0.000 A 
ATOM     27  N   UNL     1      -0.738  10.133  19.159  0.00  0.00    +0.000 NA
ATOM     28  H   UNL     1       0.684  12.214  21.091  0.00  0.00    +0.000 HD
ENDBRANCH  22  23
ENDBRANCH  21  22
ENDBRANCH   4  21
TORSDOF 8
ENDMDL
MODEL 9
REMARK VINA RESULT:      -6.7      2.744      6.973
REMARK  Name = 
REMARK  10 active torsions:
REMARK  status: ('A' for Active; 'I' for Inactive)
REMARK    1  A    between atoms: C_1  and  C_2
REMARK    2  A    between atoms: C_2  and  C_3
REMARK    3  A    between atoms: N_5  and  C_6
REMARK    4  A    between atoms: N_5  and  C_12
REMARK    5  A    between atoms: C_12  and  C_13
REMARK    6  A    between atoms: C_13  and  O_14
REMARK    7  A    between atoms: O_14  and  C_15
REMARK    8  A    between atoms: N_18  and  C_19
REMARK    9  A    between atoms: C_19  and  C_20
REMARK   10  A    between atoms: C_20  and  C_21
REMARK                            x       y       z     vdW  Elec       q    Type
REMARK                         _______ _______ _______ _____ _____    ______ ____
ROOT
ATOM      1  C   UNL     1       3.072   6.388  18.187  0.00  0.00    +0.000 C 
ATOM      2  C   UNL     1       3.088   6.675  19.711  0.00  0.00    +0.000 C 
ATOM      3  C   UNL     1       2.753   5.444  20.538  0.00  0.00    +0.000 C 
ATOM      4  N   UNL     1       1.451   4.847  20.216  0.00  0.00    +0.000 NA
ATOM      5  C   UNL     1       1.253   4.629  18.774  0.00  0.00    +0.000 C 
ATOM      6  C   UNL     1       1.649   5.820  17.900  0.00  0.00    +0.000 C 
ENDROOT
BRANCH   1   9
ATOM      7  C   UNL     1       4.065   4.399  16.952  0.00  0.00    +0.000 C 
ATOM      8  O   UNL     1       2.947   4.063  16.555  0.00  0.00    +0.000 OA
ATOM      9  N   UNL     1       4.268   5.506  17.804  0.00  0.00    +0.000 N 
BRANCH   9  10
ATOM     10  C   UNL     1       5.598   5.944  18.105  0.00  0.00    +0.000 A 
ATOM     11  C   UNL     1       6.309   5.376  19.174  0.00  0.00    +0.000 A 
ATOM     12  C   UNL     1       7.602   5.802  19.489  0.00  0.00    +0.000 A 
ATOM     13  C   UNL     1       8.211   6.786  18.718  0.00  0.00    +0.000 A 
ATOM     14  C   UNL     1       7.526   7.344  17.639  0.00  0.00    +0.000 A 
ATOM     15  C   UNL     1       6.219   6.937  17.342  0.00  0.00    +0.000 A 
ENDBRANCH   9  10
BRANCH   7  17
ATOM     16  C   UNL     1       5.789   3.996  15.131  0.00  0.00    +0.000 C 
ATOM     17  C   UNL     1       5.290   3.593  16.510  0.00  0.00    +0.000 C 
ENDBRANCH   7  17
ENDBRANCH   1   9
BRANCH   1  18
ATOM     18  C   UNL     1       3.143   7.781  17.468  0.00  0.00    +0.000 C 
BRANCH  18  19
ATOM     19  O   UNL     1       1.855   8.403  17.379  0.00  0.00    +0.000 OA
ATOM     20  C   UNL     1       1.894   9.715  17.931  0.00  0.00    +0.000 C 
ENDBRANCH  18  19
ENDBRANCH   1  18
BRANCH   4  21
ATOM     21  C   UNL     1       1.310   3.536  20.905  0.00  0.00    +0.000 C 
BRANCH  21  22
ATOM     22  C   UNL     1       1.410   2.330  19.965  0.00  0.00    +0.000 C 
BRANCH  22  23
ATOM     23  C   UNL     1       2.823   1.945  19.706  0.00  0.00    +0.000 A 
ATOM     24  C   UNL     1       3.956   2.276  20.418  0.00  0.00    +0.000 A 
ATOM     25  N   UNL     1       4.987   1.697  19.733  0.00  0.00    +0.000 N 
ATOM     26  C   UNL     1       4.454   1.043  18.659  0.00  0.00    +0.000 A 
ATOM     27  N   UNL     1       3.148   1.163  18.625  0.00  0.00    +0.000 NA
ATOM     28  H   UNL     1       5.967   1.749  19.965  0.00  0.00    +0.000 HD
ENDBRANCH  22  23
ENDBRANCH  21  22
ENDBRANCH   4  21
TORSDOF 8
ENDMDL
