MODEL 1
REMARK VINA RESULT:      -6.7      0.000      0.000
REMARK  Name = 
REMARK  8 active torsions:
REMARK  status: ('A' for Active; 'I' for Inactive)
REMARK    1  A    between atoms: C_1  and  C_2
REMARK    2  A    between atoms: C_2  and  C_3
REMARK    3  A    between atoms: C_6  and  C_7
REMARK    4  A    between atoms: C_9  and  C_10
REMARK    5  A    between atoms: C_10  and  N_11
REMARK    6  A    between atoms: C_12  and  O_13
REMARK    7  A    between atoms: O_13  and  C_14
REMARK    8  A    between atoms: C_14  and  C_15
REMARK                            x       y       z     vdW  Elec       q    Type
REMARK                         _______ _______ _______ _____ _____    ______ ____
ROOT
ATOM      1  C   UNL     1       2.191   8.729  18.372  0.00  0.00    +0.000 A 
ATOM      2  C   UNL     1       2.949   7.838  17.635  0.00  0.00    +0.000 A 
ATOM      3  C   UNL     1       2.990   6.688  18.393  0.00  0.00    +0.000 A 
ATOM      4  C   UNL     1       3.626   5.454  18.174  0.00  0.00    +0.000 A 
ATOM      5  C   UNL     1       3.458   4.451  19.183  0.00  0.00    +0.000 A 
ATOM      6  C   UNL     1       2.660   4.748  20.338  0.00  0.00    +0.000 A 
ATOM      7  C   UNL     1       2.051   5.995  20.500  0.00  0.00    +0.000 A 
ATOM      8  C   UNL     1       2.243   6.945  19.513  0.00  0.00    +0.000 A 
ATOM      9  O   UNL     1       1.767   8.167  19.488  0.00  0.00    +0.000 OA
ENDROOT
BRANCH   4  10
ATOM     10  C   UNL     1       4.382   5.213  16.879  0.00  0.00    +0.000 C 
ATOM     11  C   UNL     1       5.230   6.329  16.300  0.00  0.00    +0.000 C 
ATOM     12  C   UNL     1       5.917   5.191  17.048  0.00  0.00    +0.000 C 
BRANCH  12  13
ATOM     13  C   UNL     1       6.749   4.439  15.994  0.00  0.00    +0.000 C 
BRANCH  13  14
ATOM     14  N   UNL     1       7.519   5.394  15.211  0.00  0.00    +0.000 NA
ATOM     15  H   UNL     1       6.868   6.140  14.873  0.00  0.00    +0.000 HD
ATOM     16  H   UNL     1       7.895   4.900  14.370  0.00  0.00    +0.000 HD
ENDBRANCH  13  14
ENDBRANCH  12  13
ENDBRANCH   4  10
BRANCH   1  18
ATOM     17  C   UNL     1       1.074  10.831  19.043  0.00  0.00    +0.000 C 
ATOM     18  C   UNL     1       1.900  10.137  17.973  0.00  0.00    +0.000 C 
ENDBRANCH   1  18
BRANCH   5  19
ATOM     19  O   UNL     1       4.050   3.226  19.040  0.00  0.00    +0.000 OA
BRANCH  19  20
ATOM     20  C   UNL     1       3.562   2.220  18.220  0.00  0.00    +0.000 C 
BRANCH  20  21
ATOM     21  C   UNL     1       2.041   2.162  18.271  0.00  0.00    +0.000 C 
ATOM     22  F   UNL     1       1.640   1.648  19.491  0.00  0.00    +0.000 F 
ENDBRANCH  20  21
ENDBRANCH  19  20
ENDBRANCH   5  19
TORSDOF 7
ENDMDL
MODEL 2
REMARK VINA RESULT:      -6.6      2.367      5.105
REMARK  Name = 
REMARK  8 active torsions:
REMARK  status: ('A' for Active; 'I' for Inactive)
REMARK    1  A    between atoms: C_1  and  C_2
REMARK    2  A    between atoms: C_2  and  C_3
REMARK    3  A    between atoms: C_6  and  C_7
REMARK    4  A    between atoms: C_9  and  C_10
REMARK    5  A    between atoms: C_10  and  N_11
REMARK    6  A    between atoms: C_12  and  O_13
REMARK    7  A    between atoms: O_13  and  C_14
REMARK    8  A    between atoms: C_14  and  C_15
REMARK                            x       y       z     vdW  Elec       q    Type
REMARK                         _______ _______ _______ _____ _____    ______ ____
ROOT
ATOM      1  C   UNL     1       5.805   4.530  15.645  0.00  0.00    +0.000 A 
ATOM      2  C   UNL     1       5.205   5.510  16.414  0.00  0.00    +0.000 A 
ATOM      3  C   UNL     1       4.303   4.839  17.211  0.00  0.00    +0.000 A 
ATOM      4  C   UNL     1       3.393   5.303  18.177  0.00  0.00    +0.000 A 
ATOM      5  C   UNL     1       2.591   4.316  18.837  0.00  0.00    +0.000 A 
ATOM      6  C   UNL     1       2.759   2.934  18.492  0.00  0.00    +0.000 A 
ATOM      7  C   UNL     1       3.682   2.532  17.522  0.00  0.00    +0.000 A 
ATOM      8  C   UNL     1       4.433   3.512  16.896  0.00  0.00    +0.000 A 
ATOM      9  O   UNL     1       5.336   3.338  15.961  0.00  0.00    +0.000 OA
ENDROOT
BRANCH   4  10
ATOM     10  C   UNL     1       3.350   6.780  18.526  0.00  0.00    +0.000 C 
ATOM     11  C   UNL     1       3.620   7.804  17.440  0.00  0.00    +0.000 C 
ATOM     12  C   UNL     1       2.180   7.542  17.868  0.00  0.00    +0.000 C 
BRANCH  12  13
ATOM     13  C   UNL     1       1.697   8.842  18.536  0.00  0.00    +0.000 C 
BRANCH  13  14
ATOM     14  N   UNL     1       1.758   9.934  17.575  0.00  0.00    +0.000 NA
ATOM     15  H   UNL     1       2.005  10.810  18.091  0.00  0.00    +0.000 HD
ATOM     16  H   UNL     1       0.803  10.067  17.170  0.00  0.00    +0.000 HD
ENDBRANCH  13  14
ENDBRANCH  12  13
ENDBRANCH   4  10
BRANCH   1  18
ATOM     17  C   UNL     1       6.483   4.025  13.320  0.00  0.00    +0.000 C 
ATOM     18  C   UNL     1       6.832   4.780  14.592  0.00  0.00    +0.000 C 
ENDBRANCH   1  18
BRANCH   5  19
ATOM     19  O   UNL     1       1.681   4.693  19.785  0.00  0.00    +0.000 OA
BRANCH  19  20
ATOM     20  C   UNL     1       1.886   4.567  21.151  0.00  0.00    +0.000 C 
BRANCH  20  21
ATOM     21  C   UNL     1       1.599   3.146  21.618  0.00  0.00    +0.000 C 
ATOM     22  F   UNL     1       2.792   2.501  21.895  0.00  0.00    +0.000 F 
ENDBRANCH  20  21
ENDBRANCH  19  20
ENDBRANCH   5  19
TORSDOF 7
ENDMDL
MODEL 3
REMARK VINA RESULT:      -6.5      3.041      5.576
REMARK  Name = 
REMARK  8 active torsions:
REMARK  status: ('A' for Active; 'I' for Inactive)
REMARK    1  A    between atoms: C_1  and  C_2
REMARK    2  A    between atoms: C_2  and  C_3
REMARK    3  A    between atoms: C_6  and  C_7
REMARK    4  A    between atoms: C_9  and  C_10
REMARK    5  A    between atoms: C_10  and  N_11
REMARK    6  A    between atoms: C_12  and  O_13
REMARK    7  A    between atoms: O_13  and  C_14
REMARK    8  A    between atoms: C_14  and  C_15
REMARK                            x       y       z     vdW  Elec       q    Type
REMARK                         _______ _______ _______ _____ _____    ______ ____
ROOT
ATOM      1  C   UNL     1       4.866   5.794  16.471  0.00  0.00    +0.000 A 
ATOM      2  C   UNL     1       4.332   5.175  17.586  0.00  0.00    +0.000 A 
ATOM      3  C   UNL     1       3.549   6.134  18.189  0.00  0.00    +0.000 A 
ATOM      4  C   UNL     1       2.777   6.098  19.364  0.00  0.00    +0.000 A 
ATOM      5  C   UNL     1       2.068   7.294  19.709  0.00  0.00    +0.000 A 
ATOM      6  C   UNL     1       2.171   8.440  18.852  0.00  0.00    +0.000 A 
ATOM      7  C   UNL     1       2.955   8.415  17.695  0.00  0.00    +0.000 A 
ATOM      8  C   UNL     1       3.636   7.248  17.397  0.00  0.00    +0.000 A 
ATOM      9  O   UNL     1       4.424   7.033  16.370  0.00  0.00    +0.000 OA
ENDROOT
BRANCH   4  10
ATOM     10  C   UNL     1       2.669   4.808  20.157  0.00  0.00    +0.000 C 
ATOM     11  C   UNL     1       1.333   4.424  20.764  0.00  0.00    +0.000 C 
ATOM     12  C   UNL     1       1.789   3.733  19.483  0.00  0.00    +0.000 C 
BRANCH  12  13
ATOM     13  C   UNL     1       2.029   2.261  19.863  0.00  0.00    +0.000 C 
BRANCH  13  14
ATOM     14  N   UNL     1       2.126   1.457  18.653  0.00  0.00    +0.000 NA
ATOM     15  H   UNL     1       3.140   1.286  18.455  0.00  0.00    +0.000 HD
ATOM     16  H   UNL     1       1.741   2.016  17.857  0.00  0.00    +0.000 HD
ENDBRANCH  13  14
ENDBRANCH  12  13
ENDBRANCH   4  10
BRANCH   1  18
ATOM     17  C   UNL     1       6.986   4.535  16.266  0.00  0.00    +0.000 C 
ATOM     18  C   UNL     1       5.821   5.159  15.516  0.00  0.00    +0.000 C 
ENDBRANCH   1  18
BRANCH   5  19
ATOM     19  O   UNL     1       1.299   7.335  20.839  0.00  0.00    +0.000 OA
BRANCH  19  20
ATOM     20  C   UNL     1       1.144   8.463  21.631  0.00  0.00    +0.000 C 
BRANCH  20  21
ATOM     21  C   UNL     1      -0.324   8.852  21.746  0.00  0.00    +0.000 C 
ATOM     22  F   UNL     1      -0.634   9.099  23.072  0.00  0.00    +0.000 F 
ENDBRANCH  20  21
ENDBRANCH  19  20
ENDBRANCH   5  19
TORSDOF 7
ENDMDL
MODEL 4
REMARK VINA RESULT:      -6.4      3.096      5.861
REMARK  Name = 
REMARK  8 active torsions:
REMARK  status: ('A' for Active; 'I' for Inactive)
REMARK    1  A    between atoms: C_1  and  C_2
REMARK    2  A    between atoms: C_2  and  C_3
REMARK    3  A    between atoms: C_6  and  C_7
REMARK    4  A    between atoms: C_9  and  C_10
REMARK    5  A    between atoms: C_10  and  N_11
REMARK    6  A    between atoms: C_12  and  O_13
REMARK    7  A    between atoms: O_13  and  C_14
REMARK    8  A    between atoms: C_14  and  C_15
REMARK                            x       y       z     vdW  Elec       q    Type
REMARK                         _______ _______ _______ _____ _____    ______ ____
ROOT
ATOM      1  C   UNL     1       6.276   4.366  14.139  0.00  0.00    +0.000 A 
ATOM      2  C   UNL     1       5.211   3.891  14.880  0.00  0.00    +0.000 A 
ATOM      3  C   UNL     1       5.206   4.650  16.030  0.00  0.00    +0.000 A 
ATOM      4  C   UNL     1       4.374   4.615  17.163  0.00  0.00    +0.000 A 
ATOM      5  C   UNL     1       4.648   5.566  18.198  0.00  0.00    +0.000 A 
ATOM      6  C   UNL     1       5.730   6.493  18.026  0.00  0.00    +0.000 A 
ATOM      7  C   UNL     1       6.524   6.480  16.876  0.00  0.00    +0.000 A 
ATOM      8  C   UNL     1       6.239   5.541  15.901  0.00  0.00    +0.000 A 
ATOM      9  O   UNL     1       6.871   5.365  14.765  0.00  0.00    +0.000 OA
ENDROOT
BRANCH   4  10
ATOM     10  C   UNL     1       3.204   3.648  17.210  0.00  0.00    +0.000 C 
ATOM     11  C   UNL     1       3.479   2.162  17.350  0.00  0.00    +0.000 C 
ATOM     12  C   UNL     1       3.028   2.949  18.576  0.00  0.00    +0.000 C 
BRANCH  12  13
ATOM     13  C   UNL     1       1.634   2.405  18.935  0.00  0.00    +0.000 C 
BRANCH  13  14
ATOM     14  N   UNL     1       1.465   2.416  20.381  0.00  0.00    +0.000 NA
ATOM     15  H   UNL     1       2.041   1.639  20.782  0.00  0.00    +0.000 HD
ATOM     16  H   UNL     1       0.464   2.207  20.595  0.00  0.00    +0.000 HD
ENDBRANCH  13  14
ENDBRANCH  12  13
ENDBRANCH   4  10
BRANCH   1  18
ATOM     17  C   UNL     1       5.549   3.129  12.124  0.00  0.00    +0.000 C 
ATOM     18  C   UNL     1       6.709   3.822  12.819  0.00  0.00    +0.000 C 
ENDBRANCH   1  18
BRANCH   5  19
ATOM     19  O   UNL     1       3.882   5.589  19.331  0.00  0.00    +0.000 OA
BRANCH  19  20
ATOM     20  C   UNL     1       2.843   6.482  19.546  0.00  0.00    +0.000 C 
BRANCH  20  21
ATOM     21  C   UNL     1       1.867   5.944  20.584  0.00  0.00    +0.000 C 
ATOM     22  F   UNL     1       1.073   6.977  21.050  0.00  0.00    +0.000 F 
ENDBRANCH  20  21
ENDBRANCH  19  20
ENDBRANCH   5  19
TORSDOF 7
ENDMDL
MODEL 5
REMARK VINA RESULT:      -6.4      3.277      5.983
REMARK  Name = 
REMARK  8 active torsions:
REMARK  status: ('A' for Active; 'I' for Inactive)
REMARK    1  A    between atoms: C_1  and  C_2
REMARK    2  A    between atoms: C_2  and  C_3
REMARK    3  A    between atoms: C_6  and  C_7
REMARK    4  A    between atoms: C_9  and  C_10
REMARK    5  A    between atoms: C_10  and  N_11
REMARK    6  A    between atoms: C_12  and  O_13
REMARK    7  A    between atoms: O_13  and  C_14
REMARK    8  A    between atoms: C_14  and  C_15
REMARK                            x       y       z     vdW  Elec       q    Type
REMARK                         _______ _______ _______ _____ _____    ______ ____
ROOT
ATOM      1  C   UNL     1       6.273   4.354  14.207  0.00  0.00    +0.000 A 
ATOM      2  C   UNL     1       5.146   3.945  14.894  0.00  0.00    +0.000 A 
ATOM      3  C   UNL     1       5.134   4.699  16.047  0.00  0.00    +0.000 A 
ATOM      4  C   UNL     1       4.247   4.713  17.138  0.00  0.00    +0.000 A 
ATOM      5  C   UNL     1       4.531   5.643  18.190  0.00  0.00    +0.000 A 
ATOM      6  C   UNL     1       5.675   6.500  18.076  0.00  0.00    +0.000 A 
ATOM      7  C   UNL     1       6.522   6.441  16.965  0.00  0.00    +0.000 A 
ATOM      8  C   UNL     1       6.225   5.523  15.972  0.00  0.00    +0.000 A 
ATOM      9  O   UNL     1       6.899   5.311  14.866  0.00  0.00    +0.000 OA
ENDROOT
BRANCH   4  10
ATOM     10  C   UNL     1       3.018   3.821  17.124  0.00  0.00    +0.000 C 
ATOM     11  C   UNL     1       3.177   2.340  17.411  0.00  0.00    +0.000 C 
ATOM     12  C   UNL     1       2.645   3.253  18.511  0.00  0.00    +0.000 C 
BRANCH  12  13
ATOM     13  C   UNL     1       1.186   2.821  18.746  0.00  0.00    +0.000 C 
BRANCH  13  14
ATOM     14  N   UNL     1       0.704   3.397  19.992  0.00  0.00    +0.000 NA
ATOM     15  H   UNL     1       0.419   2.614  20.625  0.00  0.00    +0.000 HD
ATOM     16  H   UNL     1      -0.153   3.959  19.783  0.00  0.00    +0.000 HD
ENDBRANCH  13  14
ENDBRANCH  12  13
ENDBRANCH   4  10
BRANCH   1  18
ATOM     17  C   UNL     1       5.556   3.238  12.119  0.00  0.00    +0.000 C 
ATOM     18  C   UNL     1       6.734   3.787  12.906  0.00  0.00    +0.000 C 
ENDBRANCH   1  18
BRANCH   5  19
ATOM     19  O   UNL     1       3.714   5.711  19.285  0.00  0.00    +0.000 OA
BRANCH  19  20
ATOM     20  C   UNL     1       2.823   6.745  19.525  0.00  0.00    +0.000 C 
BRANCH  20  21
ATOM     21  C   UNL     1       2.315   7.343  18.220  0.00  0.00    +0.000 C 
ATOM     22  F   UNL     1       2.742   8.655  18.116  0.00  0.00    +0.000 F 
ENDBRANCH  20  21
ENDBRANCH  19  20
ENDBRANCH   5  19
TORSDOF 7
ENDMDL
MODEL 6
REMARK VINA RESULT:      -6.4      2.538      4.138
REMARK  Name = 
REMARK  8 active torsions:
REMARK  status: ('A' for Active; 'I' for Inactive)
REMARK    1  A    between atoms: C_1  and  C_2
REMARK    2  A    between atoms: C_2  and  C_3
REMARK    3  A    between atoms: C_6  and  C_7
REMARK    4  A    between atoms: C_9  and  C_10
REMARK    5  A    between atoms: C_10  and  N_11
REMARK    6  A    between atoms: C_12  and  O_13
REMARK    7  A    between atoms: O_13  and  C_14
REMARK    8  A    between atoms: C_14  and  C_15
REMARK                            x       y       z     vdW  Elec       q    Type
REMARK                         _______ _______ _______ _____ _____    ______ ____
ROOT
ATOM      1  C   UNL     1       0.416   8.880  21.464  0.00  0.00    +0.000 A 
ATOM      2  C   UNL     1       1.137   7.703  21.395  0.00  0.00    +0.000 A 
ATOM      3  C   UNL     1       1.723   7.712  20.148  0.00  0.00    +0.000 A 
ATOM      4  C   UNL     1       2.550   6.775  19.504  0.00  0.00    +0.000 A 
ATOM      5  C   UNL     1       2.996   7.106  18.184  0.00  0.00    +0.000 A 
ATOM      6  C   UNL     1       2.591   8.353  17.601  0.00  0.00    +0.000 A 
ATOM      7  C   UNL     1       1.766   9.246  18.291  0.00  0.00    +0.000 A 
ATOM      8  C   UNL     1       1.344   8.890  19.560  0.00  0.00    +0.000 A 
ATOM      9  O   UNL     1       0.565   9.583  20.357  0.00  0.00    +0.000 OA
ENDROOT
BRANCH   4  10
ATOM     10  C   UNL     1       2.987   5.521  20.240  0.00  0.00    +0.000 C 
ATOM     11  C   UNL     1       1.949   4.475  20.599  0.00  0.00    +0.000 C 
ATOM     12  C   UNL     1       2.861   4.231  19.402  0.00  0.00    +0.000 C 
BRANCH  12  13
ATOM     13  C   UNL     1       3.745   3.030  19.786  0.00  0.00    +0.000 C 
BRANCH  13  14
ATOM     14  N   UNL     1       4.966   3.053  18.994  0.00  0.00    +0.000 NA
ATOM     15  H   UNL     1       5.697   3.569  19.537  0.00  0.00    +0.000 HD
ATOM     16  H   UNL     1       4.780   3.598  18.122  0.00  0.00    +0.000 HD
ENDBRANCH  13  14
ENDBRANCH  12  13
ENDBRANCH   4  10
BRANCH   1  18
ATOM     17  C   UNL     1      -0.659  10.801  22.594  0.00  0.00    +0.000 C 
ATOM     18  C   UNL     1      -0.429   9.299  22.621  0.00  0.00    +0.000 C 
ENDBRANCH   1  18
BRANCH   5  19
ATOM     19  O   UNL     1       3.800   6.242  17.493  0.00  0.00    +0.000 OA
BRANCH  19  20
ATOM     20  C   UNL     1       4.828   6.642  16.653  0.00  0.00    +0.000 C 
BRANCH  20  21
ATOM     21  C   UNL     1       5.521   5.441  16.025  0.00  0.00    +0.000 C 
ATOM     22  F   UNL     1       4.637   4.378  15.965  0.00  0.00    +0.000 F 
ENDBRANCH  20  21
ENDBRANCH  19  20
ENDBRANCH   5  19
TORSDOF 7
ENDMDL
MODEL 7
REMARK VINA RESULT:      -6.3      1.082      1.252
REMARK  Name = 
REMARK  8 active torsions:
REMARK  status: ('A' for Active; 'I' for Inactive)
REMARK    1  A    between atoms: C_1  and  C_2
REMARK    2  A    between atoms: C_2  and  C_3
REMARK    3  A    between atoms: C_6  and  C_7
REMARK    4  A    between atoms: C_9  and  C_10
REMARK    5  A    between atoms: C_10  and  N_11
REMARK    6  A    between atoms: C_12  and  O_13
REMARK    7  A    between atoms: O_13  and  C_14
REMARK    8  A    between atoms: C_14  and  C_15
REMARK                            x       y       z     vdW  Elec       q    Type
REMARK                         _______ _______ _______ _____ _____    ______ ____
ROOT
ATOM      1  C   UNL     1       2.100   8.570  18.443  0.00  0.00    +0.000 A 
ATOM      2  C   UNL     1       3.137   7.852  17.877  0.00  0.00    +0.000 A 
ATOM      3  C   UNL     1       3.211   6.688  18.610  0.00  0.00    +0.000 A 
ATOM      4  C   UNL     1       4.079   5.587  18.518  0.00  0.00    +0.000 A 
ATOM      5  C   UNL     1       3.874   4.520  19.452  0.00  0.00    +0.000 A 
ATOM      6  C   UNL     1       2.810   4.624  20.409  0.00  0.00    +0.000 A 
ATOM      7  C   UNL     1       1.977   5.746  20.453  0.00  0.00    +0.000 A 
ATOM      8  C   UNL     1       2.211   6.763  19.543  0.00  0.00    +0.000 A 
ATOM      9  O   UNL     1       1.550   7.891  19.433  0.00  0.00    +0.000 OA
ENDROOT
BRANCH   4  10
ATOM     10  C   UNL     1       5.122   5.537  17.415  0.00  0.00    +0.000 C 
ATOM     11  C   UNL     1       5.966   4.287  17.251  0.00  0.00    +0.000 C 
ATOM     12  C   UNL     1       4.800   4.523  16.297  0.00  0.00    +0.000 C 
BRANCH  12  13
ATOM     13  C   UNL     1       5.431   4.749  14.911  0.00  0.00    +0.000 C 
BRANCH  13  14
ATOM     14  N   UNL     1       6.173   3.561  14.516  0.00  0.00    +0.000 NA
ATOM     15  H   UNL     1       6.262   2.938  15.352  0.00  0.00    +0.000 HD
ATOM     16  H   UNL     1       7.138   3.855  14.239  0.00  0.00    +0.000 HD
ENDBRANCH  13  14
ENDBRANCH  12  13
ENDBRANCH   4  10
BRANCH   1  18
ATOM     17  C   UNL     1       0.162  10.085  18.178  0.00  0.00    +0.000 C 
ATOM     18  C   UNL     1       1.665   9.930  18.010  0.00  0.00    +0.000 C 
ENDBRANCH   1  18
BRANCH   5  19
ATOM     19  O   UNL     1       4.682   3.417  19.425  0.00  0.00    +0.000 OA
BRANCH  19  20
ATOM     20  C   UNL     1       4.245   2.128  19.691  0.00  0.00    +0.000 C 
BRANCH  20  21
ATOM     21  C   UNL     1       3.741   1.450  18.424  0.00  0.00    +0.000 C 
ATOM     22  F   UNL     1       2.681   2.172  17.904  0.00  0.00    +0.000 F 
ENDBRANCH  20  21
ENDBRANCH  19  20
ENDBRANCH   5  19
TORSDOF 7
ENDMDL
MODEL 8
REMARK VINA RESULT:      -6.3      3.055      5.720
REMARK  Name = 
REMARK  8 active torsions:
REMARK  status: ('A' for Active; 'I' for Inactive)
REMARK    1  A    between atoms: C_1  and  C_2
REMARK    2  A    between atoms: C_2  and  C_3
REMARK    3  A    between atoms: C_6  and  C_7
REMARK    4  A    between atoms: C_9  and  C_10
REMARK    5  A    between atoms: C_10  and  N_11
REMARK    6  A    between atoms: C_12  and  O_13
REMARK    7  A    between atoms: O_13  and  C_14
REMARK    8  A    between atoms: C_14  and  C_15
REMARK                            x       y       z     vdW  Elec       q    Type
REMARK                         _______ _______ _______ _____ _____    ______ ____
ROOT
ATOM      1  C   UNL     1       5.853   4.784  15.242  0.00  0.00    +0.000 A 
ATOM      2  C   UNL     1       4.881   4.150  15.991  0.00  0.00    +0.000 A 
ATOM      3  C   UNL     1       4.288   5.149  16.732  0.00  0.00    +0.000 A 
ATOM      4  C   UNL     1       3.256   5.111  17.685  0.00  0.00    +0.000 A 
ATOM      5  C   UNL     1       2.871   6.359  18.274  0.00  0.00    +0.000 A 
ATOM      6  C   UNL     1       3.539   7.560  17.863  0.00  0.00    +0.000 A 
ATOM      7  C   UNL     1       4.560   7.536  16.909  0.00  0.00    +0.000 A 
ATOM      8  C   UNL     1       4.914   6.312  16.369  0.00  0.00    +0.000 A 
ATOM      9  O   UNL     1       5.847   6.084  15.474  0.00  0.00    +0.000 OA
ENDROOT
BRANCH   4  10
ATOM     10  C   UNL     1       2.558   3.797  17.990  0.00  0.00    +0.000 C 
ATOM     11  C   UNL     1       3.395   2.563  18.268  0.00  0.00    +0.000 C 
ATOM     12  C   UNL     1       2.762   3.305  19.440  0.00  0.00    +0.000 C 
BRANCH  12  13
ATOM     13  C   UNL     1       1.715   2.342  20.030  0.00  0.00    +0.000 C 
BRANCH  13  14
ATOM     14  N   UNL     1       0.652   3.109  20.662  0.00  0.00    +0.000 NA
ATOM     15  H   UNL     1      -0.143   2.459  20.864  0.00  0.00    +0.000 HD
ATOM     16  H   UNL     1       0.309   3.820  19.976  0.00  0.00    +0.000 HD
ENDBRANCH  13  14
ENDBRANCH  12  13
ENDBRANCH   4  10
BRANCH   1  18
ATOM     17  C   UNL     1       6.067   3.666  13.046  0.00  0.00    +0.000 C 
ATOM     18  C   UNL     1       6.794   4.100  14.307  0.00  0.00    +0.000 C 
ENDBRANCH   1  18
BRANCH   5  19
ATOM     19  O   UNL     1       1.877   6.399  19.212  0.00  0.00    +0.000 OA
BRANCH  19  20
ATOM     20  C   UNL     1       2.059   6.829  20.518  0.00  0.00    +0.000 C 
BRANCH  20  21
ATOM     21  C   UNL     1       1.337   8.147  20.765  0.00  0.00    +0.000 C 
ATOM     22  F   UNL     1       0.122   7.899  21.379  0.00  0.00    +0.000 F 
ENDBRANCH  20  21
ENDBRANCH  19  20
ENDBRANCH   5  19
TORSDOF 7
ENDMDL
MODEL 9
REMARK VINA RESULT:      -6.3      1.350      1.486
REMARK  Name = 
REMARK  8 active torsions:
REMARK  status: ('A' for Active; 'I' for Inactive)
REMARK    1  A    between atoms: C_1  and  C_2
REMARK    2  A    between atoms: C_2  and  C_3
REMARK    3  A    between atoms: C_6  and  C_7
REMARK    4  A    between atoms: C_9  and  C_10
REMARK    5  A    between atoms: C_10  and  N_11
REMARK    6  A    between atoms: C_12  and  O_13
REMARK    7  A    between atoms: O_13  and  C_14
REMARK    8  A    between atoms: C_14  and  C_15
REMARK                            x       y       z     vdW  Elec       q    Type
REMARK                         _______ _______ _______ _____ _____    ______ ____
ROOT
ATOM      1  C   UNL     1       1.635   8.070  19.909  0.00  0.00    +0.000 A 
ATOM      2  C   UNL     1       2.499   7.557  18.959  0.00  0.00    +0.000 A 
ATOM      3  C   UNL     1       2.722   6.253  19.342  0.00  0.00    +0.000 A 
ATOM      4  C   UNL     1       3.526   5.245  18.781  0.00  0.00    +0.000 A 
ATOM      5  C   UNL     1       3.526   3.974  19.443  0.00  0.00    +0.000 A 
ATOM      6  C   UNL     1       2.717   3.796  20.614  0.00  0.00    +0.000 A 
ATOM      7  C   UNL     1       1.937   4.837  21.126  0.00  0.00    +0.000 A 
ATOM      8  C   UNL     1       1.969   6.055  20.469  0.00  0.00    +0.000 A 
ATOM      9  O   UNL     1       1.320   7.146  20.798  0.00  0.00    +0.000 OA
ENDROOT
BRANCH   4  10
ATOM     10  C   UNL     1       4.281   5.511  17.491  0.00  0.00    +0.000 C 
ATOM     11  C   UNL     1       4.966   6.851  17.299  0.00  0.00    +0.000 C 
ATOM     12  C   UNL     1       5.809   5.638  17.678  0.00  0.00    +0.000 C 
BRANCH  12  13
ATOM     13  C   UNL     1       6.711   5.358  16.463  0.00  0.00    +0.000 C 
BRANCH  13  14
ATOM     14  N   UNL     1       7.690   4.337  16.809  0.00  0.00    +0.000 NA
ATOM     15  H   UNL     1       8.432   4.784  17.396  0.00  0.00    +0.000 HD
ATOM     16  H   UNL     1       8.143   4.006  15.927  0.00  0.00    +0.000 HD
ENDBRANCH  13  14
ENDBRANCH  12  13
ENDBRANCH   4  10
BRANCH   1  18
ATOM     17  C   UNL     1       0.878   9.915  21.371  0.00  0.00    +0.000 C 
ATOM     18  C   UNL     1       1.135   9.475  19.939  0.00  0.00    +0.000 C 
ENDBRANCH   1  18
BRANCH   5  19
ATOM     19  O   UNL     1       4.286   2.946  18.956  0.00  0.00    +0.000 OA
BRANCH  19  20
ATOM     20  C   UNL     1       3.762   1.777  18.426  0.00  0.00    +0.000 C 
BRANCH  20  21
ATOM     21  C   UNL     1       2.420   2.035  17.754  0.00  0.00    +0.000 C 
ATOM     22  F   UNL     1       2.603   2.862  16.659  0.00  0.00    +0.000 F 
ENDBRANCH  20  21
ENDBRANCH  19  20
ENDBRANCH   5  19
TORSDOF 7
ENDMDL
