MODEL 1
REMARK VINA RESULT:      -9.3      0.000      0.000
REMARK  Name = 
REMARK  8 active torsions:
REMARK  status: ('A' for Active; 'I' for Inactive)
REMARK    1  A    between atoms: C_2  and  O_3
REMARK    2  A    between atoms: C_2  and  C_11
REMARK    3  A    between atoms: O_3  and  C_4
REMARK    4  A    between atoms: C_4  and  C_5
REMARK    5  A    between atoms: C_14  and  C_15
REMARK    6  A    between atoms: C_21  and  O_22
REMARK    7  A    between atoms: O_22  and  C_23
REMARK    8  A    between atoms: C_23  and  C_24
REMARK                            x       y       z     vdW  Elec       q    Type
REMARK                         _______ _______ _______ _____ _____    ______ ____
ROOT
ATOM      1  C   UNL     1       7.004   6.376  18.407  0.00  0.00    +0.000 A 
ATOM      2  C   UNL     1       7.425   5.603  19.467  0.00  0.00    +0.000 A 
ATOM      3  O   UNL     1       6.453   4.683  19.745  0.00  0.00    +0.000 OA
ATOM      4  C   UNL     1       5.473   4.935  18.820  0.00  0.00    +0.000 A 
ATOM      5  N   UNL     1       5.720   5.985  18.059  0.00  0.00    +0.000 NA
ENDROOT
BRANCH   4   6
ATOM      6  C   UNL     1       4.292   4.066  18.783  0.00  0.00    +0.000 A 
ATOM      7  C   UNL     1       4.387   2.928  17.952  0.00  0.00    +0.000 A 
ATOM      8  C   UNL     1       3.371   1.981  17.895  0.00  0.00    +0.000 A 
ATOM      9  C   UNL     1       2.229   2.169  18.651  0.00  0.00    +0.000 A 
ATOM     10  C   UNL     1       2.090   3.298  19.475  0.00  0.00    +0.000 A 
ATOM     11 CL   UNL     1       0.537   3.386  20.247  0.00  0.00    +0.000 Cl
ATOM     12  C   UNL     1       3.138   4.247  19.591  0.00  0.00    +0.000 A 
BRANCH  12  13
ATOM     13  O   UNL     1       3.178   5.340  20.432  0.00  0.00    +0.000 OA
BRANCH  13  14
ATOM     14  C   UNL     1       1.976   6.094  20.588  0.00  0.00    +0.000 C 
BRANCH  14  15
ATOM     15  C   UNL     1       1.926   7.374  19.786  0.00  0.00    +0.000 A 
ATOM     16  C   UNL     1       2.504   7.372  18.504  0.00  0.00    +0.000 A 
ATOM     17  C   UNL     1       2.431   8.494  17.682  0.00  0.00    +0.000 A 
ATOM     18  C   UNL     1       1.765   9.633  18.130  0.00  0.00    +0.000 A 
ATOM     19  C   UNL     1       1.179   9.643  19.395  0.00  0.00    +0.000 A 
ATOM     20  C   UNL     1       1.252   8.520  20.222  0.00  0.00    +0.000 A 
ENDBRANCH  14  15
ENDBRANCH  13  14
ENDBRANCH  12  13
ENDBRANCH   4   6
BRANCH   1  22
ATOM     21  O   UNL     1       7.963   7.299  16.453  0.00  0.00    +0.000 OA
ATOM     22  C   UNL     1       7.759   7.373  17.659  0.00  0.00    +0.000 C 
BRANCH  22  23
ATOM     23  O   UNL     1       8.336   8.304  18.479  0.00  0.00    +0.000 OA
BRANCH  23  24
ATOM     24  C   UNL     1       8.278   9.652  17.993  0.00  0.00    +0.000 C 
BRANCH  24  25
ATOM     25  C   UNL     1       9.326  10.519  18.640  0.00  0.00    +0.000 A 
ATOM     26  C   UNL     1       9.342  10.708  20.029  0.00  0.00    +0.000 A 
ATOM     27  C   UNL     1      10.328  11.498  20.625  0.00  0.00    +0.000 A 
ATOM     28  C   UNL     1      11.303  12.110  19.840  0.00  0.00    +0.000 A 
ATOM     29  C   UNL     1      11.297  11.927  18.458  0.00  0.00    +0.000 A 
ATOM     30  C   UNL     1      10.313  11.137  17.861  0.00  0.00    +0.000 A 
ENDBRANCH  24  25
ENDBRANCH  23  24
ENDBRANCH  22  23
ENDBRANCH   1  22
TORSDOF 8
ENDMDL
MODEL 2
REMARK VINA RESULT:      -9.0      0.646      1.423
REMARK  Name = 
REMARK  8 active torsions:
REMARK  status: ('A' for Active; 'I' for Inactive)
REMARK    1  A    between atoms: C_2  and  O_3
REMARK    2  A    between atoms: C_2  and  C_11
REMARK    3  A    between atoms: O_3  and  C_4
REMARK    4  A    between atoms: C_4  and  C_5
REMARK    5  A    between atoms: C_14  and  C_15
REMARK    6  A    between atoms: C_21  and  O_22
REMARK    7  A    between atoms: O_22  and  C_23
REMARK    8  A    between atoms: C_23  and  C_24
REMARK                            x       y       z     vdW  Elec       q    Type
REMARK                         _______ _______ _______ _____ _____    ______ ____
ROOT
ATOM      1  C   UNL     1       7.094   6.394  18.496  0.00  0.00    +0.000 A 
ATOM      2  C   UNL     1       7.536   5.691  19.595  0.00  0.00    +0.000 A 
ATOM      3  O   UNL     1       6.570   4.792  19.952  0.00  0.00    +0.000 OA
ATOM      4  C   UNL     1       5.572   4.985  19.032  0.00  0.00    +0.000 A 
ATOM      5  N   UNL     1       5.803   5.983  18.200  0.00  0.00    +0.000 NA
ENDROOT
BRANCH   4   6
ATOM      6  C   UNL     1       4.391   4.116  19.077  0.00  0.00    +0.000 A 
ATOM      7  C   UNL     1       4.587   2.784  18.649  0.00  0.00    +0.000 A 
ATOM      8  C   UNL     1       3.570   1.838  18.723  0.00  0.00    +0.000 A 
ATOM      9  C   UNL     1       2.329   2.217  19.202  0.00  0.00    +0.000 A 
ATOM     10  C   UNL     1       2.090   3.537  19.618  0.00  0.00    +0.000 A 
ATOM     11 CL   UNL     1       0.440   3.814  20.079  0.00  0.00    +0.000 Cl
ATOM     12  C   UNL     1       3.130   4.502  19.604  0.00  0.00    +0.000 A 
BRANCH  12  13
ATOM     13  O   UNL     1       3.065   5.798  20.075  0.00  0.00    +0.000 OA
BRANCH  13  14
ATOM     14  C   UNL     1       2.565   6.795  19.184  0.00  0.00    +0.000 C 
BRANCH  14  15
ATOM     15  C   UNL     1       1.770   7.895  19.852  0.00  0.00    +0.000 A 
ATOM     16  C   UNL     1       1.497   9.055  19.108  0.00  0.00    +0.000 A 
ATOM     17  C   UNL     1       0.709  10.076  19.635  0.00  0.00    +0.000 A 
ATOM     18  C   UNL     1       0.173   9.942  20.914  0.00  0.00    +0.000 A 
ATOM     19  C   UNL     1       0.428   8.790  21.657  0.00  0.00    +0.000 A 
ATOM     20  C   UNL     1       1.219   7.766  21.131  0.00  0.00    +0.000 A 
ENDBRANCH  14  15
ENDBRANCH  13  14
ENDBRANCH  12  13
ENDBRANCH   4   6
BRANCH   1  22
ATOM     21  O   UNL     1       7.915   7.248  16.450  0.00  0.00    +0.000 OA
ATOM     22  C   UNL     1       7.833   7.340  17.670  0.00  0.00    +0.000 C 
BRANCH  22  23
ATOM     23  O   UNL     1       8.541   8.236  18.421  0.00  0.00    +0.000 OA
BRANCH  23  24
ATOM     24  C   UNL     1       8.313   9.613  18.089  0.00  0.00    +0.000 C 
BRANCH  24  25
ATOM     25  C   UNL     1       9.368  10.508  18.685  0.00  0.00    +0.000 A 
ATOM     26  C   UNL     1      10.371  11.067  17.881  0.00  0.00    +0.000 A 
ATOM     27  C   UNL     1      11.336  11.910  18.438  0.00  0.00    +0.000 A 
ATOM     28  C   UNL     1      11.311  12.199  19.800  0.00  0.00    +0.000 A 
ATOM     29  C   UNL     1      10.317  11.649  20.608  0.00  0.00    +0.000 A 
ATOM     30  C   UNL     1       9.351  10.806  20.054  0.00  0.00    +0.000 A 
ENDBRANCH  24  25
ENDBRANCH  23  24
ENDBRANCH  22  23
ENDBRANCH   1  22
TORSDOF 8
ENDMDL
MODEL 3
REMARK VINA RESULT:      -9.0      0.654      1.247
REMARK  Name = 
REMARK  8 active torsions:
REMARK  status: ('A' for Active; 'I' for Inactive)
REMARK    1  A    between atoms: C_2  and  O_3
REMARK    2  A    between atoms: C_2  and  C_11
REMARK    3  A    between atoms: O_3  and  C_4
REMARK    4  A    between atoms: C_4  and  C_5
REMARK    5  A    between atoms: C_14  and  C_15
REMARK    6  A    between atoms: C_21  and  O_22
REMARK    7  A    between atoms: O_22  and  C_23
REMARK    8  A    between atoms: C_23  and  C_24
REMARK                            x       y       z     vdW  Elec       q    Type
REMARK                         _______ _______ _______ _____ _____    ______ ____
ROOT
ATOM      1  C   UNL     1       7.070   6.413  18.490  0.00  0.00    +0.000 A 
ATOM      2  C   UNL     1       7.524   5.717  19.588  0.00  0.00    +0.000 A 
ATOM      3  O   UNL     1       6.568   4.808  19.950  0.00  0.00    +0.000 OA
ATOM      4  C   UNL     1       5.565   4.990  19.034  0.00  0.00    +0.000 A 
ATOM      5  N   UNL     1       5.782   5.989  18.199  0.00  0.00    +0.000 NA
ENDROOT
BRANCH   4   6
ATOM      6  C   UNL     1       4.393   4.109  19.084  0.00  0.00    +0.000 A 
ATOM      7  C   UNL     1       4.610   2.768  18.698  0.00  0.00    +0.000 A 
ATOM      8  C   UNL     1       3.602   1.813  18.783  0.00  0.00    +0.000 A 
ATOM      9  C   UNL     1       2.350   2.191  19.231  0.00  0.00    +0.000 A 
ATOM     10  C   UNL     1       2.090   3.520  19.605  0.00  0.00    +0.000 A 
ATOM     11 CL   UNL     1       0.430   3.791  20.031  0.00  0.00    +0.000 Cl
ATOM     12  C   UNL     1       3.120   4.496  19.581  0.00  0.00    +0.000 A 
BRANCH  12  13
ATOM     13  O   UNL     1       3.033   5.804  20.012  0.00  0.00    +0.000 OA
BRANCH  13  14
ATOM     14  C   UNL     1       2.517   6.766  19.093  0.00  0.00    +0.000 C 
BRANCH  14  15
ATOM     15  C   UNL     1       1.747   7.900  19.733  0.00  0.00    +0.000 A 
ATOM     16  C   UNL     1       1.403   7.778  21.090  0.00  0.00    +0.000 A 
ATOM     17  C   UNL     1       0.757   8.815  21.761  0.00  0.00    +0.000 A 
ATOM     18  C   UNL     1       0.459   9.994  21.083  0.00  0.00    +0.000 A 
ATOM     19  C   UNL     1       0.807  10.130  19.739  0.00  0.00    +0.000 A 
ATOM     20  C   UNL     1       1.452   9.092  19.064  0.00  0.00    +0.000 A 
ENDBRANCH  14  15
ENDBRANCH  13  14
ENDBRANCH  12  13
ENDBRANCH   4   6
BRANCH   1  22
ATOM     21  O   UNL     1       7.887   7.265  16.441  0.00  0.00    +0.000 OA
ATOM     22  C   UNL     1       7.797   7.366  17.659  0.00  0.00    +0.000 C 
BRANCH  22  23
ATOM     23  O   UNL     1       8.484   8.281  18.406  0.00  0.00    +0.000 OA
BRANCH  23  24
ATOM     24  C   UNL     1       8.339   9.642  17.974  0.00  0.00    +0.000 C 
BRANCH  24  25
ATOM     25  C   UNL     1       9.345  10.543  18.640  0.00  0.00    +0.000 A 
ATOM     26  C   UNL     1       9.353  10.703  20.033  0.00  0.00    +0.000 A 
ATOM     27  C   UNL     1      10.301  11.527  20.645  0.00  0.00    +0.000 A 
ATOM     28  C   UNL     1      11.245  12.202  19.874  0.00  0.00    +0.000 A 
ATOM     29  C   UNL     1      11.246  12.049  18.488  0.00  0.00    +0.000 A 
ATOM     30  C   UNL     1      10.300  11.226  17.874  0.00  0.00    +0.000 A 
ENDBRANCH  24  25
ENDBRANCH  23  24
ENDBRANCH  22  23
ENDBRANCH   1  22
TORSDOF 8
ENDMDL
MODEL 4
REMARK VINA RESULT:      -8.7      3.925      6.923
REMARK  Name = 
REMARK  8 active torsions:
REMARK  status: ('A' for Active; 'I' for Inactive)
REMARK    1  A    between atoms: C_2  and  O_3
REMARK    2  A    between atoms: C_2  and  C_11
REMARK    3  A    between atoms: O_3  and  C_4
REMARK    4  A    between atoms: C_4  and  C_5
REMARK    5  A    between atoms: C_14  and  C_15
REMARK    6  A    between atoms: C_21  and  O_22
REMARK    7  A    between atoms: O_22  and  C_23
REMARK    8  A    between atoms: C_23  and  C_24
REMARK                            x       y       z     vdW  Elec       q    Type
REMARK                         _______ _______ _______ _____ _____    ______ ____
ROOT
ATOM      1  C   UNL     1       5.349   5.745  16.869  0.00  0.00    +0.000 A 
ATOM      2  C   UNL     1       4.287   4.870  16.822  0.00  0.00    +0.000 A 
ATOM      3  O   UNL     1       3.209   5.464  17.417  0.00  0.00    +0.000 OA
ATOM      4  C   UNL     1       3.670   6.698  17.796  0.00  0.00    +0.000 A 
ATOM      5  N   UNL     1       4.957   6.878  17.566  0.00  0.00    +0.000 NA
ENDROOT
BRANCH   4   6
ATOM      6  C   UNL     1       2.734   7.645  18.411  0.00  0.00    +0.000 A 
ATOM      7  C   UNL     1       2.243   8.666  17.568  0.00  0.00    +0.000 A 
ATOM      8  C   UNL     1       1.286   9.575  18.005  0.00  0.00    +0.000 A 
ATOM      9  C   UNL     1       0.821   9.493  19.304  0.00  0.00    +0.000 A 
ATOM     10  C   UNL     1       1.299   8.504  20.179  0.00  0.00    +0.000 A 
ATOM     11 CL   UNL     1       0.661   8.656  21.786  0.00  0.00    +0.000 Cl
ATOM     12  C   UNL     1       2.233   7.533  19.736  0.00  0.00    +0.000 A 
BRANCH  12  13
ATOM     13  O   UNL     1       2.709   6.453  20.451  0.00  0.00    +0.000 OA
BRANCH  13  14
ATOM     14  C   UNL     1       1.777   5.426  20.789  0.00  0.00    +0.000 C 
BRANCH  14  15
ATOM     15  C   UNL     1       1.960   4.134  20.025  0.00  0.00    +0.000 A 
ATOM     16  C   UNL     1       3.210   3.495  20.099  0.00  0.00    +0.000 A 
ATOM     17  C   UNL     1       3.425   2.266  19.480  0.00  0.00    +0.000 A 
ATOM     18  C   UNL     1       2.384   1.653  18.786  0.00  0.00    +0.000 A 
ATOM     19  C   UNL     1       1.137   2.271  18.716  0.00  0.00    +0.000 A 
ATOM     20  C   UNL     1       0.919   3.505  19.334  0.00  0.00    +0.000 A 
ENDBRANCH  14  15
ENDBRANCH  13  14
ENDBRANCH  12  13
ENDBRANCH   4   6
BRANCH   1  22
ATOM     21  O   UNL     1       7.525   6.479  16.303  0.00  0.00    +0.000 OA
ATOM     22  C   UNL     1       6.653   5.621  16.228  0.00  0.00    +0.000 C 
BRANCH  22  23
ATOM     23  O   UNL     1       6.725   4.522  15.417  0.00  0.00    +0.000 OA
BRANCH  23  24
ATOM     24  C   UNL     1       7.183   4.788  14.083  0.00  0.00    +0.000 C 
BRANCH  24  25
ATOM     25  C   UNL     1       6.456   3.942  13.071  0.00  0.00    +0.000 A 
ATOM     26  C   UNL     1       5.062   4.018  12.942  0.00  0.00    +0.000 A 
ATOM     27  C   UNL     1       4.396   3.244  11.989  0.00  0.00    +0.000 A 
ATOM     28  C   UNL     1       5.114   2.385  11.159  0.00  0.00    +0.000 A 
ATOM     29  C   UNL     1       6.501   2.303  11.279  0.00  0.00    +0.000 A 
ATOM     30  C   UNL     1       7.168   3.076  12.231  0.00  0.00    +0.000 A 
ENDBRANCH  24  25
ENDBRANCH  23  24
ENDBRANCH  22  23
ENDBRANCH   1  22
TORSDOF 8
ENDMDL
MODEL 5
REMARK VINA RESULT:      -8.7      3.743      7.983
REMARK  Name = 
REMARK  8 active torsions:
REMARK  status: ('A' for Active; 'I' for Inactive)
REMARK    1  A    between atoms: C_2  and  O_3
REMARK    2  A    between atoms: C_2  and  C_11
REMARK    3  A    between atoms: O_3  and  C_4
REMARK    4  A    between atoms: C_4  and  C_5
REMARK    5  A    between atoms: C_14  and  C_15
REMARK    6  A    between atoms: C_21  and  O_22
REMARK    7  A    between atoms: O_22  and  C_23
REMARK    8  A    between atoms: C_23  and  C_24
REMARK                            x       y       z     vdW  Elec       q    Type
REMARK                         _______ _______ _______ _____ _____    ______ ____
ROOT
ATOM      1  C   UNL     1       2.000   8.543  18.671  0.00  0.00    +0.000 A 
ATOM      2  C   UNL     1       2.094   7.562  19.633  0.00  0.00    +0.000 A 
ATOM      3  O   UNL     1       3.088   6.696  19.272  0.00  0.00    +0.000 OA
ATOM      4  C   UNL     1       3.568   7.203  18.093  0.00  0.00    +0.000 A 
ATOM      5  N   UNL     1       2.897   8.252  17.654  0.00  0.00    +0.000 NA
ENDROOT
BRANCH   4   6
ATOM      6  C   UNL     1       4.714   6.547  17.454  0.00  0.00    +0.000 A 
ATOM      7  C   UNL     1       5.952   7.218  17.566  0.00  0.00    +0.000 A 
ATOM      8  C   UNL     1       7.129   6.660  17.078  0.00  0.00    +0.000 A 
ATOM      9  C   UNL     1       7.083   5.431  16.446  0.00  0.00    +0.000 A 
ATOM     10  C   UNL     1       5.868   4.743  16.299  0.00  0.00    +0.000 A 
ATOM     11 CL   UNL     1       6.027   3.277  15.383  0.00  0.00    +0.000 Cl
ATOM     12  C   UNL     1       4.666   5.268  16.839  0.00  0.00    +0.000 A 
BRANCH  12  13
ATOM     13  O   UNL     1       3.428   4.657  16.856  0.00  0.00    +0.000 OA
BRANCH  13  14
ATOM     14  C   UNL     1       3.346   3.355  17.435  0.00  0.00    +0.000 C 
BRANCH  14  15
ATOM     15  C   UNL     1       2.742   3.319  18.821  0.00  0.00    +0.000 A 
ATOM     16  C   UNL     1       1.412   3.749  18.972  0.00  0.00    +0.000 A 
ATOM     17  C   UNL     1       0.770   3.675  20.206  0.00  0.00    +0.000 A 
ATOM     18  C   UNL     1       1.450   3.156  21.306  0.00  0.00    +0.000 A 
ATOM     19  C   UNL     1       2.765   2.716  21.165  0.00  0.00    +0.000 A 
ATOM     20  C   UNL     1       3.412   2.791  19.929  0.00  0.00    +0.000 A 
ENDBRANCH  14  15
ENDBRANCH  13  14
ENDBRANCH  12  13
ENDBRANCH   4   6
BRANCH   1  22
ATOM     21  O   UNL     1       1.660  10.874  18.458  0.00  0.00    +0.000 OA
ATOM     22  C   UNL     1       1.202   9.763  18.697  0.00  0.00    +0.000 C 
BRANCH  22  23
ATOM     23  O   UNL     1      -0.064   9.539  19.166  0.00  0.00    +0.000 OA
BRANCH  23  24
ATOM     24  C   UNL     1      -0.887  10.711  19.258  0.00  0.00    +0.000 C 
BRANCH  24  25
ATOM     25  C   UNL     1      -1.957  10.719  18.199  0.00  0.00    +0.000 A 
ATOM     26  C   UNL     1      -3.076  11.554  18.317  0.00  0.00    +0.000 A 
ATOM     27  C   UNL     1      -4.056  11.570  17.321  0.00  0.00    +0.000 A 
ATOM     28  C   UNL     1      -3.930  10.750  16.202  0.00  0.00    +0.000 A 
ATOM     29  C   UNL     1      -2.820   9.916  16.075  0.00  0.00    +0.000 A 
ATOM     30  C   UNL     1      -1.839   9.899  17.068  0.00  0.00    +0.000 A 
ENDBRANCH  24  25
ENDBRANCH  23  24
ENDBRANCH  22  23
ENDBRANCH   1  22
TORSDOF 8
ENDMDL
MODEL 6
REMARK VINA RESULT:      -8.7      3.766      8.059
REMARK  Name = 
REMARK  8 active torsions:
REMARK  status: ('A' for Active; 'I' for Inactive)
REMARK    1  A    between atoms: C_2  and  O_3
REMARK    2  A    between atoms: C_2  and  C_11
REMARK    3  A    between atoms: O_3  and  C_4
REMARK    4  A    between atoms: C_4  and  C_5
REMARK    5  A    between atoms: C_14  and  C_15
REMARK    6  A    between atoms: C_21  and  O_22
REMARK    7  A    between atoms: O_22  and  C_23
REMARK    8  A    between atoms: C_23  and  C_24
REMARK                            x       y       z     vdW  Elec       q    Type
REMARK                         _______ _______ _______ _____ _____    ______ ____
ROOT
ATOM      1  C   UNL     1       1.902   8.191  19.254  0.00  0.00    +0.000 A 
ATOM      2  C   UNL     1       2.041   7.057  20.023  0.00  0.00    +0.000 A 
ATOM      3  O   UNL     1       3.023   6.280  19.476  0.00  0.00    +0.000 OA
ATOM      4  C   UNL     1       3.451   6.993  18.386  0.00  0.00    +0.000 A 
ATOM      5  N   UNL     1       2.757   8.094  18.167  0.00  0.00    +0.000 NA
ENDROOT
BRANCH   4   6
ATOM      6  C   UNL     1       4.573   6.473  17.597  0.00  0.00    +0.000 A 
ATOM      7  C   UNL     1       5.766   7.226  17.648  0.00  0.00    +0.000 A 
ATOM      8  C   UNL     1       6.926   6.796  17.013  0.00  0.00    +0.000 A 
ATOM      9  C   UNL     1       6.905   5.615  16.294  0.00  0.00    +0.000 A 
ATOM     10  C   UNL     1       5.731   4.849  16.203  0.00  0.00    +0.000 A 
ATOM     11 CL   UNL     1       5.901   3.469  15.164  0.00  0.00    +0.000 Cl
ATOM     12  C   UNL     1       4.553   5.241  16.890  0.00  0.00    +0.000 A 
BRANCH  12  13
ATOM     13  O   UNL     1       3.368   4.538  16.971  0.00  0.00    +0.000 OA
BRANCH  13  14
ATOM     14  C   UNL     1       3.418   3.229  17.539  0.00  0.00    +0.000 C 
BRANCH  14  15
ATOM     15  C   UNL     1       2.659   3.076  18.837  0.00  0.00    +0.000 A 
ATOM     16  C   UNL     1       3.393   2.777  19.998  0.00  0.00    +0.000 A 
ATOM     17  C   UNL     1       2.768   2.694  21.240  0.00  0.00    +0.000 A 
ATOM     18  C   UNL     1       1.397   2.921  21.338  0.00  0.00    +0.000 A 
ATOM     19  C   UNL     1       0.660   3.230  20.195  0.00  0.00    +0.000 A 
ATOM     20  C   UNL     1       1.285   3.312  18.948  0.00  0.00    +0.000 A 
ENDBRANCH  14  15
ENDBRANCH  13  14
ENDBRANCH  12  13
ENDBRANCH   4   6
BRANCH   1  22
ATOM     21  O   UNL     1       1.149   9.997  20.582  0.00  0.00    +0.000 OA
ATOM     22  C   UNL     1       1.099   9.377  19.526  0.00  0.00    +0.000 C 
BRANCH  22  23
ATOM     23  O   UNL     1       0.184   9.617  18.539  0.00  0.00    +0.000 OA
BRANCH  23  24
ATOM     24  C   UNL     1      -0.869  10.522  18.901  0.00  0.00    +0.000 C 
BRANCH  24  25
ATOM     25  C   UNL     1      -1.934  10.585  17.837  0.00  0.00    +0.000 A 
ATOM     26  C   UNL     1      -1.842   9.793  16.684  0.00  0.00    +0.000 A 
ATOM     27  C   UNL     1      -2.842   9.844  15.710  0.00  0.00    +0.000 A 
ATOM     28  C   UNL     1      -3.939  10.687  15.876  0.00  0.00    +0.000 A 
ATOM     29  C   UNL     1      -4.040  11.477  17.020  0.00  0.00    +0.000 A 
ATOM     30  C   UNL     1      -3.042  11.428  17.995  0.00  0.00    +0.000 A 
ENDBRANCH  24  25
ENDBRANCH  23  24
ENDBRANCH  22  23
ENDBRANCH   1  22
TORSDOF 8
ENDMDL
MODEL 7
REMARK VINA RESULT:      -8.6      3.404      7.782
REMARK  Name = 
REMARK  8 active torsions:
REMARK  status: ('A' for Active; 'I' for Inactive)
REMARK    1  A    between atoms: C_2  and  O_3
REMARK    2  A    between atoms: C_2  and  C_11
REMARK    3  A    between atoms: O_3  and  C_4
REMARK    4  A    between atoms: C_4  and  C_5
REMARK    5  A    between atoms: C_14  and  C_15
REMARK    6  A    between atoms: C_21  and  O_22
REMARK    7  A    between atoms: O_22  and  C_23
REMARK    8  A    between atoms: C_23  and  C_24
REMARK                            x       y       z     vdW  Elec       q    Type
REMARK                         _______ _______ _______ _____ _____    ______ ____
ROOT
ATOM      1  C   UNL     1       1.486   8.593  20.179  0.00  0.00    +0.000 A 
ATOM      2  C   UNL     1       2.032   8.514  18.918  0.00  0.00    +0.000 A 
ATOM      3  O   UNL     1       2.440   7.227  18.702  0.00  0.00    +0.000 OA
ATOM      4  C   UNL     1       2.109   6.569  19.858  0.00  0.00    +0.000 A 
ATOM      5  N   UNL     1       1.616   7.357  20.795  0.00  0.00    +0.000 NA
ENDROOT
BRANCH   4   6
ATOM      6  C   UNL     1       2.343   5.123  19.941  0.00  0.00    +0.000 A 
ATOM      7  C   UNL     1       1.988   4.508  21.161  0.00  0.00    +0.000 A 
ATOM      8  C   UNL     1       2.081   3.132  21.337  0.00  0.00    +0.000 A 
ATOM      9  C   UNL     1       2.557   2.349  20.302  0.00  0.00    +0.000 A 
ATOM     10  C   UNL     1       2.939   2.927  19.080  0.00  0.00    +0.000 A 
ATOM     11 CL   UNL     1       3.606   1.775  17.966  0.00  0.00    +0.000 Cl
ATOM     12  C   UNL     1       2.798   4.321  18.861  0.00  0.00    +0.000 A 
BRANCH  12  13
ATOM     13  O   UNL     1       3.038   5.004  17.685  0.00  0.00    +0.000 OA
BRANCH  13  14
ATOM     14  C   UNL     1       4.189   4.629  16.930  0.00  0.00    +0.000 C 
BRANCH  14  15
ATOM     15  C   UNL     1       5.468   5.320  17.346  0.00  0.00    +0.000 A 
ATOM     16  C   UNL     1       5.670   6.644  16.919  0.00  0.00    +0.000 A 
ATOM     17  C   UNL     1       6.791   7.365  17.326  0.00  0.00    +0.000 A 
ATOM     18  C   UNL     1       7.721   6.771  18.177  0.00  0.00    +0.000 A 
ATOM     19  C   UNL     1       7.524   5.462  18.616  0.00  0.00    +0.000 A 
ATOM     20  C   UNL     1       6.402   4.737  18.208  0.00  0.00    +0.000 A 
ENDBRANCH  14  15
ENDBRANCH  13  14
ENDBRANCH  12  13
ENDBRANCH   4   6
BRANCH   1  22
ATOM     21  O   UNL     1       1.202  10.325  21.763  0.00  0.00    +0.000 OA
ATOM     22  C   UNL     1       0.779   9.711  20.791  0.00  0.00    +0.000 C 
BRANCH  22  23
ATOM     23  O   UNL     1      -0.467   9.888  20.255  0.00  0.00    +0.000 OA
BRANCH  23  24
ATOM     24  C   UNL     1      -0.606  11.051  19.426  0.00  0.00    +0.000 C 
BRANCH  24  25
ATOM     25  C   UNL     1      -1.706  10.879  18.413  0.00  0.00    +0.000 A 
ATOM     26  C   UNL     1      -2.894  11.616  18.513  0.00  0.00    +0.000 A 
ATOM     27  C   UNL     1      -3.904  11.465  17.559  0.00  0.00    +0.000 A 
ATOM     28  C   UNL     1      -3.739  10.574  16.501  0.00  0.00    +0.000 A 
ATOM     29  C   UNL     1      -2.561   9.837  16.392  0.00  0.00    +0.000 A 
ATOM     30  C   UNL     1      -1.551   9.987  17.343  0.00  0.00    +0.000 A 
ENDBRANCH  24  25
ENDBRANCH  23  24
ENDBRANCH  22  23
ENDBRANCH   1  22
TORSDOF 8
ENDMDL
MODEL 8
REMARK VINA RESULT:      -8.5      3.756      7.563
REMARK  Name = 
REMARK  8 active torsions:
REMARK  status: ('A' for Active; 'I' for Inactive)
REMARK    1  A    between atoms: C_2  and  O_3
REMARK    2  A    between atoms: C_2  and  C_11
REMARK    3  A    between atoms: O_3  and  C_4
REMARK    4  A    between atoms: C_4  and  C_5
REMARK    5  A    between atoms: C_14  and  C_15
REMARK    6  A    between atoms: C_21  and  O_22
REMARK    7  A    between atoms: O_22  and  C_23
REMARK    8  A    between atoms: C_23  and  C_24
REMARK                            x       y       z     vdW  Elec       q    Type
REMARK                         _______ _______ _______ _____ _____    ______ ____
ROOT
ATOM      1  C   UNL     1       2.020   8.134  19.012  0.00  0.00    +0.000 A 
ATOM      2  C   UNL     1       2.230   7.112  19.911  0.00  0.00    +0.000 A 
ATOM      3  O   UNL     1       3.242   6.322  19.441  0.00  0.00    +0.000 OA
ATOM      4  C   UNL     1       3.615   6.916  18.263  0.00  0.00    +0.000 A 
ATOM      5  N   UNL     1       2.862   7.946  17.926  0.00  0.00    +0.000 NA
ENDROOT
BRANCH   4   6
ATOM      6  C   UNL     1       4.749   6.359  17.518  0.00  0.00    +0.000 A 
ATOM      7  C   UNL     1       5.971   7.056  17.638  0.00  0.00    +0.000 A 
ATOM      8  C   UNL     1       7.140   6.584  17.051  0.00  0.00    +0.000 A 
ATOM      9  C   UNL     1       7.100   5.418  16.310  0.00  0.00    +0.000 A 
ATOM     10  C   UNL     1       5.899   4.707  16.151  0.00  0.00    +0.000 A 
ATOM     11 CL   UNL     1       6.058   3.337  15.096  0.00  0.00    +0.000 Cl
ATOM     12  C   UNL     1       4.709   5.140  16.788  0.00  0.00    +0.000 A 
BRANCH  12  13
ATOM     13  O   UNL     1       3.491   4.491  16.801  0.00  0.00    +0.000 OA
BRANCH  13  14
ATOM     14  C   UNL     1       3.443   3.195  17.397  0.00  0.00    +0.000 C 
BRANCH  14  15
ATOM     15  C   UNL     1       2.695   3.132  18.709  0.00  0.00    +0.000 A 
ATOM     16  C   UNL     1       3.421   2.802  19.867  0.00  0.00    +0.000 A 
ATOM     17  C   UNL     1       2.810   2.796  21.119  0.00  0.00    +0.000 A 
ATOM     18  C   UNL     1       1.463   3.134  21.230  0.00  0.00    +0.000 A 
ATOM     19  C   UNL     1       0.737   3.475  20.090  0.00  0.00    +0.000 A 
ATOM     20  C   UNL     1       1.346   3.479  18.833  0.00  0.00    +0.000 A 
ENDBRANCH  14  15
ENDBRANCH  13  14
ENDBRANCH  12  13
ENDBRANCH   4   6
BRANCH   1  22
ATOM     21  O   UNL     1       1.181  10.253  18.381  0.00  0.00    +0.000 OA
ATOM     22  C   UNL     1       1.162   9.303  19.156  0.00  0.00    +0.000 C 
BRANCH  22  23
ATOM     23  O   UNL     1       0.456   9.283  20.327  0.00  0.00    +0.000 OA
BRANCH  23  24
ATOM     24  C   UNL     1       0.746  10.367  21.222  0.00  0.00    +0.000 C 
BRANCH  24  25
ATOM     25  C   UNL     1      -0.502  11.124  21.595  0.00  0.00    +0.000 A 
ATOM     26  C   UNL     1      -1.182  11.897  20.644  0.00  0.00    +0.000 A 
ATOM     27  C   UNL     1      -2.348  12.582  20.991  0.00  0.00    +0.000 A 
ATOM     28  C   UNL     1      -2.844  12.506  22.292  0.00  0.00    +0.000 A 
ATOM     29  C   UNL     1      -2.175  11.739  23.245  0.00  0.00    +0.000 A 
ATOM     30  C   UNL     1      -1.009  11.053  22.899  0.00  0.00    +0.000 A 
ENDBRANCH  24  25
ENDBRANCH  23  24
ENDBRANCH  22  23
ENDBRANCH   1  22
TORSDOF 8
ENDMDL
MODEL 9
REMARK VINA RESULT:      -8.4      2.669      4.713
REMARK  Name = 
REMARK  8 active torsions:
REMARK  status: ('A' for Active; 'I' for Inactive)
REMARK    1  A    between atoms: C_2  and  O_3
REMARK    2  A    between atoms: C_2  and  C_11
REMARK    3  A    between atoms: O_3  and  C_4
REMARK    4  A    between atoms: C_4  and  C_5
REMARK    5  A    between atoms: C_14  and  C_15
REMARK    6  A    between atoms: C_21  and  O_22
REMARK    7  A    between atoms: O_22  and  C_23
REMARK    8  A    between atoms: C_23  and  C_24
REMARK                            x       y       z     vdW  Elec       q    Type
REMARK                         _______ _______ _______ _____ _____    ______ ____
ROOT
ATOM      1  C   UNL     1       6.774   6.137  18.044  0.00  0.00    +0.000 A 
ATOM      2  C   UNL     1       7.176   5.652  19.269  0.00  0.00    +0.000 A 
ATOM      3  O   UNL     1       6.224   4.783  19.724  0.00  0.00    +0.000 OA
ATOM      4  C   UNL     1       5.276   4.771  18.735  0.00  0.00    +0.000 A 
ATOM      5  N   UNL     1       5.519   5.623  17.756  0.00  0.00    +0.000 NA
ENDROOT
BRANCH   4   6
ATOM      6  C   UNL     1       4.126   3.869  18.867  0.00  0.00    +0.000 A 
ATOM      7  C   UNL     1       4.187   2.676  18.114  0.00  0.00    +0.000 A 
ATOM      8  C   UNL     1       3.202   1.700  18.216  0.00  0.00    +0.000 A 
ATOM      9  C   UNL     1       2.124   1.913  19.056  0.00  0.00    +0.000 A 
ATOM     10  C   UNL     1       2.019   3.096  19.806  0.00  0.00    +0.000 A 
ATOM     11 CL   UNL     1       0.538   3.198  20.705  0.00  0.00    +0.000 Cl
ATOM     12  C   UNL     1       3.041   4.078  19.759  0.00  0.00    +0.000 A 
BRANCH  12  13
ATOM     13  O   UNL     1       3.117   5.232  20.512  0.00  0.00    +0.000 OA
BRANCH  13  14
ATOM     14  C   UNL     1       1.932   6.020  20.629  0.00  0.00    +0.000 C 
BRANCH  14  15
ATOM     15  C   UNL     1       1.928   7.280  19.792  0.00  0.00    +0.000 A 
ATOM     16  C   UNL     1       2.509   7.223  18.513  0.00  0.00    +0.000 A 
ATOM     17  C   UNL     1       2.476   8.325  17.661  0.00  0.00    +0.000 A 
ATOM     18  C   UNL     1       1.849   9.498  18.076  0.00  0.00    +0.000 A 
ATOM     19  C   UNL     1       1.259   9.561  19.338  0.00  0.00    +0.000 A 
ATOM     20  C   UNL     1       1.293   8.458  20.195  0.00  0.00    +0.000 A 
ENDBRANCH  14  15
ENDBRANCH  13  14
ENDBRANCH  12  13
ENDBRANCH   4   6
BRANCH   1  22
ATOM     21  O   UNL     1       7.806   8.136  17.316  0.00  0.00    +0.000 OA
ATOM     22  C   UNL     1       7.527   6.962  17.106  0.00  0.00    +0.000 C 
BRANCH  22  23
ATOM     23  O   UNL     1       7.742   6.322  15.917  0.00  0.00    +0.000 OA
BRANCH  23  24
ATOM     24  C   UNL     1       6.953   5.141  15.717  0.00  0.00    +0.000 C 
BRANCH  24  25
ATOM     25  C   UNL     1       6.931   4.730  14.268  0.00  0.00    +0.000 A 
ATOM     26  C   UNL     1       6.092   3.697  13.829  0.00  0.00    +0.000 A 
ATOM     27  C   UNL     1       6.063   3.333  12.480  0.00  0.00    +0.000 A 
ATOM     28  C   UNL     1       6.874   3.993  11.560  0.00  0.00    +0.000 A 
ATOM     29  C   UNL     1       7.712   5.022  11.986  0.00  0.00    +0.000 A 
ATOM     30  C   UNL     1       7.742   5.388  13.334  0.00  0.00    +0.000 A 
ENDBRANCH  24  25
ENDBRANCH  23  24
ENDBRANCH  22  23
ENDBRANCH   1  22
TORSDOF 8
ENDMDL
