MODEL 1
REMARK VINA RESULT:      -6.7      0.000      0.000
REMARK  Name = 
REMARK  0 active torsions:
REMARK  status: ('A' for Active; 'I' for Inactive)
REMARK                            x       y       z     vdW  Elec       q    Type
REMARK                         _______ _______ _______ _____ _____    ______ ____
ROOT
ATOM      1  N   UNL     1       6.022   3.548  15.639  0.00  0.00    +0.000 NA
ATOM      2  C   UNL     1       6.420   4.729  15.966  0.00  0.00    +0.000 C 
ATOM      3  N   UNL     1       7.567   5.278  15.338  0.00  0.00    +0.000 N 
ATOM      4  N   UNL     1       5.713   5.492  16.949  0.00  0.00    +0.000 N 
ATOM      5  C   UNL     1       4.580   4.994  17.648  0.00  0.00    +0.000 A 
ATOM      6  N   UNL     1       4.091   3.745  17.472  0.00  0.00    +0.000 NA
ATOM      7  C   UNL     1       3.004   3.517  18.244  0.00  0.00    +0.000 A 
ATOM      8  C   UNL     1       2.640   4.576  19.067  0.00  0.00    +0.000 A 
ATOM      9  S   UNL     1       3.683   5.870  18.783  0.00  0.00    +0.000 S 
ATOM     10  C   UNL     1       1.485   4.525  20.028  0.00  0.00    +0.000 C 
ATOM     11  C   UNL     1       0.990   3.072  20.214  0.00  0.00    +0.000 C 
ATOM     12  C   UNL     1       0.866   2.364  18.861  0.00  0.00    +0.000 C 
ATOM     13  C   UNL     1       2.251   2.225  18.200  0.00  0.00    +0.000 C 
ATOM     14  H   UNL     1       6.511   2.982  14.933  0.00  0.00    +0.000 HD
ATOM     15  H   UNL     1       8.081   4.741  14.625  0.00  0.00    +0.000 HD
ATOM     16  H   UNL     1       7.903   6.218  15.591  0.00  0.00    +0.000 HD
ATOM     17  H   UNL     1       6.036   6.448  17.161  0.00  0.00    +0.000 HD
ENDROOT
TORSDOF 0
ENDMDL
MODEL 2
REMARK VINA RESULT:      -6.5      1.668      2.117
REMARK  Name = 
REMARK  0 active torsions:
REMARK  status: ('A' for Active; 'I' for Inactive)
REMARK                            x       y       z     vdW  Elec       q    Type
REMARK                         _______ _______ _______ _____ _____    ______ ____
ROOT
ATOM      1  N   UNL     1       6.989   4.384  18.501  0.00  0.00    +0.000 NA
ATOM      2  C   UNL     1       6.752   4.306  17.238  0.00  0.00    +0.000 C 
ATOM      3  N   UNL     1       7.785   4.602  16.313  0.00  0.00    +0.000 N 
ATOM      4  N   UNL     1       5.459   3.917  16.761  0.00  0.00    +0.000 N 
ATOM      5  C   UNL     1       4.365   3.643  17.626  0.00  0.00    +0.000 A 
ATOM      6  N   UNL     1       4.437   3.758  18.971  0.00  0.00    +0.000 NA
ATOM      7  C   UNL     1       3.268   3.433  19.567  0.00  0.00    +0.000 A 
ATOM      8  C   UNL     1       2.243   3.087  18.694  0.00  0.00    +0.000 A 
ATOM      9  S   UNL     1       2.834   3.136  17.116  0.00  0.00    +0.000 S 
ATOM     10  C   UNL     1       0.855   2.722  19.141  0.00  0.00    +0.000 C 
ATOM     11  C   UNL     1       0.638   3.104  20.624  0.00  0.00    +0.000 C 
ATOM     12  C   UNL     1       1.834   2.668  21.476  0.00  0.00    +0.000 C 
ATOM     13  C   UNL     1       3.102   3.436  21.054  0.00  0.00    +0.000 C 
ATOM     14  H   UNL     1       7.910   4.657  18.869  0.00  0.00    +0.000 HD
ATOM     15  H   UNL     1       8.721   4.878  16.644  0.00  0.00    +0.000 HD
ATOM     16  H   UNL     1       7.611   4.550  15.299  0.00  0.00    +0.000 HD
ATOM     17  H   UNL     1       5.312   3.829  15.744  0.00  0.00    +0.000 HD
ENDROOT
TORSDOF 0
ENDMDL
MODEL 3
REMARK VINA RESULT:      -6.4      1.362      2.178
REMARK  Name = 
REMARK  0 active torsions:
REMARK  status: ('A' for Active; 'I' for Inactive)
REMARK                            x       y       z     vdW  Elec       q    Type
REMARK                         _______ _______ _______ _____ _____    ______ ____
ROOT
ATOM      1  N   UNL     1       6.116   6.332  16.404  0.00  0.00    +0.000 NA
ATOM      2  C   UNL     1       6.437   5.189  15.904  0.00  0.00    +0.000 C 
ATOM      3  N   UNL     1       7.455   5.118  14.920  0.00  0.00    +0.000 N 
ATOM      4  N   UNL     1       5.782   3.992  16.339  0.00  0.00    +0.000 N 
ATOM      5  C   UNL     1       4.728   3.988  17.292  0.00  0.00    +0.000 A 
ATOM      6  N   UNL     1       4.227   5.116  17.846  0.00  0.00    +0.000 NA
ATOM      7  C   UNL     1       3.238   4.846  18.729  0.00  0.00    +0.000 A 
ATOM      8  C   UNL     1       2.922   3.498  18.858  0.00  0.00    +0.000 A 
ATOM      9  S   UNL     1       3.954   2.601  17.871  0.00  0.00    +0.000 S 
ATOM     10  C   UNL     1       1.835   2.980  19.757  0.00  0.00    +0.000 C 
ATOM     11  C   UNL     1       0.925   4.134  20.239  0.00  0.00    +0.000 C 
ATOM     12  C   UNL     1       1.765   5.330  20.697  0.00  0.00    +0.000 C 
ATOM     13  C   UNL     1       2.551   5.920  19.511  0.00  0.00    +0.000 C 
ATOM     14  H   UNL     1       6.574   7.205  16.112  0.00  0.00    +0.000 HD
ATOM     15  H   UNL     1       7.938   5.972  14.603  0.00  0.00    +0.000 HD
ATOM     16  H   UNL     1       7.721   4.214  14.505  0.00  0.00    +0.000 HD
ATOM     17  H   UNL     1       6.088   3.089  15.945  0.00  0.00    +0.000 HD
ENDROOT
TORSDOF 0
ENDMDL
MODEL 4
REMARK VINA RESULT:      -6.3      1.260      1.280
REMARK  Name = 
REMARK  0 active torsions:
REMARK  status: ('A' for Active; 'I' for Inactive)
REMARK                            x       y       z     vdW  Elec       q    Type
REMARK                         _______ _______ _______ _____ _____    ______ ____
ROOT
ATOM      1  N   UNL     1       6.768   4.026  16.813  0.00  0.00    +0.000 NA
ATOM      2  C   UNL     1       6.582   5.251  16.460  0.00  0.00    +0.000 C 
ATOM      3  N   UNL     1       7.472   5.855  15.537  0.00  0.00    +0.000 N 
ATOM      4  N   UNL     1       5.481   6.001  16.985  0.00  0.00    +0.000 N 
ATOM      5  C   UNL     1       4.571   5.476  17.942  0.00  0.00    +0.000 A 
ATOM      6  N   UNL     1       4.683   4.235  18.467  0.00  0.00    +0.000 NA
ATOM      7  C   UNL     1       3.690   3.969  19.346  0.00  0.00    +0.000 A 
ATOM      8  C   UNL     1       2.797   5.014  19.553  0.00  0.00    +0.000 A 
ATOM      9  S   UNL     1       3.231   6.304  18.557  0.00  0.00    +0.000 S 
ATOM     10  C   UNL     1       1.641   4.945  20.510  0.00  0.00    +0.000 C 
ATOM     11  C   UNL     1       1.780   3.725  21.450  0.00  0.00    +0.000 C 
ATOM     12  C   UNL     1       2.167   2.472  20.658  0.00  0.00    +0.000 C 
ATOM     13  C   UNL     1       3.564   2.645  20.031  0.00  0.00    +0.000 C 
ATOM     14  H   UNL     1       7.548   3.465  16.448  0.00  0.00    +0.000 HD
ATOM     15  H   UNL     1       8.264   5.323  15.149  0.00  0.00    +0.000 HD
ATOM     16  H   UNL     1       7.341   6.835  15.248  0.00  0.00    +0.000 HD
ATOM     17  H   UNL     1       5.338   6.968  16.654  0.00  0.00    +0.000 HD
ENDROOT
TORSDOF 0
ENDMDL
MODEL 5
REMARK VINA RESULT:      -6.1      1.285      1.297
REMARK  Name = 
REMARK  0 active torsions:
REMARK  status: ('A' for Active; 'I' for Inactive)
REMARK                            x       y       z     vdW  Elec       q    Type
REMARK                         _______ _______ _______ _____ _____    ______ ____
ROOT
ATOM      1  N   UNL     1       5.715   4.638  14.447  0.00  0.00    +0.000 NA
ATOM      2  C   UNL     1       6.734   5.079  15.101  0.00  0.00    +0.000 C 
ATOM      3  N   UNL     1       7.900   5.473  14.397  0.00  0.00    +0.000 N 
ATOM      4  N   UNL     1       6.695   5.182  16.529  0.00  0.00    +0.000 N 
ATOM      5  C   UNL     1       5.577   4.771  17.305  0.00  0.00    +0.000 A 
ATOM      6  N   UNL     1       4.467   4.215  16.769  0.00  0.00    +0.000 NA
ATOM      7  C   UNL     1       3.545   3.921  17.713  0.00  0.00    +0.000 A 
ATOM      8  C   UNL     1       3.931   4.211  19.016  0.00  0.00    +0.000 A 
ATOM      9  S   UNL     1       5.463   4.913  18.986  0.00  0.00    +0.000 S 
ATOM     10  C   UNL     1       3.074   3.935  20.220  0.00  0.00    +0.000 C 
ATOM     11  C   UNL     1       1.895   3.005  19.852  0.00  0.00    +0.000 C 
ATOM     12  C   UNL     1       1.228   3.466  18.552  0.00  0.00    +0.000 C 
ATOM     13  C   UNL     1       2.210   3.340  17.371  0.00  0.00    +0.000 C 
ATOM     14  H   UNL     1       5.717   4.559  13.421  0.00  0.00    +0.000 HD
ATOM     15  H   UNL     1       7.937   5.409  13.369  0.00  0.00    +0.000 HD
ATOM     16  H   UNL     1       8.725   5.822  14.905  0.00  0.00    +0.000 HD
ATOM     17  H   UNL     1       7.513   5.573  17.020  0.00  0.00    +0.000 HD
ENDROOT
TORSDOF 0
ENDMDL
MODEL 6
REMARK VINA RESULT:      -6.1      2.653      5.538
REMARK  Name = 
REMARK  0 active torsions:
REMARK  status: ('A' for Active; 'I' for Inactive)
REMARK                            x       y       z     vdW  Elec       q    Type
REMARK                         _______ _______ _______ _____ _____    ______ ____
ROOT
ATOM      1  N   UNL     1       2.355   4.738  21.326  0.00  0.00    +0.000 NA
ATOM      2  C   UNL     1       2.183   3.464  21.234  0.00  0.00    +0.000 C 
ATOM      3  N   UNL     1       1.546   2.767  22.291  0.00  0.00    +0.000 N 
ATOM      4  N   UNL     1       2.623   2.751  20.073  0.00  0.00    +0.000 N 
ATOM      5  C   UNL     1       3.303   3.374  18.992  0.00  0.00    +0.000 A 
ATOM      6  N   UNL     1       3.626   4.688  18.979  0.00  0.00    +0.000 NA
ATOM      7  C   UNL     1       4.259   5.039  17.837  0.00  0.00    +0.000 A 
ATOM      8  C   UNL     1       4.475   3.995  16.944  0.00  0.00    +0.000 A 
ATOM      9  S   UNL     1       3.801   2.587  17.581  0.00  0.00    +0.000 S 
ATOM     10  C   UNL     1       5.189   4.156  15.631  0.00  0.00    +0.000 C 
ATOM     11  C   UNL     1       5.922   5.516  15.569  0.00  0.00    +0.000 C 
ATOM     12  C   UNL     1       5.014   6.645  16.067  0.00  0.00    +0.000 C 
ATOM     13  C   UNL     1       4.681   6.447  17.558  0.00  0.00    +0.000 C 
ATOM     14  H   UNL     1       2.045   5.273  22.148  0.00  0.00    +0.000 HD
ATOM     15  H   UNL     1       1.220   3.270  23.129  0.00  0.00    +0.000 HD
ATOM     16  H   UNL     1       1.406   1.748  22.237  0.00  0.00    +0.000 HD
ATOM     17  H   UNL     1       2.438   1.738  20.014  0.00  0.00    +0.000 HD
ENDROOT
TORSDOF 0
ENDMDL
MODEL 7
REMARK VINA RESULT:      -6.1      2.338      2.909
REMARK  Name = 
REMARK  0 active torsions:
REMARK  status: ('A' for Active; 'I' for Inactive)
REMARK                            x       y       z     vdW  Elec       q    Type
REMARK                         _______ _______ _______ _____ _____    ______ ____
ROOT
ATOM      1  N   UNL     1       7.805   5.510  19.982  0.00  0.00    +0.000 NA
ATOM      2  C   UNL     1       7.737   6.410  19.063  0.00  0.00    +0.000 C 
ATOM      3  N   UNL     1       8.694   7.456  19.036  0.00  0.00    +0.000 N 
ATOM      4  N   UNL     1       6.709   6.359  18.067  0.00  0.00    +0.000 N 
ATOM      5  C   UNL     1       5.694   5.365  18.052  0.00  0.00    +0.000 A 
ATOM      6  N   UNL     1       5.587   4.401  18.995  0.00  0.00    +0.000 NA
ATOM      7  C   UNL     1       4.546   3.573  18.752  0.00  0.00    +0.000 A 
ATOM      8  C   UNL     1       3.794   3.893  17.628  0.00  0.00    +0.000 A 
ATOM      9  S   UNL     1       4.487   5.233  16.875  0.00  0.00    +0.000 S 
ATOM     10  C   UNL     1       2.577   3.126  17.193  0.00  0.00    +0.000 C 
ATOM     11  C   UNL     1       2.096   2.179  18.316  0.00  0.00    +0.000 C 
ATOM     12  C   UNL     1       3.277   1.418  18.926  0.00  0.00    +0.000 C 
ATOM     13  C   UNL     1       4.241   2.396  19.625  0.00  0.00    +0.000 C 
ATOM     14  H   UNL     1       8.536   5.522  20.706  0.00  0.00    +0.000 HD
ATOM     15  H   UNL     1       9.441   7.500  19.744  0.00  0.00    +0.000 HD
ATOM     16  H   UNL     1       8.650   8.187  18.312  0.00  0.00    +0.000 HD
ATOM     17  H   UNL     1       6.703   7.074  17.324  0.00  0.00    +0.000 HD
ENDROOT
TORSDOF 0
ENDMDL
MODEL 8
REMARK VINA RESULT:      -6.0      2.065      5.335
REMARK  Name = 
REMARK  0 active torsions:
REMARK  status: ('A' for Active; 'I' for Inactive)
REMARK                            x       y       z     vdW  Elec       q    Type
REMARK                         _______ _______ _______ _____ _____    ______ ____
ROOT
ATOM      1  N   UNL     1       1.202   3.343  17.923  0.00  0.00    +0.000 NA
ATOM      2  C   UNL     1       1.485   3.523  19.166  0.00  0.00    +0.000 C 
ATOM      3  N   UNL     1       0.468   3.370  20.143  0.00  0.00    +0.000 N 
ATOM      4  N   UNL     1       2.814   3.868  19.570  0.00  0.00    +0.000 N 
ATOM      5  C   UNL     1       3.875   4.076  18.647  0.00  0.00    +0.000 A 
ATOM      6  N   UNL     1       3.715   4.000  17.306  0.00  0.00    +0.000 NA
ATOM      7  C   UNL     1       4.874   4.228  16.648  0.00  0.00    +0.000 A 
ATOM      8  C   UNL     1       5.961   4.520  17.462  0.00  0.00    +0.000 A 
ATOM      9  S   UNL     1       5.470   4.439  19.073  0.00  0.00    +0.000 S 
ATOM     10  C   UNL     1       7.334   4.837  16.938  0.00  0.00    +0.000 C 
ATOM     11  C   UNL     1       7.289   5.119  15.419  0.00  0.00    +0.000 C 
ATOM     12  C   UNL     1       6.440   4.067  14.698  0.00  0.00    +0.000 C 
ATOM     13  C   UNL     1       4.972   4.157  15.157  0.00  0.00    +0.000 C 
ATOM     14  H   UNL     1       0.256   3.090  17.608  0.00  0.00    +0.000 HD
ATOM     15  H   UNL     1      -0.491   3.117  19.866  0.00  0.00    +0.000 HD
ATOM     16  H   UNL     1       0.675   3.517  21.142  0.00  0.00    +0.000 HD
ATOM     17  H   UNL     1       3.016   3.970  20.576  0.00  0.00    +0.000 HD
ENDROOT
TORSDOF 0
ENDMDL
MODEL 9
REMARK VINA RESULT:      -5.9      2.139      2.460
REMARK  Name = 
REMARK  0 active torsions:
REMARK  status: ('A' for Active; 'I' for Inactive)
REMARK                            x       y       z     vdW  Elec       q    Type
REMARK                         _______ _______ _______ _____ _____    ______ ____
ROOT
ATOM      1  N   UNL     1       7.393   5.214  20.008  0.00  0.00    +0.000 NA
ATOM      2  C   UNL     1       7.367   6.109  19.082  0.00  0.00    +0.000 C 
ATOM      3  N   UNL     1       8.490   6.954  18.895  0.00  0.00    +0.000 N 
ATOM      4  N   UNL     1       6.220   6.251  18.237  0.00  0.00    +0.000 N 
ATOM      5  C   UNL     1       5.044   5.467  18.389  0.00  0.00    +0.000 A 
ATOM      6  N   UNL     1       4.891   4.542  19.365  0.00  0.00    +0.000 NA
ATOM      7  C   UNL     1       3.690   3.926  19.289  0.00  0.00    +0.000 A 
ATOM      8  C   UNL     1       2.863   4.381  18.270  0.00  0.00    +0.000 A 
ATOM      9  S   UNL     1       3.683   5.563  17.391  0.00  0.00    +0.000 S 
ATOM     10  C   UNL     1       1.475   3.857  18.027  0.00  0.00    +0.000 C 
ATOM     11  C   UNL     1       0.986   3.020  19.231  0.00  0.00    +0.000 C 
ATOM     12  C   UNL     1       2.077   2.051  19.696  0.00  0.00    +0.000 C 
ATOM     13  C   UNL     1       3.295   2.831  20.229  0.00  0.00    +0.000 C 
ATOM     14  H   UNL     1       8.207   5.089  20.625  0.00  0.00    +0.000 HD
ATOM     15  H   UNL     1       9.323   6.858  19.494  0.00  0.00    +0.000 HD
ATOM     16  H   UNL     1       8.484   7.679  18.164  0.00  0.00    +0.000 HD
ATOM     17  H   UNL     1       6.245   6.952  17.482  0.00  0.00    +0.000 HD
ENDROOT
TORSDOF 0
ENDMDL
