MODEL 1
REMARK VINA RESULT:      -8.5      0.000      0.000
REMARK  Name = 
REMARK  5 active torsions:
REMARK  status: ('A' for Active; 'I' for Inactive)
REMARK    1  A    between atoms: C_2  and  C_19
REMARK    2  A    between atoms: N_3  and  N_4
REMARK    3  A    between atoms: C_5  and  C_6
REMARK    4  A    between atoms: C_9  and  O_10
REMARK    5  A    between atoms: O_10  and  C_11
REMARK                            x       y       z     vdW  Elec       q    Type
REMARK                         _______ _______ _______ _____ _____    ______ ____
ROOT
ATOM      1  N   UNL     1       2.472   4.792  19.848  0.00  0.00    +0.000 NA
ATOM      2  C   UNL     1       2.640   5.907  20.480  0.00  0.00    +0.000 C 
ENDROOT
BRANCH   2   3
ATOM      3  C   UNL     1       2.095   7.167  19.938  0.00  0.00    +0.000 A 
ATOM      4  C   UNL     1       2.319   7.537  18.606  0.00  0.00    +0.000 A 
ATOM      5  C   UNL     1       1.773   8.723  18.113  0.00  0.00    +0.000 A 
ATOM      6  C   UNL     1       1.000   9.536  18.946  0.00  0.00    +0.000 A 
ATOM      7  C   UNL     1       0.832   9.191  20.291  0.00  0.00    +0.000 A 
ATOM      8  C   UNL     1       1.351   7.991  20.782  0.00  0.00    +0.000 A 
BRANCH   6   9
ATOM      9  O   UNL     1       0.493  10.679  18.373  0.00  0.00    +0.000 OA
BRANCH   9  10
ATOM     10  C   UNL     1      -0.870  10.856  18.287  0.00  0.00    +0.000 A 
ATOM     11  C   UNL     1      -1.542  10.004  17.408  0.00  0.00    +0.000 A 
ATOM     12  C   UNL     1      -2.925  10.110  17.246  0.00  0.00    +0.000 A 
ATOM     13  C   UNL     1      -3.639  11.070  17.961  0.00  0.00    +0.000 A 
ATOM     14  C   UNL     1      -2.978  11.898  18.866  0.00  0.00    +0.000 A 
ATOM     15  C   UNL     1      -1.600  11.772  19.051  0.00  0.00    +0.000 A 
ENDBRANCH   9  10
ENDBRANCH   6   9
ENDBRANCH   2   3
BRANCH   1  18
ATOM     16  O   UNL     1       4.333   1.870  20.413  0.00  0.00    +0.000 OA
ATOM     17  C   UNL     1       4.036   2.949  19.894  0.00  0.00    +0.000 C 
ATOM     18  N   UNL     1       2.982   3.676  20.445  0.00  0.00    +0.000 N 
ATOM     19  H   UNL     1       2.484   3.217  21.201  0.00  0.00    +0.000 HD
BRANCH  17  20
ATOM     20  C   UNL     1       4.701   3.530  18.737  0.00  0.00    +0.000 A 
ATOM     21  N   UNL     1       5.849   4.186  18.765  0.00  0.00    +0.000 NA
ATOM     22  C   UNL     1       6.138   4.484  17.453  0.00  0.00    +0.000 A 
ATOM     23  C   UNL     1       7.266   5.108  16.901  0.00  0.00    +0.000 A 
ATOM     24  C   UNL     1       7.310   5.310  15.515  0.00  0.00    +0.000 A 
ATOM     25  C   UNL     1       6.253   4.904  14.696  0.00  0.00    +0.000 A 
ATOM     26  C   UNL     1       5.130   4.259  15.226  0.00  0.00    +0.000 A 
ATOM     27  C   UNL     1       5.119   4.065  16.610  0.00  0.00    +0.000 A 
ATOM     28  N   UNL     1       4.230   3.457  17.445  0.00  0.00    +0.000 N 
ATOM     29  H   UNL     1       3.397   2.943  17.191  0.00  0.00    +0.000 HD
ENDBRANCH  17  20
ENDBRANCH   1  18
TORSDOF 5
ENDMDL
MODEL 2
REMARK VINA RESULT:      -8.3      0.201      1.134
REMARK  Name = 
REMARK  5 active torsions:
REMARK  status: ('A' for Active; 'I' for Inactive)
REMARK    1  A    between atoms: C_2  and  C_19
REMARK    2  A    between atoms: N_3  and  N_4
REMARK    3  A    between atoms: C_5  and  C_6
REMARK    4  A    between atoms: C_9  and  O_10
REMARK    5  A    between atoms: O_10  and  C_11
REMARK                            x       y       z     vdW  Elec       q    Type
REMARK                         _______ _______ _______ _____ _____    ______ ____
ROOT
ATOM      1  N   UNL     1       2.461   4.620  19.845  0.00  0.00    +0.000 NA
ATOM      2  C   UNL     1       2.746   5.744  20.416  0.00  0.00    +0.000 C 
ENDROOT
BRANCH   2   3
ATOM      3  C   UNL     1       2.219   7.014  19.879  0.00  0.00    +0.000 A 
ATOM      4  C   UNL     1       2.452   7.389  18.549  0.00  0.00    +0.000 A 
ATOM      5  C   UNL     1       1.923   8.585  18.061  0.00  0.00    +0.000 A 
ATOM      6  C   UNL     1       1.157   9.402  18.896  0.00  0.00    +0.000 A 
ATOM      7  C   UNL     1       0.979   9.051  20.239  0.00  0.00    +0.000 A 
ATOM      8  C   UNL     1       1.481   7.842  20.724  0.00  0.00    +0.000 A 
BRANCH   6   9
ATOM      9  O   UNL     1       0.666  10.554  18.327  0.00  0.00    +0.000 OA
BRANCH   9  10
ATOM     10  C   UNL     1      -0.694  10.771  18.283  0.00  0.00    +0.000 A 
ATOM     11  C   UNL     1      -1.419   9.926  17.441  0.00  0.00    +0.000 A 
ATOM     12  C   UNL     1      -2.803  10.071  17.323  0.00  0.00    +0.000 A 
ATOM     13  C   UNL     1      -3.464  11.064  18.044  0.00  0.00    +0.000 A 
ATOM     14  C   UNL     1      -2.749  11.887  18.912  0.00  0.00    +0.000 A 
ATOM     15  C   UNL     1      -1.371  11.722  19.054  0.00  0.00    +0.000 A 
ENDBRANCH   9  10
ENDBRANCH   6   9
ENDBRANCH   2   3
BRANCH   1  18
ATOM     16  O   UNL     1       4.303   1.681  20.385  0.00  0.00    +0.000 OA
ATOM     17  C   UNL     1       4.011   2.764  19.872  0.00  0.00    +0.000 C 
ATOM     18  N   UNL     1       2.966   3.498  20.433  0.00  0.00    +0.000 N 
ATOM     19  H   UNL     1       2.471   3.040  21.192  0.00  0.00    +0.000 HD
BRANCH  17  20
ATOM     20  C   UNL     1       4.671   3.343  18.711  0.00  0.00    +0.000 A 
ATOM     21  N   UNL     1       4.262   3.219  17.459  0.00  0.00    +0.000 NA
ATOM     22  C   UNL     1       5.126   3.982  16.710  0.00  0.00    +0.000 A 
ATOM     23  C   UNL     1       5.116   4.263  15.336  0.00  0.00    +0.000 A 
ATOM     24  C   UNL     1       6.135   5.069  14.808  0.00  0.00    +0.000 A 
ATOM     25  C   UNL     1       7.143   5.581  15.629  0.00  0.00    +0.000 A 
ATOM     26  C   UNL     1       7.157   5.331  17.005  0.00  0.00    +0.000 A 
ATOM     27  C   UNL     1       6.124   4.531  17.503  0.00  0.00    +0.000 A 
ATOM     28  N   UNL     1       5.806   4.120  18.763  0.00  0.00    +0.000 N 
ATOM     29  H   UNL     1       6.248   4.393  19.631  0.00  0.00    +0.000 HD
ENDBRANCH  17  20
ENDBRANCH   1  18
TORSDOF 5
ENDMDL
MODEL 3
REMARK VINA RESULT:      -8.3      0.228      1.332
REMARK  Name = 
REMARK  5 active torsions:
REMARK  status: ('A' for Active; 'I' for Inactive)
REMARK    1  A    between atoms: C_2  and  C_19
REMARK    2  A    between atoms: N_3  and  N_4
REMARK    3  A    between atoms: C_5  and  C_6
REMARK    4  A    between atoms: C_9  and  O_10
REMARK    5  A    between atoms: O_10  and  C_11
REMARK                            x       y       z     vdW  Elec       q    Type
REMARK                         _______ _______ _______ _____ _____    ______ ____
ROOT
ATOM      1  N   UNL     1       2.357   4.760  20.026  0.00  0.00    +0.000 NA
ATOM      2  C   UNL     1       2.594   5.912  20.561  0.00  0.00    +0.000 C 
ENDROOT
BRANCH   2   3
ATOM      3  C   UNL     1       2.043   7.145  19.964  0.00  0.00    +0.000 A 
ATOM      4  C   UNL     1       1.273   8.035  20.724  0.00  0.00    +0.000 A 
ATOM      5  C   UNL     1       0.784   9.204  20.140  0.00  0.00    +0.000 A 
ATOM      6  C   UNL     1       1.068   9.489  18.802  0.00  0.00    +0.000 A 
ATOM      7  C   UNL     1       1.786   8.567  18.033  0.00  0.00    +0.000 A 
ATOM      8  C   UNL     1       2.303   7.410  18.620  0.00  0.00    +0.000 A 
BRANCH   6   9
ATOM      9  O   UNL     1       0.556  10.668  18.314  0.00  0.00    +0.000 OA
BRANCH   9  10
ATOM     10  C   UNL     1      -0.808  10.833  18.213  0.00  0.00    +0.000 A 
ATOM     11  C   UNL     1      -1.362  11.837  19.011  0.00  0.00    +0.000 A 
ATOM     12  C   UNL     1      -2.737  12.076  18.984  0.00  0.00    +0.000 A 
ATOM     13  C   UNL     1      -3.563  11.311  18.161  0.00  0.00    +0.000 A 
ATOM     14  C   UNL     1      -3.010  10.333  17.338  0.00  0.00    +0.000 A 
ATOM     15  C   UNL     1      -1.631  10.114  17.341  0.00  0.00    +0.000 A 
ENDBRANCH   9  10
ENDBRANCH   6   9
ENDBRANCH   2   3
BRANCH   1  18
ATOM     16  O   UNL     1       4.266   1.897  20.720  0.00  0.00    +0.000 OA
ATOM     17  C   UNL     1       3.956   2.951  20.159  0.00  0.00    +0.000 C 
ATOM     18  N   UNL     1       2.879   3.676  20.669  0.00  0.00    +0.000 N 
ATOM     19  H   UNL     1       2.380   3.234  21.434  0.00  0.00    +0.000 HD
BRANCH  17  20
ATOM     20  C   UNL     1       4.626   3.504  18.991  0.00  0.00    +0.000 A 
ATOM     21  N   UNL     1       5.797   4.119  19.002  0.00  0.00    +0.000 NA
ATOM     22  C   UNL     1       6.079   4.402  17.686  0.00  0.00    +0.000 A 
ATOM     23  C   UNL     1       7.221   4.983  17.117  0.00  0.00    +0.000 A 
ATOM     24  C   UNL     1       7.255   5.179  15.729  0.00  0.00    +0.000 A 
ATOM     25  C   UNL     1       6.173   4.807  14.926  0.00  0.00    +0.000 A 
ATOM     26  C   UNL     1       5.036   4.204  15.472  0.00  0.00    +0.000 A 
ATOM     27  C   UNL     1       5.035   4.015  16.857  0.00  0.00    +0.000 A 
ATOM     28  N   UNL     1       4.136   3.442  17.705  0.00  0.00    +0.000 N 
ATOM     29  H   UNL     1       3.282   2.957  17.464  0.00  0.00    +0.000 HD
ENDBRANCH  17  20
ENDBRANCH   1  18
TORSDOF 5
ENDMDL
MODEL 4
REMARK VINA RESULT:      -8.1      0.204      1.735
REMARK  Name = 
REMARK  5 active torsions:
REMARK  status: ('A' for Active; 'I' for Inactive)
REMARK    1  A    between atoms: C_2  and  C_19
REMARK    2  A    between atoms: N_3  and  N_4
REMARK    3  A    between atoms: C_5  and  C_6
REMARK    4  A    between atoms: C_9  and  O_10
REMARK    5  A    between atoms: O_10  and  C_11
REMARK                            x       y       z     vdW  Elec       q    Type
REMARK                         _______ _______ _______ _____ _____    ______ ____
ROOT
ATOM      1  N   UNL     1       2.692   4.791  19.815  0.00  0.00    +0.000 NA
ATOM      2  C   UNL     1       2.614   5.843  20.562  0.00  0.00    +0.000 C 
ENDROOT
BRANCH   2   3
ATOM      3  C   UNL     1       2.073   7.107  20.025  0.00  0.00    +0.000 A 
ATOM      4  C   UNL     1       1.293   7.955  20.822  0.00  0.00    +0.000 A 
ATOM      5  C   UNL     1       0.813   9.155  20.295  0.00  0.00    +0.000 A 
ATOM      6  C   UNL     1       1.115   9.511  18.978  0.00  0.00    +0.000 A 
ATOM      7  C   UNL     1       1.842   8.630  18.170  0.00  0.00    +0.000 A 
ATOM      8  C   UNL     1       2.350   7.443  18.700  0.00  0.00    +0.000 A 
BRANCH   6   9
ATOM      9  O   UNL     1       0.609  10.716  18.547  0.00  0.00    +0.000 OA
BRANCH   9  10
ATOM     10  C   UNL     1      -0.750  10.871  18.387  0.00  0.00    +0.000 A 
ATOM     11  C   UNL     1      -1.341  11.885  19.143  0.00  0.00    +0.000 A 
ATOM     12  C   UNL     1      -2.715  12.116  19.055  0.00  0.00    +0.000 A 
ATOM     13  C   UNL     1      -3.502  11.332  18.213  0.00  0.00    +0.000 A 
ATOM     14  C   UNL     1      -2.911  10.342  17.431  0.00  0.00    +0.000 A 
ATOM     15  C   UNL     1      -1.533  10.131  17.495  0.00  0.00    +0.000 A 
ENDBRANCH   9  10
ENDBRANCH   6   9
ENDBRANCH   2   3
BRANCH   1  18
ATOM     16  O   UNL     1       4.427   1.785  20.349  0.00  0.00    +0.000 OA
ATOM     17  C   UNL     1       4.159   2.868  19.821  0.00  0.00    +0.000 C 
ATOM     18  N   UNL     1       3.175   3.661  20.409  0.00  0.00    +0.000 N 
ATOM     19  H   UNL     1       2.696   3.245  21.201  0.00  0.00    +0.000 HD
BRANCH  17  20
ATOM     20  C   UNL     1       4.789   3.389  18.617  0.00  0.00    +0.000 A 
ATOM     21  N   UNL     1       4.340   3.217  17.385  0.00  0.00    +0.000 NA
ATOM     22  C   UNL     1       5.190   3.936  16.577  0.00  0.00    +0.000 A 
ATOM     23  C   UNL     1       5.140   4.158  15.194  0.00  0.00    +0.000 A 
ATOM     24  C   UNL     1       6.151   4.927  14.600  0.00  0.00    +0.000 A 
ATOM     25  C   UNL     1       7.191   5.460  15.367  0.00  0.00    +0.000 A 
ATOM     26  C   UNL     1       7.245   5.268  16.751  0.00  0.00    +0.000 A 
ATOM     27  C   UNL     1       6.219   4.504  17.314  0.00  0.00    +0.000 A 
ATOM     28  N   UNL     1       5.936   4.152  18.600  0.00  0.00    +0.000 N 
ATOM     29  H   UNL     1       6.408   4.454  19.442  0.00  0.00    +0.000 HD
ENDBRANCH  17  20
ENDBRANCH   1  18
TORSDOF 5
ENDMDL
MODEL 5
REMARK VINA RESULT:      -8.1      1.420      1.901
REMARK  Name = 
REMARK  5 active torsions:
REMARK  status: ('A' for Active; 'I' for Inactive)
REMARK    1  A    between atoms: C_2  and  C_19
REMARK    2  A    between atoms: N_3  and  N_4
REMARK    3  A    between atoms: C_5  and  C_6
REMARK    4  A    between atoms: C_9  and  O_10
REMARK    5  A    between atoms: O_10  and  C_11
REMARK                            x       y       z     vdW  Elec       q    Type
REMARK                         _______ _______ _______ _____ _____    ______ ____
ROOT
ATOM      1  N   UNL     1       2.075   4.803  19.011  0.00  0.00    +0.000 NA
ATOM      2  C   UNL     1       2.332   5.665  19.940  0.00  0.00    +0.000 C 
ENDROOT
BRANCH   2   3
ATOM      3  C   UNL     1       1.899   7.070  19.802  0.00  0.00    +0.000 A 
ATOM      4  C   UNL     1       2.142   7.787  18.623  0.00  0.00    +0.000 A 
ATOM      5  C   UNL     1       1.702   9.107  18.511  0.00  0.00    +0.000 A 
ATOM      6  C   UNL     1       1.016   9.708  19.570  0.00  0.00    +0.000 A 
ATOM      7  C   UNL     1       0.831   9.005  20.765  0.00  0.00    +0.000 A 
ATOM      8  C   UNL     1       1.243   7.675  20.872  0.00  0.00    +0.000 A 
BRANCH   6   9
ATOM      9  O   UNL     1       0.609  11.006  19.366  0.00  0.00    +0.000 OA
BRANCH   9  10
ATOM     10  C   UNL     1      -0.721  11.280  19.139  0.00  0.00    +0.000 A 
ATOM     11  C   UNL     1      -1.350  12.087  20.089  0.00  0.00    +0.000 A 
ATOM     12  C   UNL     1      -2.700  12.415  19.950  0.00  0.00    +0.000 A 
ATOM     13  C   UNL     1      -3.425  11.935  18.860  0.00  0.00    +0.000 A 
ATOM     14  C   UNL     1      -2.793  11.159  17.891  0.00  0.00    +0.000 A 
ATOM     15  C   UNL     1      -1.436  10.856  18.014  0.00  0.00    +0.000 A 
ENDBRANCH   9  10
ENDBRANCH   6   9
ENDBRANCH   2   3
BRANCH   1  18
ATOM     16  O   UNL     1       4.071   1.920  19.177  0.00  0.00    +0.000 OA
ATOM     17  C   UNL     1       3.813   3.124  19.099  0.00  0.00    +0.000 C 
ATOM     18  N   UNL     1       2.485   3.523  19.244  0.00  0.00    +0.000 N 
ATOM     19  H   UNL     1       1.811   2.769  19.335  0.00  0.00    +0.000 HD
BRANCH  17  20
ATOM     20  C   UNL     1       4.791   4.174  18.857  0.00  0.00    +0.000 A 
ATOM     21  N   UNL     1       5.888   4.374  19.569  0.00  0.00    +0.000 NA
ATOM     22  C   UNL     1       6.550   5.408  18.948  0.00  0.00    +0.000 A 
ATOM     23  C   UNL     1       7.795   5.981  19.239  0.00  0.00    +0.000 A 
ATOM     24  C   UNL     1       8.244   7.050  18.451  0.00  0.00    +0.000 A 
ATOM     25  C   UNL     1       7.467   7.541  17.399  0.00  0.00    +0.000 A 
ATOM     26  C   UNL     1       6.233   6.967  17.078  0.00  0.00    +0.000 A 
ATOM     27  C   UNL     1       5.816   5.898  17.876  0.00  0.00    +0.000 A 
ATOM     28  N   UNL     1       4.716   5.094  17.835  0.00  0.00    +0.000 N 
ATOM     29  H   UNL     1       3.988   5.080  17.134  0.00  0.00    +0.000 HD
ENDBRANCH  17  20
ENDBRANCH   1  18
TORSDOF 5
ENDMDL
MODEL 6
REMARK VINA RESULT:      -8.1      1.327      2.117
REMARK  Name = 
REMARK  5 active torsions:
REMARK  status: ('A' for Active; 'I' for Inactive)
REMARK    1  A    between atoms: C_2  and  C_19
REMARK    2  A    between atoms: N_3  and  N_4
REMARK    3  A    between atoms: C_5  and  C_6
REMARK    4  A    between atoms: C_9  and  O_10
REMARK    5  A    between atoms: O_10  and  C_11
REMARK                            x       y       z     vdW  Elec       q    Type
REMARK                         _______ _______ _______ _____ _____    ______ ____
ROOT
ATOM      1  N   UNL     1       2.032   4.398  18.589  0.00  0.00    +0.000 NA
ATOM      2  C   UNL     1       2.384   5.164  19.569  0.00  0.00    +0.000 C 
ENDROOT
BRANCH   2   3
ATOM      3  C   UNL     1       2.026   6.596  19.569  0.00  0.00    +0.000 A 
ATOM      4  C   UNL     1       2.261   7.399  18.446  0.00  0.00    +0.000 A 
ATOM      5  C   UNL     1       1.891   8.745  18.465  0.00  0.00    +0.000 A 
ATOM      6  C   UNL     1       1.284   9.287  19.601  0.00  0.00    +0.000 A 
ATOM      7  C   UNL     1       1.109   8.494  20.740  0.00  0.00    +0.000 A 
ATOM      8  C   UNL     1       1.449   7.140  20.716  0.00  0.00    +0.000 A 
BRANCH   6   9
ATOM      9  O   UNL     1       0.944  10.618  19.526  0.00  0.00    +0.000 OA
BRANCH   9  10
ATOM     10  C   UNL     1      -0.360  10.978  19.266  0.00  0.00    +0.000 A 
ATOM     11  C   UNL     1      -0.905  11.947  20.111  0.00  0.00    +0.000 A 
ATOM     12  C   UNL     1      -2.223  12.374  19.931  0.00  0.00    +0.000 A 
ATOM     13  C   UNL     1      -2.999  11.830  18.909  0.00  0.00    +0.000 A 
ATOM     14  C   UNL     1      -2.447  10.889  18.042  0.00  0.00    +0.000 A 
ATOM     15  C   UNL     1      -1.121  10.485  18.201  0.00  0.00    +0.000 A 
ENDBRANCH   9  10
ENDBRANCH   6   9
ENDBRANCH   2   3
BRANCH   1  18
ATOM     16  O   UNL     1       3.875   1.414  18.435  0.00  0.00    +0.000 OA
ATOM     17  C   UNL     1       3.680   2.632  18.472  0.00  0.00    +0.000 C 
ATOM     18  N   UNL     1       2.379   3.083  18.694  0.00  0.00    +0.000 N 
ATOM     19  H   UNL     1       1.669   2.359  18.738  0.00  0.00    +0.000 HD
BRANCH  17  20
ATOM     20  C   UNL     1       4.706   3.648  18.294  0.00  0.00    +0.000 A 
ATOM     21  N   UNL     1       4.845   4.414  17.224  0.00  0.00    +0.000 NA
ATOM     22  C   UNL     1       5.880   5.273  17.515  0.00  0.00    +0.000 A 
ATOM     23  C   UNL     1       6.402   6.336  16.765  0.00  0.00    +0.000 A 
ATOM     24  C   UNL     1       7.484   7.058  17.287  0.00  0.00    +0.000 A 
ATOM     25  C   UNL     1       8.037   6.726  18.528  0.00  0.00    +0.000 A 
ATOM     26  C   UNL     1       7.515   5.684  19.300  0.00  0.00    +0.000 A 
ATOM     27  C   UNL     1       6.431   4.988  18.756  0.00  0.00    +0.000 A 
ATOM     28  N   UNL     1       5.665   3.966  19.231  0.00  0.00    +0.000 N 
ATOM     29  H   UNL     1       5.699   3.543  20.148  0.00  0.00    +0.000 HD
ENDBRANCH  17  20
ENDBRANCH   1  18
TORSDOF 5
ENDMDL
MODEL 7
REMARK VINA RESULT:      -8.0      1.314      2.104
REMARK  Name = 
REMARK  5 active torsions:
REMARK  status: ('A' for Active; 'I' for Inactive)
REMARK    1  A    between atoms: C_2  and  C_19
REMARK    2  A    between atoms: N_3  and  N_4
REMARK    3  A    between atoms: C_5  and  C_6
REMARK    4  A    between atoms: C_9  and  O_10
REMARK    5  A    between atoms: O_10  and  C_11
REMARK                            x       y       z     vdW  Elec       q    Type
REMARK                         _______ _______ _______ _____ _____    ______ ____
ROOT
ATOM      1  N   UNL     1       2.041   4.428  18.698  0.00  0.00    +0.000 NA
ATOM      2  C   UNL     1       2.378   5.226  19.657  0.00  0.00    +0.000 C 
ENDROOT
BRANCH   2   3
ATOM      3  C   UNL     1       2.011   6.655  19.609  0.00  0.00    +0.000 A 
ATOM      4  C   UNL     1       1.404   7.283  20.704  0.00  0.00    +0.000 A 
ATOM      5  C   UNL     1       1.089   8.641  20.639  0.00  0.00    +0.000 A 
ATOM      6  C   UNL     1       1.383   9.373  19.486  0.00  0.00    +0.000 A 
ATOM      7  C   UNL     1       1.934   8.725  18.375  0.00  0.00    +0.000 A 
ATOM      8  C   UNL     1       2.279   7.374  18.445  0.00  0.00    +0.000 A 
BRANCH   6   9
ATOM      9  O   UNL     1       1.048  10.706  19.516  0.00  0.00    +0.000 OA
BRANCH   9  10
ATOM     10  C   UNL     1      -0.265  11.087  19.343  0.00  0.00    +0.000 A 
ATOM     11  C   UNL     1      -0.922  10.530  18.244  0.00  0.00    +0.000 A 
ATOM     12  C   UNL     1      -2.253  10.860  17.981  0.00  0.00    +0.000 A 
ATOM     13  C   UNL     1      -2.929  11.750  18.815  0.00  0.00    +0.000 A 
ATOM     14  C   UNL     1      -2.288  12.280  19.932  0.00  0.00    +0.000 A 
ATOM     15  C   UNL     1      -0.967  11.927  20.213  0.00  0.00    +0.000 A 
ENDBRANCH   9  10
ENDBRANCH   6   9
ENDBRANCH   2   3
BRANCH   1  18
ATOM     16  O   UNL     1       3.898   1.449  18.638  0.00  0.00    +0.000 OA
ATOM     17  C   UNL     1       3.697   2.666  18.633  0.00  0.00    +0.000 C 
ATOM     18  N   UNL     1       2.396   3.119  18.848  0.00  0.00    +0.000 N 
ATOM     19  H   UNL     1       1.689   2.394  18.923  0.00  0.00    +0.000 HD
BRANCH  17  20
ATOM     20  C   UNL     1       4.717   3.680  18.412  0.00  0.00    +0.000 A 
ATOM     21  N   UNL     1       4.816   4.440  17.333  0.00  0.00    +0.000 NA
ATOM     22  C   UNL     1       5.862   5.299  17.581  0.00  0.00    +0.000 A 
ATOM     23  C   UNL     1       6.357   6.358  16.807  0.00  0.00    +0.000 A 
ATOM     24  C   UNL     1       7.459   7.081  17.284  0.00  0.00    +0.000 A 
ATOM     25  C   UNL     1       8.058   6.754  18.504  0.00  0.00    +0.000 A 
ATOM     26  C   UNL     1       7.564   5.717  19.301  0.00  0.00    +0.000 A 
ATOM     27  C   UNL     1       6.460   5.020  18.802  0.00  0.00    +0.000 A 
ATOM     28  N   UNL     1       5.710   4.001  19.310  0.00  0.00    +0.000 N 
ATOM     29  H   UNL     1       5.779   3.583  20.228  0.00  0.00    +0.000 HD
ENDBRANCH  17  20
ENDBRANCH   1  18
TORSDOF 5
ENDMDL
MODEL 8
REMARK VINA RESULT:      -7.9      1.785      2.637
REMARK  Name = 
REMARK  5 active torsions:
REMARK  status: ('A' for Active; 'I' for Inactive)
REMARK    1  A    between atoms: C_2  and  C_19
REMARK    2  A    between atoms: N_3  and  N_4
REMARK    3  A    between atoms: C_5  and  C_6
REMARK    4  A    between atoms: C_9  and  O_10
REMARK    5  A    between atoms: O_10  and  C_11
REMARK                            x       y       z     vdW  Elec       q    Type
REMARK                         _______ _______ _______ _____ _____    ______ ____
ROOT
ATOM      1  N   UNL     1       2.402   4.845  19.788  0.00  0.00    +0.000 NA
ATOM      2  C   UNL     1       2.608   5.963  20.403  0.00  0.00    +0.000 C 
ENDROOT
BRANCH   2   3
ATOM      3  C   UNL     1       2.095   7.231  19.848  0.00  0.00    +0.000 A 
ATOM      4  C   UNL     1       1.376   8.130  20.646  0.00  0.00    +0.000 A 
ATOM      5  C   UNL     1       0.923   9.333  20.102  0.00  0.00    +0.000 A 
ATOM      6  C   UNL     1       1.191   9.640  18.765  0.00  0.00    +0.000 A 
ATOM      7  C   UNL     1       1.857   8.710  17.959  0.00  0.00    +0.000 A 
ATOM      8  C   UNL     1       2.338   7.519  18.506  0.00  0.00    +0.000 A 
BRANCH   6   9
ATOM      9  O   UNL     1       0.717  10.851  18.317  0.00  0.00    +0.000 OA
BRANCH   9  10
ATOM     10  C   UNL     1       1.293  12.020  18.762  0.00  0.00    +0.000 A 
ATOM     11  C   UNL     1       2.469  12.405  18.115  0.00  0.00    +0.000 A 
ATOM     12  C   UNL     1       3.132  13.573  18.499  0.00  0.00    +0.000 A 
ATOM     13  C   UNL     1       2.622  14.356  19.534  0.00  0.00    +0.000 A 
ATOM     14  C   UNL     1       1.430  13.994  20.158  0.00  0.00    +0.000 A 
ATOM     15  C   UNL     1       0.750  12.845  19.753  0.00  0.00    +0.000 A 
ENDBRANCH   9  10
ENDBRANCH   6   9
ENDBRANCH   2   3
BRANCH   1  18
ATOM     16  O   UNL     1       4.207   1.895  20.390  0.00  0.00    +0.000 OA
ATOM     17  C   UNL     1       3.936   2.977  19.864  0.00  0.00    +0.000 C 
ATOM     18  N   UNL     1       2.884   3.722  20.395  0.00  0.00    +0.000 N 
ATOM     19  H   UNL     1       2.368   3.273  21.145  0.00  0.00    +0.000 HD
BRANCH  17  20
ATOM     20  C   UNL     1       4.628   3.544  18.715  0.00  0.00    +0.000 A 
ATOM     21  N   UNL     1       5.801   4.154  18.755  0.00  0.00    +0.000 NA
ATOM     22  C   UNL     1       6.107   4.454  17.448  0.00  0.00    +0.000 A 
ATOM     23  C   UNL     1       7.261   5.039  16.907  0.00  0.00    +0.000 A 
ATOM     24  C   UNL     1       7.319   5.255  15.524  0.00  0.00    +0.000 A 
ATOM     25  C   UNL     1       6.250   4.900  14.697  0.00  0.00    +0.000 A 
ATOM     26  C   UNL     1       5.100   4.295  15.214  0.00  0.00    +0.000 A 
ATOM     27  C   UNL     1       5.075   4.085  16.596  0.00  0.00    +0.000 A 
ATOM     28  N   UNL     1       4.159   3.504  17.421  0.00  0.00    +0.000 N 
ATOM     29  H   UNL     1       3.308   3.027  17.158  0.00  0.00    +0.000 HD
ENDBRANCH  17  20
ENDBRANCH   1  18
TORSDOF 5
ENDMDL
MODEL 9
REMARK VINA RESULT:      -7.9      2.319      3.227
REMARK  Name = 
REMARK  5 active torsions:
REMARK  status: ('A' for Active; 'I' for Inactive)
REMARK    1  A    between atoms: C_2  and  C_19
REMARK    2  A    between atoms: N_3  and  N_4
REMARK    3  A    between atoms: C_5  and  C_6
REMARK    4  A    between atoms: C_9  and  O_10
REMARK    5  A    between atoms: O_10  and  C_11
REMARK                            x       y       z     vdW  Elec       q    Type
REMARK                         _______ _______ _______ _____ _____    ______ ____
ROOT
ATOM      1  N   UNL     1       2.127   4.871  19.338  0.00  0.00    +0.000 NA
ATOM      2  C   UNL     1       2.340   5.810  20.201  0.00  0.00    +0.000 C 
ENDROOT
BRANCH   2   3
ATOM      3  C   UNL     1       1.869   7.186  19.946  0.00  0.00    +0.000 A 
ATOM      4  C   UNL     1       1.208   7.919  20.940  0.00  0.00    +0.000 A 
ATOM      5  C   UNL     1       0.793   9.226  20.678  0.00  0.00    +0.000 A 
ATOM      6  C   UNL     1       1.042   9.802  19.430  0.00  0.00    +0.000 A 
ATOM      7  C   UNL     1       1.649   9.043  18.423  0.00  0.00    +0.000 A 
ATOM      8  C   UNL     1       2.092   7.746  18.688  0.00  0.00    +0.000 A 
BRANCH   6   9
ATOM      9  O   UNL     1       0.609  11.097  19.266  0.00  0.00    +0.000 OA
BRANCH   9  10
ATOM     10  C   UNL     1       1.488  12.142  19.448  0.00  0.00    +0.000 A 
ATOM     11  C   UNL     1       2.141  12.597  18.300  0.00  0.00    +0.000 A 
ATOM     12  C   UNL     1       3.056  13.649  18.384  0.00  0.00    +0.000 A 
ATOM     13  C   UNL     1       3.322  14.246  19.615  0.00  0.00    +0.000 A 
ATOM     14  C   UNL     1       2.647  13.818  20.756  0.00  0.00    +0.000 A 
ATOM     15  C   UNL     1       1.709  12.788  20.669  0.00  0.00    +0.000 A 
ENDBRANCH   9  10
ENDBRANCH   6   9
ENDBRANCH   2   3
BRANCH   1  18
ATOM     16  O   UNL     1       4.183   2.050  19.704  0.00  0.00    +0.000 OA
ATOM     17  C   UNL     1       3.899   3.236  19.520  0.00  0.00    +0.000 C 
ATOM     18  N   UNL     1       2.570   3.626  19.678  0.00  0.00    +0.000 N 
ATOM     19  H   UNL     1       1.915   2.874  19.866  0.00  0.00    +0.000 HD
BRANCH  17  20
ATOM     20  C   UNL     1       4.847   4.273  19.140  0.00  0.00    +0.000 A 
ATOM     21  N   UNL     1       5.970   4.553  19.782  0.00  0.00    +0.000 NA
ATOM     22  C   UNL     1       6.585   5.534  19.040  0.00  0.00    +0.000 A 
ATOM     23  C   UNL     1       7.832   6.149  19.223  0.00  0.00    +0.000 A 
ATOM     24  C   UNL     1       8.227   7.148  18.322  0.00  0.00    +0.000 A 
ATOM     25  C   UNL     1       7.397   7.529  17.264  0.00  0.00    +0.000 A 
ATOM     26  C   UNL     1       6.160   6.911  17.052  0.00  0.00    +0.000 A 
ATOM     27  C   UNL     1       5.798   5.914  17.962  0.00  0.00    +0.000 A 
ATOM     28  N   UNL     1       4.712   5.094  18.043  0.00  0.00    +0.000 N 
ATOM     29  H   UNL     1       3.955   5.006  17.379  0.00  0.00    +0.000 HD
ENDBRANCH  17  20
ENDBRANCH   1  18
TORSDOF 5
ENDMDL
