MODEL 1
REMARK VINA RESULT:      -7.5      0.000      0.000
REMARK  Name = 
REMARK  7 active torsions:
REMARK  status: ('A' for Active; 'I' for Inactive)
REMARK    1  A    between atoms: C_1  and  O_2
REMARK    2  A    between atoms: O_2  and  C_3
REMARK    3  A    between atoms: C_5  and  C_6
REMARK    4  A    between atoms: C_7  and  C_8
REMARK    5  A    between atoms: C_8  and  C_10
REMARK    6  A    between atoms: C_16  and  O_17
REMARK    7  A    between atoms: C_20  and  O_21
REMARK                            x       y       z     vdW  Elec       q    Type
REMARK                         _______ _______ _______ _____ _____    ______ ____
ROOT
ATOM      1  C   UNL     1       7.951   9.056  17.602  0.00  0.00    +0.000 C 
ATOM      2  C   UNL     1       7.932   7.766  17.975  0.00  0.00    +0.000 C 
ENDROOT
BRANCH   1   5
ATOM      3  C   UNL     1       9.661  12.348  18.460  0.00  0.00    +0.000 A 
ATOM      4  C   UNL     1       8.970  11.336  17.763  0.00  0.00    +0.000 A 
ATOM      5  C   UNL     1       8.682  10.095  18.356  0.00  0.00    +0.000 A 
ATOM      6  C   UNL     1       9.084   9.889  19.682  0.00  0.00    +0.000 A 
ATOM      7  C   UNL     1       9.772  10.878  20.384  0.00  0.00    +0.000 A 
ATOM      8  C   UNL     1      10.064  12.100  19.778  0.00  0.00    +0.000 A 
BRANCH   3  10
ATOM      9  C   UNL     1      11.101  13.643  17.050  0.00  0.00    +0.000 C 
ATOM     10  O   UNL     1       9.857  13.488  17.723  0.00  0.00    +0.000 OA
ENDBRANCH   3  10
BRANCH   8  11
ATOM     11  O   UNL     1      10.744  13.030  20.513  0.00  0.00    +0.000 OA
ATOM     12  H   UNL     1      10.433  13.005  21.432  0.00  0.00    +0.000 HD
ENDBRANCH   8  11
ENDBRANCH   1   5
BRANCH   2  13
ATOM     13  C   UNL     1       7.250   6.706  17.184  0.00  0.00    +0.000 C 
ATOM     14  O   UNL     1       7.699   6.298  16.121  0.00  0.00    +0.000 OA
BRANCH  13  15
ATOM     15  C   UNL     1       5.945   6.191  17.705  0.00  0.00    +0.000 A 
ATOM     16  C   UNL     1       4.798   6.982  17.515  0.00  0.00    +0.000 A 
ATOM     17  C   UNL     1       3.545   6.534  17.947  0.00  0.00    +0.000 A 
ATOM     18  C   UNL     1       3.426   5.290  18.561  0.00  0.00    +0.000 A 
ATOM     19 CL   UNL     1       1.886   4.725  19.075  0.00  0.00    +0.000 Cl
ATOM     20  C   UNL     1       4.550   4.491  18.761  0.00  0.00    +0.000 A 
ATOM     21  C   UNL     1       5.801   4.942  18.335  0.00  0.00    +0.000 A 
BRANCH  21  22
ATOM     22  O   UNL     1       6.884   4.127  18.523  0.00  0.00    +0.000 OA
ATOM     23  H   UNL     1       7.478   4.174  17.756  0.00  0.00    +0.000 HD
ENDBRANCH  21  22
ENDBRANCH  13  15
ENDBRANCH   2  13
TORSDOF 6
ENDMDL
MODEL 2
REMARK VINA RESULT:      -7.4      5.776      8.627
REMARK  Name = 
REMARK  7 active torsions:
REMARK  status: ('A' for Active; 'I' for Inactive)
REMARK    1  A    between atoms: C_1  and  O_2
REMARK    2  A    between atoms: O_2  and  C_3
REMARK    3  A    between atoms: C_5  and  C_6
REMARK    4  A    between atoms: C_7  and  C_8
REMARK    5  A    between atoms: C_8  and  C_10
REMARK    6  A    between atoms: C_16  and  O_17
REMARK    7  A    between atoms: C_20  and  O_21
REMARK                            x       y       z     vdW  Elec       q    Type
REMARK                         _______ _______ _______ _____ _____    ______ ____
ROOT
ATOM      1  C   UNL     1       1.837   6.518  18.081  0.00  0.00    +0.000 C 
ATOM      2  C   UNL     1       2.560   7.647  18.160  0.00  0.00    +0.000 C 
ENDROOT
BRANCH   1   5
ATOM      3  C   UNL     1       4.352   3.716  18.647  0.00  0.00    +0.000 A 
ATOM      4  C   UNL     1       3.745   4.988  18.611  0.00  0.00    +0.000 A 
ATOM      5  C   UNL     1       2.449   5.174  18.100  0.00  0.00    +0.000 A 
ATOM      6  C   UNL     1       1.754   4.049  17.640  0.00  0.00    +0.000 A 
ATOM      7  C   UNL     1       2.341   2.784  17.665  0.00  0.00    +0.000 A 
ATOM      8  C   UNL     1       3.634   2.616  18.162  0.00  0.00    +0.000 A 
BRANCH   3  10
ATOM      9  C   UNL     1       6.409   4.895  18.992  0.00  0.00    +0.000 C 
ATOM     10  O   UNL     1       5.618   3.726  19.175  0.00  0.00    +0.000 OA
ENDBRANCH   3  10
BRANCH   8  11
ATOM     11  O   UNL     1       4.160   1.355  18.158  0.00  0.00    +0.000 OA
ATOM     12  H   UNL     1       4.207   1.022  19.068  0.00  0.00    +0.000 HD
ENDBRANCH   8  11
ENDBRANCH   1   5
BRANCH   2  13
ATOM     13  C   UNL     1       1.944   9.000  18.207  0.00  0.00    +0.000 C 
ATOM     14  O   UNL     1       2.126   9.828  17.324  0.00  0.00    +0.000 OA
BRANCH  13  15
ATOM     15  C   UNL     1       1.132   9.346  19.416  0.00  0.00    +0.000 A 
ATOM     16  C   UNL     1       1.367   8.623  20.599  0.00  0.00    +0.000 A 
ATOM     17  C   UNL     1       0.665   8.928  21.771  0.00  0.00    +0.000 A 
ATOM     18  C   UNL     1      -0.268   9.962  21.773  0.00  0.00    +0.000 A 
ATOM     19 CL   UNL     1      -1.118  10.355  23.214  0.00  0.00    +0.000 Cl
ATOM     20  C   UNL     1      -0.517  10.689  20.610  0.00  0.00    +0.000 A 
ATOM     21  C   UNL     1       0.180  10.381  19.440  0.00  0.00    +0.000 A 
BRANCH  21  22
ATOM     22  O   UNL     1      -0.068  11.126  18.320  0.00  0.00    +0.000 OA
ATOM     23  H   UNL     1       0.572  10.909  17.622  0.00  0.00    +0.000 HD
ENDBRANCH  21  22
ENDBRANCH  13  15
ENDBRANCH   2  13
TORSDOF 6
ENDMDL
MODEL 3
REMARK VINA RESULT:      -7.4      6.559      9.346
REMARK  Name = 
REMARK  7 active torsions:
REMARK  status: ('A' for Active; 'I' for Inactive)
REMARK    1  A    between atoms: C_1  and  O_2
REMARK    2  A    between atoms: O_2  and  C_3
REMARK    3  A    between atoms: C_5  and  C_6
REMARK    4  A    between atoms: C_7  and  C_8
REMARK    5  A    between atoms: C_8  and  C_10
REMARK    6  A    between atoms: C_16  and  O_17
REMARK    7  A    between atoms: C_20  and  O_21
REMARK                            x       y       z     vdW  Elec       q    Type
REMARK                         _______ _______ _______ _____ _____    ______ ____
ROOT
ATOM      1  C   UNL     1       2.292   6.366  17.758  0.00  0.00    +0.000 C 
ATOM      2  C   UNL     1       2.346   7.288  18.732  0.00  0.00    +0.000 C 
ENDROOT
BRANCH   1   5
ATOM      3  C   UNL     1       2.373   2.814  19.127  0.00  0.00    +0.000 A 
ATOM      4  C   UNL     1       2.020   4.161  18.911  0.00  0.00    +0.000 A 
ATOM      5  C   UNL     1       2.689   4.959  17.966  0.00  0.00    +0.000 A 
ATOM      6  C   UNL     1       3.715   4.370  17.217  0.00  0.00    +0.000 A 
ATOM      7  C   UNL     1       4.080   3.040  17.421  0.00  0.00    +0.000 A 
ATOM      8  C   UNL     1       3.417   2.264  18.372  0.00  0.00    +0.000 A 
BRANCH   3  10
ATOM      9  C   UNL     1       1.777   2.614  21.438  0.00  0.00    +0.000 C 
ATOM     10  O   UNL     1       1.616   2.194  20.088  0.00  0.00    +0.000 OA
ENDBRANCH   3  10
BRANCH   8  11
ATOM     11  O   UNL     1       3.820   0.969  18.532  0.00  0.00    +0.000 OA
ATOM     12  H   UNL     1       4.002   0.801  19.471  0.00  0.00    +0.000 HD
ENDBRANCH   8  11
ENDBRANCH   1   5
BRANCH   2  13
ATOM     13  C   UNL     1       1.887   8.691  18.544  0.00  0.00    +0.000 C 
ATOM     14  O   UNL     1       2.208   9.355  17.568  0.00  0.00    +0.000 OA
BRANCH  13  15
ATOM     15  C   UNL     1       1.058   9.295  19.635  0.00  0.00    +0.000 A 
ATOM     16  C   UNL     1       1.131   8.721  20.916  0.00  0.00    +0.000 A 
ATOM     17  C   UNL     1       0.408   9.267  21.983  0.00  0.00    +0.000 A 
ATOM     18  C   UNL     1      -0.383  10.396  21.781  0.00  0.00    +0.000 A 
ATOM     19 CL   UNL     1      -1.256  11.084  23.092  0.00  0.00    +0.000 Cl
ATOM     20  C   UNL     1      -0.469  10.979  20.518  0.00  0.00    +0.000 A 
ATOM     21  C   UNL     1       0.248  10.430  19.453  0.00  0.00    +0.000 A 
BRANCH  21  22
ATOM     22  O   UNL     1       0.162  11.037  18.230  0.00  0.00    +0.000 OA
ATOM     23  H   UNL     1       0.066  11.998  18.339  0.00  0.00    +0.000 HD
ENDBRANCH  21  22
ENDBRANCH  13  15
ENDBRANCH   2  13
TORSDOF 6
ENDMDL
MODEL 4
REMARK VINA RESULT:      -7.3      6.059      9.055
REMARK  Name = 
REMARK  7 active torsions:
REMARK  status: ('A' for Active; 'I' for Inactive)
REMARK    1  A    between atoms: C_1  and  O_2
REMARK    2  A    between atoms: O_2  and  C_3
REMARK    3  A    between atoms: C_5  and  C_6
REMARK    4  A    between atoms: C_7  and  C_8
REMARK    5  A    between atoms: C_8  and  C_10
REMARK    6  A    between atoms: C_16  and  O_17
REMARK    7  A    between atoms: C_20  and  O_21
REMARK                            x       y       z     vdW  Elec       q    Type
REMARK                         _______ _______ _______ _____ _____    ______ ____
ROOT
ATOM      1  C   UNL     1       3.170   7.368  18.100  0.00  0.00    +0.000 C 
ATOM      2  C   UNL     1       1.930   7.881  18.136  0.00  0.00    +0.000 C 
ENDROOT
BRANCH   1   5
ATOM      3  C   UNL     1       2.589   3.617  17.794  0.00  0.00    +0.000 A 
ATOM      4  C   UNL     1       2.370   5.001  17.945  0.00  0.00    +0.000 A 
ATOM      5  C   UNL     1       3.432   5.922  17.945  0.00  0.00    +0.000 A 
ATOM      6  C   UNL     1       4.730   5.430  17.767  0.00  0.00    +0.000 A 
ATOM      7  C   UNL     1       4.966   4.063  17.620  0.00  0.00    +0.000 A 
ATOM      8  C   UNL     1       3.903   3.159  17.636  0.00  0.00    +0.000 A 
BRANCH   3  10
ATOM      9  C   UNL     1       0.865   2.578  19.092  0.00  0.00    +0.000 C 
ATOM     10  O   UNL     1       1.438   2.871  17.823  0.00  0.00    +0.000 OA
ENDBRANCH   3  10
BRANCH   8  11
ATOM     11  O   UNL     1       4.193   1.832  17.492  0.00  0.00    +0.000 OA
ATOM     12  H   UNL     1       5.128   1.680  17.706  0.00  0.00    +0.000 HD
ENDBRANCH   8  11
ENDBRANCH   1   5
BRANCH   2  13
ATOM     13  C   UNL     1       1.663   9.342  18.226  0.00  0.00    +0.000 C 
ATOM     14  O   UNL     1       2.120  10.138  17.417  0.00  0.00    +0.000 OA
BRANCH  13  15
ATOM     15  C   UNL     1       0.856   9.823  19.392  0.00  0.00    +0.000 A 
ATOM     16  C   UNL     1       0.987   9.140  20.614  0.00  0.00    +0.000 A 
ATOM     17  C   UNL     1       0.286   9.568  21.747  0.00  0.00    +0.000 A 
ATOM     18  C   UNL     1      -0.540  10.687  21.672  0.00  0.00    +0.000 A 
ATOM     19 CL   UNL     1      -1.387  11.230  23.066  0.00  0.00    +0.000 Cl
ATOM     20  C   UNL     1      -0.685  11.377  20.469  0.00  0.00    +0.000 A 
ATOM     21  C   UNL     1       0.009  10.945  19.338  0.00  0.00    +0.000 A 
BRANCH  21  22
ATOM     22  O   UNL     1      -0.134  11.655  18.177  0.00  0.00    +0.000 OA
ATOM     23  H   UNL     1       0.670  11.583  17.637  0.00  0.00    +0.000 HD
ENDBRANCH  21  22
ENDBRANCH  13  15
ENDBRANCH   2  13
TORSDOF 6
ENDMDL
MODEL 5
REMARK VINA RESULT:      -7.3      5.776      8.320
REMARK  Name = 
REMARK  7 active torsions:
REMARK  status: ('A' for Active; 'I' for Inactive)
REMARK    1  A    between atoms: C_1  and  O_2
REMARK    2  A    between atoms: O_2  and  C_3
REMARK    3  A    between atoms: C_5  and  C_6
REMARK    4  A    between atoms: C_7  and  C_8
REMARK    5  A    between atoms: C_8  and  C_10
REMARK    6  A    between atoms: C_16  and  O_17
REMARK    7  A    between atoms: C_20  and  O_21
REMARK                            x       y       z     vdW  Elec       q    Type
REMARK                         _______ _______ _______ _____ _____    ______ ____
ROOT
ATOM      1  C   UNL     1       2.985   7.198  18.155  0.00  0.00    +0.000 C 
ATOM      2  C   UNL     1       2.172   7.893  18.967  0.00  0.00    +0.000 C 
ENDROOT
BRANCH   1   5
ATOM      3  C   UNL     1       5.483   4.395  18.789  0.00  0.00    +0.000 A 
ATOM      4  C   UNL     1       4.924   5.642  18.442  0.00  0.00    +0.000 A 
ATOM      5  C   UNL     1       3.541   5.879  18.519  0.00  0.00    +0.000 A 
ATOM      6  C   UNL     1       2.719   4.841  18.976  0.00  0.00    +0.000 A 
ATOM      7  C   UNL     1       3.255   3.600  19.319  0.00  0.00    +0.000 A 
ATOM      8  C   UNL     1       4.629   3.374  19.224  0.00  0.00    +0.000 A 
BRANCH   3  10
ATOM      9  C   UNL     1       7.399   4.677  17.378  0.00  0.00    +0.000 C 
ATOM     10  O   UNL     1       6.846   4.345  18.647  0.00  0.00    +0.000 OA
ENDBRANCH   3  10
BRANCH   8  11
ATOM     11  O   UNL     1       5.097   2.138  19.569  0.00  0.00    +0.000 OA
ATOM     12  H   UNL     1       4.696   1.864  20.409  0.00  0.00    +0.000 HD
ENDBRANCH   8  11
ENDBRANCH   1   5
BRANCH   2  13
ATOM     13  C   UNL     1       1.558   9.192  18.578  0.00  0.00    +0.000 C 
ATOM     14  O   UNL     1       1.752   9.700  17.482  0.00  0.00    +0.000 OA
BRANCH  13  15
ATOM     15  C   UNL     1       0.734   9.899  19.609  0.00  0.00    +0.000 A 
ATOM     16  C   UNL     1       0.845   9.480  20.946  0.00  0.00    +0.000 A 
ATOM     17  C   UNL     1       0.128  10.129  21.957  0.00  0.00    +0.000 A 
ATOM     18  C   UNL     1      -0.696  11.207  21.642  0.00  0.00    +0.000 A 
ATOM     19 CL   UNL     1      -1.564  12.022  22.883  0.00  0.00    +0.000 Cl
ATOM     20  C   UNL     1      -0.822  11.636  20.323  0.00  0.00    +0.000 A 
ATOM     21  C   UNL     1      -0.110  10.984  19.314  0.00  0.00    +0.000 A 
BRANCH  21  22
ATOM     22  O   UNL     1      -0.236  11.442  18.030  0.00  0.00    +0.000 OA
ATOM     23  H   UNL     1      -1.164  11.395  17.746  0.00  0.00    +0.000 HD
ENDBRANCH  21  22
ENDBRANCH  13  15
ENDBRANCH   2  13
TORSDOF 6
ENDMDL
MODEL 6
REMARK VINA RESULT:      -7.2      0.887      1.656
REMARK  Name = 
REMARK  7 active torsions:
REMARK  status: ('A' for Active; 'I' for Inactive)
REMARK    1  A    between atoms: C_1  and  O_2
REMARK    2  A    between atoms: O_2  and  C_3
REMARK    3  A    between atoms: C_5  and  C_6
REMARK    4  A    between atoms: C_7  and  C_8
REMARK    5  A    between atoms: C_8  and  C_10
REMARK    6  A    between atoms: C_16  and  O_17
REMARK    7  A    between atoms: C_20  and  O_21
REMARK                            x       y       z     vdW  Elec       q    Type
REMARK                         _______ _______ _______ _____ _____    ______ ____
ROOT
ATOM      1  C   UNL     1       8.195   8.380  18.156  0.00  0.00    +0.000 C 
ATOM      2  C   UNL     1       7.476   7.953  17.106  0.00  0.00    +0.000 C 
ENDROOT
BRANCH   1   5
ATOM      3  C   UNL     1      10.016  11.472  19.429  0.00  0.00    +0.000 A 
ATOM      4  C   UNL     1       9.600  10.137  19.253  0.00  0.00    +0.000 A 
ATOM      5  C   UNL     1       8.606   9.789  18.322  0.00  0.00    +0.000 A 
ATOM      6  C   UNL     1       8.046  10.810  17.545  0.00  0.00    +0.000 A 
ATOM      7  C   UNL     1       8.443  12.137  17.708  0.00  0.00    +0.000 A 
ATOM      8  C   UNL     1       9.420  12.470  18.647  0.00  0.00    +0.000 A 
BRANCH   3  10
ATOM      9  C   UNL     1      12.309  11.934  19.946  0.00  0.00    +0.000 C 
ATOM     10  O   UNL     1      10.990  11.624  20.383  0.00  0.00    +0.000 OA
ENDBRANCH   3  10
BRANCH   8  11
ATOM     11  O   UNL     1       9.767  13.786  18.767  0.00  0.00    +0.000 OA
ATOM     12  H   UNL     1       9.623  14.075  19.682  0.00  0.00    +0.000 HD
ENDBRANCH   8  11
ENDBRANCH   1   5
BRANCH   2  13
ATOM     13  C   UNL     1       7.005   6.548  16.967  0.00  0.00    +0.000 C 
ATOM     14  O   UNL     1       7.566   5.744  16.235  0.00  0.00    +0.000 OA
BRANCH  13  15
ATOM     15  C   UNL     1       5.766   6.160  17.713  0.00  0.00    +0.000 A 
ATOM     16  C   UNL     1       4.618   6.955  17.547  0.00  0.00    +0.000 A 
ATOM     17  C   UNL     1       3.421   6.619  18.189  0.00  0.00    +0.000 A 
ATOM     18  C   UNL     1       3.359   5.482  18.992  0.00  0.00    +0.000 A 
ATOM     19 CL   UNL     1       1.885   5.053  19.767  0.00  0.00    +0.000 Cl
ATOM     20  C   UNL     1       4.486   4.683  19.171  0.00  0.00    +0.000 A 
ATOM     21  C   UNL     1       5.682   5.023  18.535  0.00  0.00    +0.000 A 
BRANCH  21  22
ATOM     22  O   UNL     1       6.765   4.206  18.711  0.00  0.00    +0.000 OA
ATOM     23  H   UNL     1       6.931   4.067  19.658  0.00  0.00    +0.000 HD
ENDBRANCH  21  22
ENDBRANCH  13  15
ENDBRANCH   2  13
TORSDOF 6
ENDMDL
MODEL 7
REMARK VINA RESULT:      -7.1      5.982      8.515
REMARK  Name = 
REMARK  7 active torsions:
REMARK  status: ('A' for Active; 'I' for Inactive)
REMARK    1  A    between atoms: C_1  and  O_2
REMARK    2  A    between atoms: O_2  and  C_3
REMARK    3  A    between atoms: C_5  and  C_6
REMARK    4  A    between atoms: C_7  and  C_8
REMARK    5  A    between atoms: C_8  and  C_10
REMARK    6  A    between atoms: C_16  and  O_17
REMARK    7  A    between atoms: C_20  and  O_21
REMARK                            x       y       z     vdW  Elec       q    Type
REMARK                         _______ _______ _______ _____ _____    ______ ____
ROOT
ATOM      1  C   UNL     1       3.146   7.293  18.014  0.00  0.00    +0.000 C 
ATOM      2  C   UNL     1       1.917   7.802  18.198  0.00  0.00    +0.000 C 
ENDROOT
BRANCH   1   5
ATOM      3  C   UNL     1       4.718   3.991  16.955  0.00  0.00    +0.000 A 
ATOM      4  C   UNL     1       4.448   5.368  17.086  0.00  0.00    +0.000 A 
ATOM      5  C   UNL     1       3.399   5.843  17.891  0.00  0.00    +0.000 A 
ATOM      6  C   UNL     1       2.628   4.905  18.589  0.00  0.00    +0.000 A 
ATOM      7  C   UNL     1       2.878   3.539  18.468  0.00  0.00    +0.000 A 
ATOM      8  C   UNL     1       3.914   3.081  17.653  0.00  0.00    +0.000 A 
BRANCH   3  10
ATOM      9  C   UNL     1       6.977   4.451  16.306  0.00  0.00    +0.000 C 
ATOM     10  O   UNL     1       5.774   3.713  16.125  0.00  0.00    +0.000 OA
ENDBRANCH   3  10
BRANCH   8  11
ATOM     11  O   UNL     1       4.110   1.731  17.569  0.00  0.00    +0.000 OA
ATOM     12  H   UNL     1       5.038   1.553  17.347  0.00  0.00    +0.000 HD
ENDBRANCH   8  11
ENDBRANCH   1   5
BRANCH   2  13
ATOM     13  C   UNL     1       1.649   9.265  18.258  0.00  0.00    +0.000 C 
ATOM     14  O   UNL     1       2.098  10.042  17.426  0.00  0.00    +0.000 OA
BRANCH  13  15
ATOM     15  C   UNL     1       0.852   9.772  19.420  0.00  0.00    +0.000 A 
ATOM     16  C   UNL     1       0.948   9.079  20.640  0.00  0.00    +0.000 A 
ATOM     17  C   UNL     1       0.255   9.529  21.769  0.00  0.00    +0.000 A 
ATOM     18  C   UNL     1      -0.527  10.679  21.693  0.00  0.00    +0.000 A 
ATOM     19 CL   UNL     1      -1.362  11.249  23.083  0.00  0.00    +0.000 Cl
ATOM     20  C   UNL     1      -0.635  11.379  20.493  0.00  0.00    +0.000 A 
ATOM     21  C   UNL     1       0.050  10.926  19.364  0.00  0.00    +0.000 A 
BRANCH  21  22
ATOM     22  O   UNL     1      -0.057  11.646  18.206  0.00  0.00    +0.000 OA
ATOM     23  H   UNL     1      -0.484  11.112  17.516  0.00  0.00    +0.000 HD
ENDBRANCH  21  22
ENDBRANCH  13  15
ENDBRANCH   2  13
TORSDOF 6
ENDMDL
MODEL 8
REMARK VINA RESULT:      -7.1      5.717      7.153
REMARK  Name = 
REMARK  7 active torsions:
REMARK  status: ('A' for Active; 'I' for Inactive)
REMARK    1  A    between atoms: C_1  and  O_2
REMARK    2  A    between atoms: O_2  and  C_3
REMARK    3  A    between atoms: C_5  and  C_6
REMARK    4  A    between atoms: C_7  and  C_8
REMARK    5  A    between atoms: C_8  and  C_10
REMARK    6  A    between atoms: C_16  and  O_17
REMARK    7  A    between atoms: C_20  and  O_21
REMARK                            x       y       z     vdW  Elec       q    Type
REMARK                         _______ _______ _______ _____ _____    ______ ____
ROOT
ATOM      1  C   UNL     1       3.490   6.386  18.295  0.00  0.00    +0.000 C 
ATOM      2  C   UNL     1       3.747   5.357  19.118  0.00  0.00    +0.000 C 
ENDROOT
BRANCH   1   5
ATOM      3  C   UNL     1       1.258   8.678  20.359  0.00  0.00    +0.000 A 
ATOM      4  C   UNL     1       2.117   7.628  19.979  0.00  0.00    +0.000 A 
ATOM      5  C   UNL     1       2.585   7.495  18.661  0.00  0.00    +0.000 A 
ATOM      6  C   UNL     1       2.191   8.456  17.722  0.00  0.00    +0.000 A 
ATOM      7  C   UNL     1       1.337   9.500  18.079  0.00  0.00    +0.000 A 
ATOM      8  C   UNL     1       0.869   9.611  19.389  0.00  0.00    +0.000 A 
BRANCH   3  10
ATOM      9  C   UNL     1      -0.478   8.486  21.998  0.00  0.00    +0.000 C 
ATOM     10  O   UNL     1       0.900   8.647  21.683  0.00  0.00    +0.000 OA
ENDBRANCH   3  10
BRANCH   8  11
ATOM     11  O   UNL     1       0.032  10.651  19.681  0.00  0.00    +0.000 OA
ATOM     12  H   UNL     1      -0.655  10.713  18.998  0.00  0.00    +0.000 HD
ENDBRANCH   8  11
ENDBRANCH   1   5
BRANCH   2  13
ATOM     13  C   UNL     1       4.708   4.272  18.780  0.00  0.00    +0.000 C 
ATOM     14  O   UNL     1       4.939   3.347  19.547  0.00  0.00    +0.000 OA
BRANCH  13  15
ATOM     15  C   UNL     1       5.441   4.382  17.479  0.00  0.00    +0.000 A 
ATOM     16  C   UNL     1       4.701   4.250  16.290  0.00  0.00    +0.000 A 
ATOM     17  C   UNL     1       5.326   4.381  15.045  0.00  0.00    +0.000 A 
ATOM     18  C   UNL     1       6.690   4.657  14.978  0.00  0.00    +0.000 A 
ATOM     19 CL   UNL     1       7.459   4.841  13.452  0.00  0.00    +0.000 Cl
ATOM     20  C   UNL     1       7.441   4.789  16.144  0.00  0.00    +0.000 A 
ATOM     21  C   UNL     1       6.817   4.652  17.386  0.00  0.00    +0.000 A 
BRANCH  21  22
ATOM     22  O   UNL     1       7.575   4.810  18.514  0.00  0.00    +0.000 OA
ATOM     23  H   UNL     1       8.025   3.978  18.737  0.00  0.00    +0.000 HD
ENDBRANCH  21  22
ENDBRANCH  13  15
ENDBRANCH   2  13
TORSDOF 6
ENDMDL
MODEL 9
REMARK VINA RESULT:      -7.1      0.989      2.001
REMARK  Name = 
REMARK  7 active torsions:
REMARK  status: ('A' for Active; 'I' for Inactive)
REMARK    1  A    between atoms: C_1  and  O_2
REMARK    2  A    between atoms: O_2  and  C_3
REMARK    3  A    between atoms: C_5  and  C_6
REMARK    4  A    between atoms: C_7  and  C_8
REMARK    5  A    between atoms: C_8  and  C_10
REMARK    6  A    between atoms: C_16  and  O_17
REMARK    7  A    between atoms: C_20  and  O_21
REMARK                            x       y       z     vdW  Elec       q    Type
REMARK                         _______ _______ _______ _____ _____    ______ ____
ROOT
ATOM      1  C   UNL     1       8.453   8.625  18.341  0.00  0.00    +0.000 C 
ATOM      2  C   UNL     1       7.526   8.276  17.435  0.00  0.00    +0.000 C 
ENDROOT
BRANCH   1   5
ATOM      3  C   UNL     1       9.619  11.750  20.178  0.00  0.00    +0.000 A 
ATOM      4  C   UNL     1       9.262  10.417  19.889  0.00  0.00    +0.000 A 
ATOM      5  C   UNL     1       8.813  10.031  18.615  0.00  0.00    +0.000 A 
ATOM      6  C   UNL     1       8.747  11.010  17.616  0.00  0.00    +0.000 A 
ATOM      7  C   UNL     1       9.092  12.334  17.885  0.00  0.00    +0.000 A 
ATOM      8  C   UNL     1       9.522  12.706  19.159  0.00  0.00    +0.000 A 
BRANCH   3  10
ATOM      9  C   UNL     1       9.065  12.390  22.419  0.00  0.00    +0.000 C 
ATOM     10  O   UNL     1      10.029  11.942  21.473  0.00  0.00    +0.000 OA
ENDBRANCH   3  10
BRANCH   8  11
ATOM     11  O   UNL     1       9.843  14.018  19.366  0.00  0.00    +0.000 OA
ATOM     12  H   UNL     1       9.715  14.237  20.303  0.00  0.00    +0.000 HD
ENDBRANCH   8  11
ENDBRANCH   1   5
BRANCH   2  13
ATOM     13  C   UNL     1       7.114   6.865  17.202  0.00  0.00    +0.000 C 
ATOM     14  O   UNL     1       7.740   6.120  16.461  0.00  0.00    +0.000 OA
BRANCH  13  15
ATOM     15  C   UNL     1       5.854   6.398  17.863  0.00  0.00    +0.000 A 
ATOM     16  C   UNL     1       4.629   6.876  17.365  0.00  0.00    +0.000 A 
ATOM     17  C   UNL     1       3.419   6.444  17.919  0.00  0.00    +0.000 A 
ATOM     18  C   UNL     1       3.422   5.524  18.965  0.00  0.00    +0.000 A 
ATOM     19 CL   UNL     1       1.938   4.973  19.635  0.00  0.00    +0.000 Cl
ATOM     20  C   UNL     1       4.626   5.039  19.473  0.00  0.00    +0.000 A 
ATOM     21  C   UNL     1       5.833   5.476  18.924  0.00  0.00    +0.000 A 
BRANCH  21  22
ATOM     22  O   UNL     1       6.998   4.966  19.429  0.00  0.00    +0.000 OA
ATOM     23  H   UNL     1       6.974   4.969  20.400  0.00  0.00    +0.000 HD
ENDBRANCH  21  22
ENDBRANCH  13  15
ENDBRANCH   2  13
TORSDOF 6
ENDMDL
