MODEL 1
REMARK VINA RESULT:      -8.8      0.000      0.000
REMARK  Name = 
REMARK  5 active torsions:
REMARK  status: ('A' for Active; 'I' for Inactive)
REMARK    1  A    between atoms: C_2  and  C_3
REMARK    2  A    between atoms: C_4  and  C_5
REMARK    3  A    between atoms: C_16  and  C_17
REMARK    4  A    between atoms: C_17  and  N_18
REMARK    5  A    between atoms: C_21  and  C_22
REMARK                            x       y       z     vdW  Elec       q    Type
REMARK                         _______ _______ _______ _____ _____    ______ ____
ROOT
ATOM      1  O   UNL     1       1.936   2.045  18.318  0.00  0.00    +0.000 OA
ATOM      2  C   UNL     1       2.150   3.203  17.975  0.00  0.00    +0.000 C 
ATOM      3  N   UNL     1       1.612   4.306  18.622  0.00  0.00    +0.000 N 
ATOM      4  C   UNL     1       1.721   5.695  18.182  0.00  0.00    +0.000 C 
ATOM      5  C   UNL     1       2.658   6.438  19.129  0.00  0.00    +0.000 C 
ATOM      6  C   UNL     1       2.147   6.378  20.589  0.00  0.00    +0.000 C 
ATOM      7  C   UNL     1       1.929   4.902  20.984  0.00  0.00    +0.000 C 
ATOM      8  C   UNL     1       1.067   4.139  19.969  0.00  0.00    +0.000 C 
ENDROOT
BRANCH   2   9
ATOM      9  C   UNL     1       3.085   3.482  16.848  0.00  0.00    +0.000 C 
ATOM     10  C   UNL     1       4.377   3.771  17.073  0.00  0.00    +0.000 C 
BRANCH  10  11
ATOM     11  C   UNL     1       5.313   4.148  16.008  0.00  0.00    +0.000 A 
ATOM     12  C   UNL     1       6.337   5.055  16.298  0.00  0.00    +0.000 A 
ATOM     13  C   UNL     1       7.258   5.436  15.316  0.00  0.00    +0.000 A 
ATOM     14  C   UNL     1       7.173   4.899  14.030  0.00  0.00    +0.000 A 
ATOM     15 CL   UNL     1       8.343   5.407  12.865  0.00  0.00    +0.000 Cl
ATOM     16  C   UNL     1       6.162   3.983  13.728  0.00  0.00    +0.000 A 
ATOM     17 CL   UNL     1       5.984   3.281  12.158  0.00  0.00    +0.000 Cl
ATOM     18  C   UNL     1       5.244   3.603  14.715  0.00  0.00    +0.000 A 
ENDBRANCH  10  11
ENDBRANCH   2   9
BRANCH   6  19
ATOM     19  C   UNL     1       0.866   7.229  20.775  0.00  0.00    +0.000 C 
BRANCH  19  20
ATOM     20  N   UNL     1       1.092   8.684  20.942  0.00  0.00    +0.000 NA
ATOM     21  C   UNL     1       1.280   9.350  19.644  0.00  0.00    +0.000 C 
ATOM     22  C   UNL     1       1.188  10.878  19.679  0.00  0.00    +0.000 C 
ATOM     23  C   UNL     1      -0.043  11.404  20.425  0.00  0.00    +0.000 C 
ATOM     24  C   UNL     1      -0.064  10.767  21.816  0.00  0.00    +0.000 C 
ATOM     25  C   UNL     1       0.022   9.246  21.793  0.00  0.00    +0.000 C 
BRANCH  23  26
ATOM     26  C   UNL     1      -1.346  11.300  19.634  0.00  0.00    +0.000 A 
ATOM     27  C   UNL     1      -1.530  10.408  18.568  0.00  0.00    +0.000 A 
ATOM     28  C   UNL     1      -2.710  10.385  17.822  0.00  0.00    +0.000 A 
ATOM     29  C   UNL     1      -3.744  11.254  18.139  0.00  0.00    +0.000 A 
ATOM     30 CL   UNL     1      -5.187  11.245  17.209  0.00  0.00    +0.000 Cl
ATOM     31  C   UNL     1      -3.604  12.135  19.208  0.00  0.00    +0.000 A 
ATOM     32  C   UNL     1      -2.415  12.157  19.950  0.00  0.00    +0.000 A 
ENDBRANCH  23  26
ENDBRANCH  19  20
ENDBRANCH   6  19
TORSDOF 5
ENDMDL
MODEL 2
REMARK VINA RESULT:      -8.6      3.642      5.892
REMARK  Name = 
REMARK  5 active torsions:
REMARK  status: ('A' for Active; 'I' for Inactive)
REMARK    1  A    between atoms: C_2  and  C_3
REMARK    2  A    between atoms: C_4  and  C_5
REMARK    3  A    between atoms: C_16  and  C_17
REMARK    4  A    between atoms: C_17  and  N_18
REMARK    5  A    between atoms: C_21  and  C_22
REMARK                            x       y       z     vdW  Elec       q    Type
REMARK                         _______ _______ _______ _____ _____    ______ ____
ROOT
ATOM      1  O   UNL     1       1.540  10.135  17.700  0.00  0.00    +0.000 OA
ATOM      2  C   UNL     1       1.465   9.718  18.852  0.00  0.00    +0.000 C 
ATOM      3  N   UNL     1       1.061  10.499  19.924  0.00  0.00    +0.000 N 
ATOM      4  C   UNL     1       1.080  10.101  21.331  0.00  0.00    +0.000 C 
ATOM      5  C   UNL     1      -0.356   9.896  21.803  0.00  0.00    +0.000 C 
ATOM      6  C   UNL     1      -1.197  11.184  21.623  0.00  0.00    +0.000 C 
ATOM      7  C   UNL     1      -1.101  11.645  20.153  0.00  0.00    +0.000 C 
ATOM      8  C   UNL     1       0.349  11.750  19.659  0.00  0.00    +0.000 C 
ENDROOT
BRANCH   2   9
ATOM      9  C   UNL     1       1.754   8.285  19.142  0.00  0.00    +0.000 C 
ATOM     10  C   UNL     1       2.549   7.560  18.339  0.00  0.00    +0.000 C 
BRANCH  10  11
ATOM     11  C   UNL     1       2.785   6.124  18.527  0.00  0.00    +0.000 A 
ATOM     12  C   UNL     1       3.564   5.440  17.588  0.00  0.00    +0.000 A 
ATOM     13  C   UNL     1       3.823   4.072  17.731  0.00  0.00    +0.000 A 
ATOM     14  C   UNL     1       3.315   3.374  18.829  0.00  0.00    +0.000 A 
ATOM     15 CL   UNL     1       3.675   1.689  18.949  0.00  0.00    +0.000 Cl
ATOM     16  C   UNL     1       2.545   4.046  19.780  0.00  0.00    +0.000 A 
ATOM     17 CL   UNL     1       1.874   3.252  21.161  0.00  0.00    +0.000 Cl
ATOM     18  C   UNL     1       2.291   5.416  19.634  0.00  0.00    +0.000 A 
ENDBRANCH  10  11
ENDBRANCH   2   9
BRANCH   6  19
ATOM     19  C   UNL     1      -0.756  12.290  22.614  0.00  0.00    +0.000 C 
BRANCH  19  20
ATOM     20  N   UNL     1      -1.860  12.996  23.305  0.00  0.00    +0.000 NA
ATOM     21  C   UNL     1      -2.379  14.106  22.491  0.00  0.00    +0.000 C 
ATOM     22  C   UNL     1      -3.719  14.680  22.956  0.00  0.00    +0.000 C 
ATOM     23  C   UNL     1      -4.787  13.614  23.226  0.00  0.00    +0.000 C 
ATOM     24  C   UNL     1      -4.200  12.590  24.199  0.00  0.00    +0.000 C 
ATOM     25  C   UNL     1      -2.868  12.007  23.744  0.00  0.00    +0.000 C 
BRANCH  23  26
ATOM     26  C   UNL     1      -5.424  13.034  21.965  0.00  0.00    +0.000 A 
ATOM     27  C   UNL     1      -6.703  12.461  21.941  0.00  0.00    +0.000 A 
ATOM     28  C   UNL     1      -7.228  11.879  20.786  0.00  0.00    +0.000 A 
ATOM     29  C   UNL     1      -6.481  11.869  19.617  0.00  0.00    +0.000 A 
ATOM     30 CL   UNL     1      -7.115  11.132  18.202  0.00  0.00    +0.000 Cl
ATOM     31  C   UNL     1      -5.217  12.451  19.599  0.00  0.00    +0.000 A 
ATOM     32  C   UNL     1      -4.693  13.030  20.763  0.00  0.00    +0.000 A 
ENDBRANCH  23  26
ENDBRANCH  19  20
ENDBRANCH   6  19
TORSDOF 5
ENDMDL
MODEL 3
REMARK VINA RESULT:      -8.4      3.783      6.370
REMARK  Name = 
REMARK  5 active torsions:
REMARK  status: ('A' for Active; 'I' for Inactive)
REMARK    1  A    between atoms: C_2  and  C_3
REMARK    2  A    between atoms: C_4  and  C_5
REMARK    3  A    between atoms: C_16  and  C_17
REMARK    4  A    between atoms: C_17  and  N_18
REMARK    5  A    between atoms: C_21  and  C_22
REMARK                            x       y       z     vdW  Elec       q    Type
REMARK                         _______ _______ _______ _____ _____    ______ ____
ROOT
ATOM      1  O   UNL     1       1.444   9.783  22.782  0.00  0.00    +0.000 OA
ATOM      2  C   UNL     1       0.840   9.430  21.774  0.00  0.00    +0.000 C 
ATOM      3  N   UNL     1       0.075  10.289  20.999  0.00  0.00    +0.000 N 
ATOM      4  C   UNL     1      -0.771   9.902  19.871  0.00  0.00    +0.000 C 
ATOM      5  C   UNL     1      -0.123  10.396  18.580  0.00  0.00    +0.000 C 
ATOM      6  C   UNL     1       0.074  11.931  18.600  0.00  0.00    +0.000 C 
ATOM      7  C   UNL     1       0.869  12.319  19.865  0.00  0.00    +0.000 C 
ATOM      8  C   UNL     1       0.263  11.732  21.147  0.00  0.00    +0.000 C 
ENDROOT
BRANCH   2   9
ATOM      9  C   UNL     1       0.965   8.027  21.287  0.00  0.00    +0.000 C 
ATOM     10  C   UNL     1       1.880   7.691  20.363  0.00  0.00    +0.000 C 
BRANCH  10  11
ATOM     11  C   UNL     1       1.978   6.347  19.782  0.00  0.00    +0.000 A 
ATOM     12  C   UNL     1       2.396   6.215  18.454  0.00  0.00    +0.000 A 
ATOM     13  C   UNL     1       2.513   4.952  17.861  0.00  0.00    +0.000 A 
ATOM     14  C   UNL     1       2.226   3.802  18.599  0.00  0.00    +0.000 A 
ATOM     15 CL   UNL     1       2.395   2.275  17.810  0.00  0.00    +0.000 Cl
ATOM     16  C   UNL     1       1.818   3.918  19.930  0.00  0.00    +0.000 A 
ATOM     17 CL   UNL     1       1.436   2.544  20.907  0.00  0.00    +0.000 Cl
ATOM     18  C   UNL     1       1.705   5.184  20.520  0.00  0.00    +0.000 A 
ENDBRANCH  10  11
ENDBRANCH   2   9
BRANCH   6  19
ATOM     19  C   UNL     1      -1.281  12.675  18.508  0.00  0.00    +0.000 C 
BRANCH  19  20
ATOM     20  N   UNL     1      -2.459  11.902  18.965  0.00  0.00    +0.000 NA
ATOM     21  C   UNL     1      -3.202  12.621  20.011  0.00  0.00    +0.000 C 
ATOM     22  C   UNL     1      -4.600  12.073  20.309  0.00  0.00    +0.000 C 
ATOM     23  C   UNL     1      -5.450  11.839  19.056  0.00  0.00    +0.000 C 
ATOM     24  C   UNL     1      -4.649  10.957  18.096  0.00  0.00    +0.000 C 
ATOM     25  C   UNL     1      -3.258  11.496  17.787  0.00  0.00    +0.000 C 
BRANCH  23  26
ATOM     26  C   UNL     1      -6.032  13.114  18.448  0.00  0.00    +0.000 A 
ATOM     27  C   UNL     1      -6.391  13.229  17.097  0.00  0.00    +0.000 A 
ATOM     28  C   UNL     1      -6.857  14.430  16.559  0.00  0.00    +0.000 A 
ATOM     29  C   UNL     1      -6.985  15.547  17.372  0.00  0.00    +0.000 A 
ATOM     30 CL   UNL     1      -7.535  17.031  16.707  0.00  0.00    +0.000 Cl
ATOM     31  C   UNL     1      -6.661  15.460  18.723  0.00  0.00    +0.000 A 
ATOM     32  C   UNL     1      -6.189  14.253  19.257  0.00  0.00    +0.000 A 
ENDBRANCH  23  26
ENDBRANCH  19  20
ENDBRANCH   6  19
TORSDOF 5
ENDMDL
MODEL 4
REMARK VINA RESULT:      -8.4      3.746      5.918
REMARK  Name = 
REMARK  5 active torsions:
REMARK  status: ('A' for Active; 'I' for Inactive)
REMARK    1  A    between atoms: C_2  and  C_3
REMARK    2  A    between atoms: C_4  and  C_5
REMARK    3  A    between atoms: C_16  and  C_17
REMARK    4  A    between atoms: C_17  and  N_18
REMARK    5  A    between atoms: C_21  and  C_22
REMARK                            x       y       z     vdW  Elec       q    Type
REMARK                         _______ _______ _______ _____ _____    ______ ____
ROOT
ATOM      1  O   UNL     1       1.280   9.706  17.708  0.00  0.00    +0.000 OA
ATOM      2  C   UNL     1       1.366   9.482  18.912  0.00  0.00    +0.000 C 
ATOM      3  N   UNL     1       0.984  10.389  19.889  0.00  0.00    +0.000 N 
ATOM      4  C   UNL     1       1.186  10.234  21.328  0.00  0.00    +0.000 C 
ATOM      5  C   UNL     1      -0.165   9.975  21.989  0.00  0.00    +0.000 C 
ATOM      6  C   UNL     1      -1.158  11.129  21.710  0.00  0.00    +0.000 C 
ATOM      7  C   UNL     1      -1.260  11.347  20.185  0.00  0.00    +0.000 C 
ATOM      8  C   UNL     1       0.113  11.504  19.517  0.00  0.00    +0.000 C 
ENDROOT
BRANCH   2   9
ATOM      9  C   UNL     1       1.840   8.151  19.386  0.00  0.00    +0.000 C 
ATOM     10  C   UNL     1       2.574   7.353  18.594  0.00  0.00    +0.000 C 
BRANCH  10  11
ATOM     11  C   UNL     1       2.983   5.996  18.978  0.00  0.00    +0.000 A 
ATOM     12  C   UNL     1       4.246   5.538  18.593  0.00  0.00    +0.000 A 
ATOM     13  C   UNL     1       4.681   4.255  18.943  0.00  0.00    +0.000 A 
ATOM     14  C   UNL     1       3.857   3.418  19.700  0.00  0.00    +0.000 A 
ATOM     15 CL   UNL     1       4.455   1.849  20.104  0.00  0.00    +0.000 Cl
ATOM     16  C   UNL     1       2.597   3.867  20.101  0.00  0.00    +0.000 A 
ATOM     17 CL   UNL     1       1.516   2.889  21.030  0.00  0.00    +0.000 Cl
ATOM     18  C   UNL     1       2.167   5.153  19.749  0.00  0.00    +0.000 A 
ENDBRANCH  10  11
ENDBRANCH   2   9
BRANCH   6  19
ATOM     19  C   UNL     1      -0.749  12.421  22.459  0.00  0.00    +0.000 C 
BRANCH  19  20
ATOM     20  N   UNL     1      -1.830  13.070  23.237  0.00  0.00    +0.000 NA
ATOM     21  C   UNL     1      -2.351  14.259  22.544  0.00  0.00    +0.000 C 
ATOM     22  C   UNL     1      -3.674  14.800  23.090  0.00  0.00    +0.000 C 
ATOM     23  C   UNL     1      -4.750  13.725  23.279  0.00  0.00    +0.000 C 
ATOM     24  C   UNL     1      -4.157  12.605  24.137  0.00  0.00    +0.000 C 
ATOM     25  C   UNL     1      -2.842  12.054  23.600  0.00  0.00    +0.000 C 
BRANCH  23  26
ATOM     26  C   UNL     1      -5.419  13.275  21.981  0.00  0.00    +0.000 A 
ATOM     27  C   UNL     1      -4.708  13.001  20.803  0.00  0.00    +0.000 A 
ATOM     28  C   UNL     1      -5.357  12.657  19.616  0.00  0.00    +0.000 A 
ATOM     29  C   UNL     1      -6.741  12.568  19.585  0.00  0.00    +0.000 A 
ATOM     30 CL   UNL     1      -7.541  12.169  18.119  0.00  0.00    +0.000 Cl
ATOM     31  C   UNL     1      -7.475  12.810  20.743  0.00  0.00    +0.000 A 
ATOM     32  C   UNL     1      -6.820  13.159  21.932  0.00  0.00    +0.000 A 
ENDBRANCH  23  26
ENDBRANCH  19  20
ENDBRANCH   6  19
TORSDOF 5
ENDMDL
MODEL 5
REMARK VINA RESULT:      -8.2      3.506      5.754
REMARK  Name = 
REMARK  5 active torsions:
REMARK  status: ('A' for Active; 'I' for Inactive)
REMARK    1  A    between atoms: C_2  and  C_3
REMARK    2  A    between atoms: C_4  and  C_5
REMARK    3  A    between atoms: C_16  and  C_17
REMARK    4  A    between atoms: C_17  and  N_18
REMARK    5  A    between atoms: C_21  and  C_22
REMARK                            x       y       z     vdW  Elec       q    Type
REMARK                         _______ _______ _______ _____ _____    ______ ____
ROOT
ATOM      1  O   UNL     1       1.226  10.329  17.536  0.00  0.00    +0.000 OA
ATOM      2  C   UNL     1       1.309   9.918  18.689  0.00  0.00    +0.000 C 
ATOM      3  N   UNL     1       0.939  10.666  19.797  0.00  0.00    +0.000 N 
ATOM      4  C   UNL     1       1.139  10.285  21.194  0.00  0.00    +0.000 C 
ATOM      5  C   UNL     1      -0.216   9.945  21.808  0.00  0.00    +0.000 C 
ATOM      6  C   UNL     1      -1.193  11.142  21.715  0.00  0.00    +0.000 C 
ATOM      7  C   UNL     1      -1.291  11.596  20.243  0.00  0.00    +0.000 C 
ATOM      8  C   UNL     1       0.084  11.838  19.605  0.00  0.00    +0.000 C 
ENDROOT
BRANCH   2   9
ATOM      9  C   UNL     1       1.765   8.523  18.948  0.00  0.00    +0.000 C 
ATOM     10  C   UNL     1       2.250   7.756  17.959  0.00  0.00    +0.000 C 
BRANCH  10  11
ATOM     11  C   UNL     1       2.621   6.347  18.143  0.00  0.00    +0.000 A 
ATOM     12  C   UNL     1       1.649   5.362  17.939  0.00  0.00    +0.000 A 
ATOM     13  C   UNL     1       1.959   4.006  18.094  0.00  0.00    +0.000 A 
ATOM     14  C   UNL     1       3.255   3.619  18.442  0.00  0.00    +0.000 A 
ATOM     15 CL   UNL     1       3.574   1.931  18.613  0.00  0.00    +0.000 Cl
ATOM     16  C   UNL     1       4.239   4.592  18.638  0.00  0.00    +0.000 A 
ATOM     17 CL   UNL     1       5.862   4.195  19.079  0.00  0.00    +0.000 Cl
ATOM     18  C   UNL     1       3.924   5.948  18.479  0.00  0.00    +0.000 A 
ENDBRANCH  10  11
ENDBRANCH   2   9
BRANCH   6  19
ATOM     19  C   UNL     1      -0.765  12.295  22.656  0.00  0.00    +0.000 C 
BRANCH  19  20
ATOM     20  N   UNL     1      -1.879  13.033  23.298  0.00  0.00    +0.000 NA
ATOM     21  C   UNL     1      -2.350  14.138  22.449  0.00  0.00    +0.000 C 
ATOM     22  C   UNL     1      -3.695  14.744  22.860  0.00  0.00    +0.000 C 
ATOM     23  C   UNL     1      -4.790  13.701  23.110  0.00  0.00    +0.000 C 
ATOM     24  C   UNL     1      -4.255  12.683  24.119  0.00  0.00    +0.000 C 
ATOM     25  C   UNL     1      -2.919  12.069  23.718  0.00  0.00    +0.000 C 
BRANCH  23  26
ATOM     26  C   UNL     1      -5.395  13.111  21.837  0.00  0.00    +0.000 A 
ATOM     27  C   UNL     1      -6.630  12.449  21.807  0.00  0.00    +0.000 A 
ATOM     28  C   UNL     1      -7.122  11.863  20.639  0.00  0.00    +0.000 A 
ATOM     29  C   UNL     1      -6.386  11.938  19.466  0.00  0.00    +0.000 A 
ATOM     30 CL   UNL     1      -6.978  11.196  18.035  0.00  0.00    +0.000 Cl
ATOM     31  C   UNL     1      -5.168  12.610  19.455  0.00  0.00    +0.000 A 
ATOM     32  C   UNL     1      -4.675  13.193  20.631  0.00  0.00    +0.000 A 
ENDBRANCH  23  26
ENDBRANCH  19  20
ENDBRANCH   6  19
TORSDOF 5
ENDMDL
MODEL 6
REMARK VINA RESULT:      -8.0      4.080      6.176
REMARK  Name = 
REMARK  5 active torsions:
REMARK  status: ('A' for Active; 'I' for Inactive)
REMARK    1  A    between atoms: C_2  and  C_3
REMARK    2  A    between atoms: C_4  and  C_5
REMARK    3  A    between atoms: C_16  and  C_17
REMARK    4  A    between atoms: C_17  and  N_18
REMARK    5  A    between atoms: C_21  and  C_22
REMARK                            x       y       z     vdW  Elec       q    Type
REMARK                         _______ _______ _______ _____ _____    ______ ____
ROOT
ATOM      1  O   UNL     1       1.893  10.133  17.379  0.00  0.00    +0.000 OA
ATOM      2  C   UNL     1       1.695   9.699  18.509  0.00  0.00    +0.000 C 
ATOM      3  N   UNL     1       1.299  10.493  19.576  0.00  0.00    +0.000 N 
ATOM      4  C   UNL     1       1.178  10.062  20.967  0.00  0.00    +0.000 C 
ATOM      5  C   UNL     1      -0.301   9.999  21.335  0.00  0.00    +0.000 C 
ATOM      6  C   UNL     1      -0.989  11.371  21.139  0.00  0.00    +0.000 C 
ATOM      7  C   UNL     1      -0.743  11.855  19.694  0.00  0.00    +0.000 C 
ATOM      8  C   UNL     1       0.740  11.818  19.302  0.00  0.00    +0.000 C 
ENDROOT
BRANCH   2   9
ATOM      9  C   UNL     1       1.812   8.237  18.775  0.00  0.00    +0.000 C 
ATOM     10  C   UNL     1       2.702   7.481  18.112  0.00  0.00    +0.000 C 
BRANCH  10  11
ATOM     11  C   UNL     1       2.790   6.024  18.266  0.00  0.00    +0.000 A 
ATOM     12  C   UNL     1       3.748   5.324  17.526  0.00  0.00    +0.000 A 
ATOM     13  C   UNL     1       3.874   3.935  17.647  0.00  0.00    +0.000 A 
ATOM     14  C   UNL     1       3.047   3.231  18.525  0.00  0.00    +0.000 A 
ATOM     15 CL   UNL     1       3.257   1.520  18.632  0.00  0.00    +0.000 Cl
ATOM     16  C   UNL     1       2.092   3.918  19.278  0.00  0.00    +0.000 A 
ATOM     17 CL   UNL     1       1.026   3.118  20.379  0.00  0.00    +0.000 Cl
ATOM     18  C   UNL     1       1.972   5.308  19.155  0.00  0.00    +0.000 A 
ENDBRANCH  10  11
ENDBRANCH   2   9
BRANCH   6  19
ATOM     19  C   UNL     1      -0.507  12.401  22.190  0.00  0.00    +0.000 C 
BRANCH  19  20
ATOM     20  N   UNL     1      -1.470  12.692  23.278  0.00  0.00    +0.000 NA
ATOM     21  C   UNL     1      -1.471  14.122  23.626  0.00  0.00    +0.000 C 
ATOM     22  C   UNL     1      -2.649  14.578  24.489  0.00  0.00    +0.000 C 
ATOM     23  C   UNL     1      -4.013  14.110  23.970  0.00  0.00    +0.000 C 
ATOM     24  C   UNL     1      -3.955  12.592  23.784  0.00  0.00    +0.000 C 
ATOM     25  C   UNL     1      -2.789  12.126  22.921  0.00  0.00    +0.000 C 
BRANCH  23  26
ATOM     26  C   UNL     1      -4.530  14.900  22.769  0.00  0.00    +0.000 A 
ATOM     27  C   UNL     1      -4.069  16.182  22.435  0.00  0.00    +0.000 A 
ATOM     28  C   UNL     1      -4.610  16.904  21.370  0.00  0.00    +0.000 A 
ATOM     29  C   UNL     1      -5.625  16.349  20.604  0.00  0.00    +0.000 A 
ATOM     30 CL   UNL     1      -6.309  17.246  19.310  0.00  0.00    +0.000 Cl
ATOM     31  C   UNL     1      -6.089  15.069  20.894  0.00  0.00    +0.000 A 
ATOM     32  C   UNL     1      -5.545  14.350  21.967  0.00  0.00    +0.000 A 
ENDBRANCH  23  26
ENDBRANCH  19  20
ENDBRANCH   6  19
TORSDOF 5
ENDMDL
MODEL 7
REMARK VINA RESULT:      -8.0      3.599     10.589
REMARK  Name = 
REMARK  5 active torsions:
REMARK  status: ('A' for Active; 'I' for Inactive)
REMARK    1  A    between atoms: C_2  and  C_3
REMARK    2  A    between atoms: C_4  and  C_5
REMARK    3  A    between atoms: C_16  and  C_17
REMARK    4  A    between atoms: C_17  and  N_18
REMARK    5  A    between atoms: C_21  and  C_22
REMARK                            x       y       z     vdW  Elec       q    Type
REMARK                         _______ _______ _______ _____ _____    ______ ____
ROOT
ATOM      1  O   UNL     1       1.293  11.453  18.355  0.00  0.00    +0.000 OA
ATOM      2  C   UNL     1       0.870  10.792  19.298  0.00  0.00    +0.000 C 
ATOM      3  N   UNL     1       0.805   9.407  19.294  0.00  0.00    +0.000 N 
ATOM      4  C   UNL     1       0.191   8.574  20.327  0.00  0.00    +0.000 C 
ATOM      5  C   UNL     1       1.294   7.851  21.095  0.00  0.00    +0.000 C 
ATOM      6  C   UNL     1       2.160   6.981  20.151  0.00  0.00    +0.000 C 
ATOM      7  C   UNL     1       2.697   7.865  19.006  0.00  0.00    +0.000 C 
ATOM      8  C   UNL     1       1.589   8.665  18.306  0.00  0.00    +0.000 C 
ENDROOT
BRANCH   2   9
ATOM      9  C   UNL     1       0.456  11.475  20.557  0.00  0.00    +0.000 C 
ATOM     10  C   UNL     1      -0.816  11.859  20.752  0.00  0.00    +0.000 C 
BRANCH  10  11
ATOM     11  C   UNL     1      -1.253  12.620  21.929  0.00  0.00    +0.000 A 
ATOM     12  C   UNL     1      -0.534  13.759  22.301  0.00  0.00    +0.000 A 
ATOM     13  C   UNL     1      -0.919  14.520  23.411  0.00  0.00    +0.000 A 
ATOM     14  C   UNL     1      -2.043  14.154  24.155  0.00  0.00    +0.000 A 
ATOM     15 CL   UNL     1      -2.468  15.138  25.510  0.00  0.00    +0.000 Cl
ATOM     16  C   UNL     1      -2.777  13.024  23.789  0.00  0.00    +0.000 A 
ATOM     17 CL   UNL     1      -4.174  12.501  24.663  0.00  0.00    +0.000 Cl
ATOM     18  C   UNL     1      -2.389  12.268  22.676  0.00  0.00    +0.000 A 
ENDBRANCH  10  11
ENDBRANCH   2   9
BRANCH   6  19
ATOM     19  C   UNL     1       1.368   5.758  19.625  0.00  0.00    +0.000 C 
BRANCH  19  20
ATOM     20  N   UNL     1       2.197   4.627  19.147  0.00  0.00    +0.000 NA
ATOM     21  C   UNL     1       2.564   4.790  17.732  0.00  0.00    +0.000 C 
ATOM     22  C   UNL     1       3.678   3.865  17.239  0.00  0.00    +0.000 C 
ATOM     23  C   UNL     1       4.908   3.839  18.153  0.00  0.00    +0.000 C 
ATOM     24  C   UNL     1       4.438   3.513  19.573  0.00  0.00    +0.000 C 
ATOM     25  C   UNL     1       3.332   4.432  20.076  0.00  0.00    +0.000 C 
BRANCH  23  26
ATOM     26  C   UNL     1       5.809   5.066  18.024  0.00  0.00    +0.000 A 
ATOM     27  C   UNL     1       7.026   5.203  18.707  0.00  0.00    +0.000 A 
ATOM     28  C   UNL     1       7.792   6.367  18.619  0.00  0.00    +0.000 A 
ATOM     29  C   UNL     1       7.359   7.421  17.828  0.00  0.00    +0.000 A 
ATOM     30 CL   UNL     1       8.288   8.862  17.737  0.00  0.00    +0.000 Cl
ATOM     31  C   UNL     1       6.168   7.307  17.116  0.00  0.00    +0.000 A 
ATOM     32  C   UNL     1       5.399   6.139  17.212  0.00  0.00    +0.000 A 
ENDBRANCH  23  26
ENDBRANCH  19  20
ENDBRANCH   6  19
TORSDOF 5
ENDMDL
MODEL 8
REMARK VINA RESULT:      -7.9      3.631      6.264
REMARK  Name = 
REMARK  5 active torsions:
REMARK  status: ('A' for Active; 'I' for Inactive)
REMARK    1  A    between atoms: C_2  and  C_3
REMARK    2  A    between atoms: C_4  and  C_5
REMARK    3  A    between atoms: C_16  and  C_17
REMARK    4  A    between atoms: C_17  and  N_18
REMARK    5  A    between atoms: C_21  and  C_22
REMARK                            x       y       z     vdW  Elec       q    Type
REMARK                         _______ _______ _______ _____ _____    ______ ____
ROOT
ATOM      1  O   UNL     1      -0.644  10.602  17.744  0.00  0.00    +0.000 OA
ATOM      2  C   UNL     1      -0.015  10.566  18.797  0.00  0.00    +0.000 C 
ATOM      3  N   UNL     1      -0.155  11.508  19.805  0.00  0.00    +0.000 N 
ATOM      4  C   UNL     1       0.658  11.594  21.017  0.00  0.00    +0.000 C 
ATOM      5  C   UNL     1      -0.194  11.173  22.211  0.00  0.00    +0.000 C 
ATOM      6  C   UNL     1      -1.452  12.065  22.347  0.00  0.00    +0.000 C 
ATOM      7  C   UNL     1      -2.227  12.047  21.012  0.00  0.00    +0.000 C 
ATOM      8  C   UNL     1      -1.335  12.373  19.806  0.00  0.00    +0.000 C 
ENDROOT
BRANCH   2   9
ATOM      9  C   UNL     1       0.909   9.429  19.070  0.00  0.00    +0.000 C 
ATOM     10  C   UNL     1       1.719   8.948  18.113  0.00  0.00    +0.000 C 
BRANCH  10  11
ATOM     11  C   UNL     1       2.575   7.770  18.303  0.00  0.00    +0.000 A 
ATOM     12  C   UNL     1       2.348   6.942  19.406  0.00  0.00    +0.000 A 
ATOM     13  C   UNL     1       3.134   5.804  19.623  0.00  0.00    +0.000 A 
ATOM     14  C   UNL     1       4.151   5.474  18.725  0.00  0.00    +0.000 A 
ATOM     15 CL   UNL     1       5.081   4.055  19.046  0.00  0.00    +0.000 Cl
ATOM     16  C   UNL     1       4.382   6.287  17.612  0.00  0.00    +0.000 A 
ATOM     17 CL   UNL     1       5.626   5.950  16.460  0.00  0.00    +0.000 Cl
ATOM     18  C   UNL     1       3.591   7.422  17.398  0.00  0.00    +0.000 A 
ENDBRANCH  10  11
ENDBRANCH   2   9
BRANCH   6  19
ATOM     19  C   UNL     1      -1.081  13.502  22.789  0.00  0.00    +0.000 C 
BRANCH  19  20
ATOM     20  N   UNL     1      -2.224  14.352  23.197  0.00  0.00    +0.000 NA
ATOM     21  C   UNL     1      -2.664  15.225  22.097  0.00  0.00    +0.000 C 
ATOM     22  C   UNL     1      -4.027  15.890  22.302  0.00  0.00    +0.000 C 
ATOM     23  C   UNL     1      -5.128  14.919  22.744  0.00  0.00    +0.000 C 
ATOM     24  C   UNL     1      -4.631  14.169  23.982  0.00  0.00    +0.000 C 
ATOM     25  C   UNL     1      -3.277  13.498  23.787  0.00  0.00    +0.000 C 
BRANCH  23  26
ATOM     26  C   UNL     1      -5.675  14.042  21.619  0.00  0.00    +0.000 A 
ATOM     27  C   UNL     1      -6.112  12.724  21.813  0.00  0.00    +0.000 A 
ATOM     28  C   UNL     1      -6.544  11.928  20.751  0.00  0.00    +0.000 A 
ATOM     29  C   UNL     1      -6.559  12.443  19.463  0.00  0.00    +0.000 A 
ATOM     30 CL   UNL     1      -7.067  11.457  18.152  0.00  0.00    +0.000 Cl
ATOM     31  C   UNL     1      -6.155  13.756  19.239  0.00  0.00    +0.000 A 
ATOM     32  C   UNL     1      -5.717  14.550  20.308  0.00  0.00    +0.000 A 
ENDBRANCH  23  26
ENDBRANCH  19  20
ENDBRANCH   6  19
TORSDOF 5
ENDMDL
MODEL 9
REMARK VINA RESULT:      -7.9      3.863      6.454
REMARK  Name = 
REMARK  5 active torsions:
REMARK  status: ('A' for Active; 'I' for Inactive)
REMARK    1  A    between atoms: C_2  and  C_3
REMARK    2  A    between atoms: C_4  and  C_5
REMARK    3  A    between atoms: C_16  and  C_17
REMARK    4  A    between atoms: C_17  and  N_18
REMARK    5  A    between atoms: C_21  and  C_22
REMARK                            x       y       z     vdW  Elec       q    Type
REMARK                         _______ _______ _______ _____ _____    ______ ____
ROOT
ATOM      1  O   UNL     1       1.924  10.522  17.353  0.00  0.00    +0.000 OA
ATOM      2  C   UNL     1       1.632  10.320  18.527  0.00  0.00    +0.000 C 
ATOM      3  N   UNL     1       1.316  11.331  19.423  0.00  0.00    +0.000 N 
ATOM      4  C   UNL     1       1.092  11.166  20.858  0.00  0.00    +0.000 C 
ATOM      5  C   UNL     1      -0.393  11.363  21.148  0.00  0.00    +0.000 C 
ATOM      6  C   UNL     1      -0.876  12.760  20.688  0.00  0.00    +0.000 C 
ATOM      7  C   UNL     1      -0.519  12.950  19.199  0.00  0.00    +0.000 C 
ATOM      8  C   UNL     1       0.957  12.651  18.902  0.00  0.00    +0.000 C 
ENDROOT
BRANCH   2   9
ATOM      9  C   UNL     1       1.535   8.923  19.038  0.00  0.00    +0.000 C 
ATOM     10  C   UNL     1       2.330   7.952  18.559  0.00  0.00    +0.000 C 
BRANCH  10  11
ATOM     11  C   UNL     1       2.208   6.545  18.958  0.00  0.00    +0.000 A 
ATOM     12  C   UNL     1       1.905   6.246  20.290  0.00  0.00    +0.000 A 
ATOM     13  C   UNL     1       1.771   4.918  20.714  0.00  0.00    +0.000 A 
ATOM     14  C   UNL     1       1.925   3.872  19.801  0.00  0.00    +0.000 A 
ATOM     15 CL   UNL     1       1.742   2.258  20.387  0.00  0.00    +0.000 Cl
ATOM     16  C   UNL     1       2.217   4.157  18.465  0.00  0.00    +0.000 A 
ATOM     17 CL   UNL     1       2.431   2.919  17.277  0.00  0.00    +0.000 Cl
ATOM     18  C   UNL     1       2.348   5.487  18.045  0.00  0.00    +0.000 A 
ENDBRANCH  10  11
ENDBRANCH   2   9
BRANCH   6  19
ATOM     19  C   UNL     1      -0.289  13.883  21.579  0.00  0.00    +0.000 C 
BRANCH  19  20
ATOM     20  N   UNL     1      -1.284  14.659  22.355  0.00  0.00    +0.000 NA
ATOM     21  C   UNL     1      -2.249  15.331  21.472  0.00  0.00    +0.000 C 
ATOM     22  C   UNL     1      -3.498  15.876  22.169  0.00  0.00    +0.000 C 
ATOM     23  C   UNL     1      -4.175  14.864  23.101  0.00  0.00    +0.000 C 
ATOM     24  C   UNL     1      -3.121  14.337  24.077  0.00  0.00    +0.000 C 
ATOM     25  C   UNL     1      -1.875  13.787  23.393  0.00  0.00    +0.000 C 
BRANCH  23  26
ATOM     26  C   UNL     1      -4.992  13.797  22.375  0.00  0.00    +0.000 A 
ATOM     27  C   UNL     1      -4.674  13.321  21.095  0.00  0.00    +0.000 A 
ATOM     28  C   UNL     1      -5.481  12.393  20.433  0.00  0.00    +0.000 A 
ATOM     29  C   UNL     1      -6.626  11.911  21.049  0.00  0.00    +0.000 A 
ATOM     30 CL   UNL     1      -7.633  10.788  20.227  0.00  0.00    +0.000 Cl
ATOM     31  C   UNL     1      -6.958  12.343  22.330  0.00  0.00    +0.000 A 
ATOM     32  C   UNL     1      -6.147  13.278  22.989  0.00  0.00    +0.000 A 
ENDBRANCH  23  26
ENDBRANCH  19  20
ENDBRANCH   6  19
TORSDOF 5
ENDMDL
