MODEL 1
REMARK VINA RESULT:      -7.9      0.000      0.000
REMARK  Name = 
REMARK  2 active torsions:
REMARK  status: ('A' for Active; 'I' for Inactive)
REMARK    1  A    between atoms: C_2  and  C_19
REMARK    2  A    between atoms: C_9  and  C_10
REMARK                            x       y       z     vdW  Elec       q    Type
REMARK                         _______ _______ _______ _____ _____    ______ ____
ROOT
ATOM      1  O   UNL     1       0.387   9.872  20.190  0.00  0.00    +0.000 OA
ATOM      2  C   UNL     1       0.385   8.968  21.010  0.00  0.00    +0.000 C 
ATOM      3  N   UNL     1       1.079   7.781  20.967  0.00  0.00    +0.000 N 
ATOM      4  C   UNL     1       1.948   7.386  19.942  0.00  0.00    +0.000 A 
ATOM      5  C   UNL     1       2.555   6.141  20.073  0.00  0.00    +0.000 A 
ATOM      6  C   UNL     1       3.396   5.671  19.057  0.00  0.00    +0.000 A 
ATOM      7  C   UNL     1       3.995   4.407  19.126  0.00  0.00    +0.000 A 
ATOM      8  C   UNL     1       4.810   3.948  18.090  0.00  0.00    +0.000 A 
ATOM      9  C   UNL     1       5.063   4.741  16.963  0.00  0.00    +0.000 A 
ATOM     10  C   UNL     1       4.475   6.013  16.898  0.00  0.00    +0.000 A 
ATOM     11  C   UNL     1       3.636   6.479  17.932  0.00  0.00    +0.000 A 
ATOM     12  C   UNL     1       2.997   7.719  17.910  0.00  0.00    +0.000 A 
ATOM     13  N   UNL     1       2.171   8.175  18.880  0.00  0.00    +0.000 NA
ATOM     14  H   UNL     1       0.929   7.123  21.716  0.00  0.00    +0.000 HD
ENDROOT
BRANCH   9  15
ATOM     15  C   UNL     1       5.926   4.238  15.827  0.00  0.00    +0.000 C 
ATOM     16  C   UNL     1       5.167   3.987  14.522  0.00  0.00    +0.000 C 
ATOM     17  C   UNL     1       6.261   3.943  13.462  0.00  0.00    +0.000 C 
ATOM     18  C   UNL     1       7.383   4.844  13.974  0.00  0.00    +0.000 C 
ATOM     19  C   UNL     1       7.019   5.226  15.406  0.00  0.00    +0.000 C 
ENDBRANCH   9  15
BRANCH   2  20
ATOM     20  C   UNL     1      -0.471   9.091  22.236  0.00  0.00    +0.000 C 
ATOM     21  C   UNL     1       0.150   9.517  23.548  0.00  0.00    +0.000 C 
ATOM     22  C   UNL     1      -0.764  10.455  22.816  0.00  0.00    +0.000 C 
ENDBRANCH   2  20
TORSDOF 2
ENDMDL
MODEL 2
REMARK VINA RESULT:      -7.9      2.364      8.452
REMARK  Name = 
REMARK  2 active torsions:
REMARK  status: ('A' for Active; 'I' for Inactive)
REMARK    1  A    between atoms: C_2  and  C_19
REMARK    2  A    between atoms: C_9  and  C_10
REMARK                            x       y       z     vdW  Elec       q    Type
REMARK                         _______ _______ _______ _____ _____    ______ ____
ROOT
ATOM      1  O   UNL     1       5.183   3.638  17.930  0.00  0.00    +0.000 OA
ATOM      2  C   UNL     1       5.309   4.413  16.994  0.00  0.00    +0.000 C 
ATOM      3  N   UNL     1       4.738   5.654  16.836  0.00  0.00    +0.000 N 
ATOM      4  C   UNL     1       3.885   6.278  17.755  0.00  0.00    +0.000 A 
ATOM      5  C   UNL     1       3.399   7.535  17.414  0.00  0.00    +0.000 A 
ATOM      6  C   UNL     1       2.504   8.187  18.270  0.00  0.00    +0.000 A 
ATOM      7  C   UNL     1       1.956   9.436  17.948  0.00  0.00    +0.000 A 
ATOM      8  C   UNL     1       1.046  10.056  18.805  0.00  0.00    +0.000 A 
ATOM      9  C   UNL     1       0.666   9.458  20.014  0.00  0.00    +0.000 A 
ATOM     10  C   UNL     1       1.224   8.213  20.345  0.00  0.00    +0.000 A 
ATOM     11  C   UNL     1       2.131   7.570  19.477  0.00  0.00    +0.000 A 
ATOM     12  C   UNL     1       2.693   6.321  19.735  0.00  0.00    +0.000 A 
ATOM     13  N   UNL     1       3.548   5.676  18.906  0.00  0.00    +0.000 NA
ATOM     14  H   UNL     1       4.919   6.146  15.975  0.00  0.00    +0.000 HD
ENDROOT
BRANCH   9  15
ATOM     15  C   UNL     1      -0.338  10.116  20.934  0.00  0.00    +0.000 C 
ATOM     16  C   UNL     1      -0.341   9.565  22.362  0.00  0.00    +0.000 C 
ATOM     17  C   UNL     1      -1.056  10.640  23.171  0.00  0.00    +0.000 C 
ATOM     18  C   UNL     1      -0.775  11.962  22.458  0.00  0.00    +0.000 C 
ATOM     19  C   UNL     1      -0.086  11.613  21.142  0.00  0.00    +0.000 C 
ENDBRANCH   9  15
BRANCH   2  20
ATOM     20  C   UNL     1       6.167   4.020  15.827  0.00  0.00    +0.000 C 
ATOM     21  C   UNL     1       5.596   4.059  14.427  0.00  0.00    +0.000 C 
ATOM     22  C   UNL     1       6.625   5.071  14.842  0.00  0.00    +0.000 C 
ENDBRANCH   2  20
TORSDOF 2
ENDMDL
MODEL 3
REMARK VINA RESULT:      -7.7      0.912      1.064
REMARK  Name = 
REMARK  2 active torsions:
REMARK  status: ('A' for Active; 'I' for Inactive)
REMARK    1  A    between atoms: C_2  and  C_19
REMARK    2  A    between atoms: C_9  and  C_10
REMARK                            x       y       z     vdW  Elec       q    Type
REMARK                         _______ _______ _______ _____ _____    ______ ____
ROOT
ATOM      1  O   UNL     1       1.260   9.656  19.775  0.00  0.00    +0.000 OA
ATOM      2  C   UNL     1       1.101   8.645  20.440  0.00  0.00    +0.000 C 
ATOM      3  N   UNL     1       1.640   7.397  20.231  0.00  0.00    +0.000 N 
ATOM      4  C   UNL     1       2.506   7.052  19.185  0.00  0.00    +0.000 A 
ATOM      5  C   UNL     1       2.943   5.733  19.136  0.00  0.00    +0.000 A 
ATOM      6  C   UNL     1       3.771   5.317  18.086  0.00  0.00    +0.000 A 
ATOM      7  C   UNL     1       4.201   3.989  17.971  0.00  0.00    +0.000 A 
ATOM      8  C   UNL     1       5.006   3.591  16.903  0.00  0.00    +0.000 A 
ATOM      9  C   UNL     1       5.417   4.507  15.925  0.00  0.00    +0.000 A 
ATOM     10  C   UNL     1       4.998   5.841  16.045  0.00  0.00    +0.000 A 
ATOM     11  C   UNL     1       4.170   6.249  17.112  0.00  0.00    +0.000 A 
ATOM     12  C   UNL     1       3.696   7.551  17.267  0.00  0.00    +0.000 A 
ATOM     13  N   UNL     1       2.883   7.959  18.270  0.00  0.00    +0.000 NA
ATOM     14  H   UNL     1       1.369   6.658  20.860  0.00  0.00    +0.000 HD
ENDROOT
BRANCH   9  15
ATOM     15  C   UNL     1       6.269   4.074  14.753  0.00  0.00    +0.000 C 
ATOM     16  C   UNL     1       5.472   3.687  13.504  0.00  0.00    +0.000 C 
ATOM     17  C   UNL     1       6.500   3.741  12.380  0.00  0.00    +0.000 C 
ATOM     18  C   UNL     1       7.529   4.789  12.798  0.00  0.00    +0.000 C 
ATOM     19  C   UNL     1       7.204   5.174  14.238  0.00  0.00    +0.000 C 
ENDBRANCH   9  15
BRANCH   2  20
ATOM     20  C   UNL     1       0.203   8.690  21.641  0.00  0.00    +0.000 C 
ATOM     21  C   UNL     1       0.667   9.386  22.902  0.00  0.00    +0.000 C 
ATOM     22  C   UNL     1      -0.418  10.001  22.068  0.00  0.00    +0.000 C 
ENDBRANCH   2  20
TORSDOF 2
ENDMDL
MODEL 4
REMARK VINA RESULT:      -7.5      2.289      8.474
REMARK  Name = 
REMARK  2 active torsions:
REMARK  status: ('A' for Active; 'I' for Inactive)
REMARK    1  A    between atoms: C_2  and  C_19
REMARK    2  A    between atoms: C_9  and  C_10
REMARK                            x       y       z     vdW  Elec       q    Type
REMARK                         _______ _______ _______ _____ _____    ______ ____
ROOT
ATOM      1  O   UNL     1       5.289   6.802  15.427  0.00  0.00    +0.000 OA
ATOM      2  C   UNL     1       5.298   5.914  16.265  0.00  0.00    +0.000 C 
ATOM      3  N   UNL     1       4.566   5.835  17.427  0.00  0.00    +0.000 N 
ATOM      4  C   UNL     1       3.642   6.790  17.870  0.00  0.00    +0.000 A 
ATOM      5  C   UNL     1       3.003   6.537  19.079  0.00  0.00    +0.000 A 
ATOM      6  C   UNL     1       2.105   7.478  19.597  0.00  0.00    +0.000 A 
ATOM      7  C   UNL     1       1.470   7.286  20.831  0.00  0.00    +0.000 A 
ATOM      8  C   UNL     1       0.597   8.248  21.340  0.00  0.00    +0.000 A 
ATOM      9  C   UNL     1       0.321   9.424  20.628  0.00  0.00    +0.000 A 
ATOM     10  C   UNL     1       0.946   9.612  19.386  0.00  0.00    +0.000 A 
ATOM     11  C   UNL     1       1.842   8.653  18.871  0.00  0.00    +0.000 A 
ATOM     12  C   UNL     1       2.517   8.798  17.660  0.00  0.00    +0.000 A 
ATOM     13  N   UNL     1       3.399   7.901  17.158  0.00  0.00    +0.000 NA
ATOM     14  H   UNL     1       4.728   5.043  18.029  0.00  0.00    +0.000 HD
ENDROOT
BRANCH   9  15
ATOM     15  C   UNL     1      -0.606  10.480  21.188  0.00  0.00    +0.000 C 
ATOM     16  C   UNL     1      -0.658  10.526  22.717  0.00  0.00    +0.000 C 
ATOM     17  C   UNL     1      -1.254  11.894  23.025  0.00  0.00    +0.000 C 
ATOM     18  C   UNL     1      -0.842  12.804  21.869  0.00  0.00    +0.000 C 
ATOM     19  C   UNL     1      -0.199  11.910  20.814  0.00  0.00    +0.000 C 
ENDBRANCH   9  15
BRANCH   2  20
ATOM     20  C   UNL     1       6.210   4.737  16.077  0.00  0.00    +0.000 C 
ATOM     21  C   UNL     1       5.898   3.707  15.014  0.00  0.00    +0.000 C 
ATOM     22  C   UNL     1       7.063   4.636  14.833  0.00  0.00    +0.000 C 
ENDBRANCH   2  20
TORSDOF 2
ENDMDL
MODEL 5
REMARK VINA RESULT:      -7.5      2.590      4.300
REMARK  Name = 
REMARK  2 active torsions:
REMARK  status: ('A' for Active; 'I' for Inactive)
REMARK    1  A    between atoms: C_2  and  C_19
REMARK    2  A    between atoms: C_9  and  C_10
REMARK                            x       y       z     vdW  Elec       q    Type
REMARK                         _______ _______ _______ _____ _____    ______ ____
ROOT
ATOM      1  O   UNL     1      -1.453  10.880  23.422  0.00  0.00    +0.000 OA
ATOM      2  C   UNL     1      -1.485  11.605  22.439  0.00  0.00    +0.000 C 
ATOM      3  N   UNL     1      -0.885  11.407  21.218  0.00  0.00    +0.000 N 
ATOM      4  C   UNL     1      -0.108  10.296  20.866  0.00  0.00    +0.000 A 
ATOM      5  C   UNL     1       0.424  10.278  19.581  0.00  0.00    +0.000 A 
ATOM      6  C   UNL     1       1.249   9.217  19.189  0.00  0.00    +0.000 A 
ATOM      7  C   UNL     1       1.841   9.178  17.919  0.00  0.00    +0.000 A 
ATOM      8  C   UNL     1       2.680   8.123  17.558  0.00  0.00    +0.000 A 
ATOM      9  C   UNL     1       2.943   7.070  18.445  0.00  0.00    +0.000 A 
ATOM     10  C   UNL     1       2.341   7.101  19.712  0.00  0.00    +0.000 A 
ATOM     11  C   UNL     1       1.505   8.171  20.093  0.00  0.00    +0.000 A 
ATOM     12  C   UNL     1       0.905   8.275  21.347  0.00  0.00    +0.000 A 
ATOM     13  N   UNL     1       0.118   9.304  21.741  0.00  0.00    +0.000 NA
ATOM     14  H   UNL     1      -0.982  12.133  20.525  0.00  0.00    +0.000 HD
ENDROOT
BRANCH   9  15
ATOM     15  C   UNL     1       3.871   5.938  18.065  0.00  0.00    +0.000 C 
ATOM     16  C   UNL     1       4.701   5.386  19.228  0.00  0.00    +0.000 C 
ATOM     17  C   UNL     1       5.177   4.028  18.729  0.00  0.00    +0.000 C 
ATOM     18  C   UNL     1       4.107   3.536  17.756  0.00  0.00    +0.000 C 
ATOM     19  C   UNL     1       3.139   4.696  17.545  0.00  0.00    +0.000 C 
ENDBRANCH   9  15
BRANCH   2  20
ATOM     20  C   UNL     1      -2.242  12.899  22.506  0.00  0.00    +0.000 C 
ATOM     21  C   UNL     1      -3.723  12.921  22.199  0.00  0.00    +0.000 C 
ATOM     22  C   UNL     1      -3.251  13.125  23.609  0.00  0.00    +0.000 C 
ENDBRANCH   2  20
TORSDOF 2
ENDMDL
MODEL 6
REMARK VINA RESULT:      -7.4      2.280      9.410
REMARK  Name = 
REMARK  2 active torsions:
REMARK  status: ('A' for Active; 'I' for Inactive)
REMARK    1  A    between atoms: C_2  and  C_19
REMARK    2  A    between atoms: C_9  and  C_10
REMARK                            x       y       z     vdW  Elec       q    Type
REMARK                         _______ _______ _______ _____ _____    ______ ____
ROOT
ATOM      1  O   UNL     1       3.341   7.244  17.585  0.00  0.00    +0.000 OA
ATOM      2  C   UNL     1       3.321   6.565  18.600  0.00  0.00    +0.000 C 
ATOM      3  N   UNL     1       2.643   6.809  19.771  0.00  0.00    +0.000 N 
ATOM      4  C   UNL     1       1.820   7.915  20.017  0.00  0.00    +0.000 A 
ATOM      5  C   UNL     1       1.223   7.993  21.271  0.00  0.00    +0.000 A 
ATOM      6  C   UNL     1       0.429   9.100  21.592  0.00  0.00    +0.000 A 
ATOM      7  C   UNL     1      -0.158   9.241  22.856  0.00  0.00    +0.000 A 
ATOM      8  C   UNL     1      -0.926  10.365  23.163  0.00  0.00    +0.000 A 
ATOM      9  C   UNL     1      -1.144  11.374  22.214  0.00  0.00    +0.000 A 
ATOM     10  C   UNL     1      -0.568  11.228  20.943  0.00  0.00    +0.000 A 
ATOM     11  C   UNL     1       0.224  10.104  20.629  0.00  0.00    +0.000 A 
ATOM     12  C   UNL     1       0.848   9.918  19.396  0.00  0.00    +0.000 A 
ATOM     13  N   UNL     1       1.630   8.859  19.082  0.00  0.00    +0.000 NA
ATOM     14  H   UNL     1       2.771   6.159  20.531  0.00  0.00    +0.000 HD
ENDROOT
BRANCH   9  15
ATOM     15  C   UNL     1      -1.955  12.606  22.551  0.00  0.00    +0.000 C 
ATOM     16  C   UNL     1      -3.133  12.346  23.494  0.00  0.00    +0.000 C 
ATOM     17  C   UNL     1      -3.488  13.727  24.029  0.00  0.00    +0.000 C 
ATOM     18  C   UNL     1      -2.190  14.531  24.020  0.00  0.00    +0.000 C 
ATOM     19  C   UNL     1      -1.153  13.682  23.289  0.00  0.00    +0.000 C 
ENDBRANCH   9  15
BRANCH   2  20
ATOM     20  C   UNL     1       4.127   5.300  18.653  0.00  0.00    +0.000 C 
ATOM     21  C   UNL     1       3.629   4.061  17.942  0.00  0.00    +0.000 C 
ATOM     22  C   UNL     1       4.823   4.798  17.408  0.00  0.00    +0.000 C 
ENDBRANCH   2  20
TORSDOF 2
ENDMDL
MODEL 7
REMARK VINA RESULT:      -7.4      1.572      2.646
REMARK  Name = 
REMARK  2 active torsions:
REMARK  status: ('A' for Active; 'I' for Inactive)
REMARK    1  A    between atoms: C_2  and  C_19
REMARK    2  A    between atoms: C_9  and  C_10
REMARK                            x       y       z     vdW  Elec       q    Type
REMARK                         _______ _______ _______ _____ _____    ______ ____
ROOT
ATOM      1  O   UNL     1      -0.815  12.025  20.473  0.00  0.00    +0.000 OA
ATOM      2  C   UNL     1      -0.779  11.287  21.446  0.00  0.00    +0.000 C 
ATOM      3  N   UNL     1      -0.122  10.086  21.577  0.00  0.00    +0.000 N 
ATOM      4  C   UNL     1       0.658   9.475  20.586  0.00  0.00    +0.000 A 
ATOM      5  C   UNL     1       1.239   8.253  20.904  0.00  0.00    +0.000 A 
ATOM      6  C   UNL     1       1.989   7.571  19.939  0.00  0.00    +0.000 A 
ATOM      7  C   UNL     1       2.558   6.317  20.200  0.00  0.00    +0.000 A 
ATOM      8  C   UNL     1       3.281   5.644  19.214  0.00  0.00    +0.000 A 
ATOM      9  C   UNL     1       3.469   6.206  17.944  0.00  0.00    +0.000 A 
ATOM     10  C   UNL     1       2.911   7.467  17.684  0.00  0.00    +0.000 A 
ATOM     11  C   UNL     1       2.165   8.148  18.669  0.00  0.00    +0.000 A 
ATOM     12  C   UNL     1       1.560   9.387  18.460  0.00  0.00    +0.000 A 
ATOM     13  N   UNL     1       0.820  10.046  19.383  0.00  0.00    +0.000 NA
ATOM     14  H   UNL     1      -0.233   9.584  22.444  0.00  0.00    +0.000 HD
ENDROOT
BRANCH   9  15
ATOM     15  C   UNL     1       4.231   5.468  16.865  0.00  0.00    +0.000 C 
ATOM     16  C   UNL     1       5.186   6.348  16.055  0.00  0.00    +0.000 C 
ATOM     17  C   UNL     1       6.129   5.353  15.389  0.00  0.00    +0.000 C 
ATOM     18  C   UNL     1       6.205   4.150  16.328  0.00  0.00    +0.000 C 
ATOM     19  C   UNL     1       5.152   4.371  17.410  0.00  0.00    +0.000 C 
ENDBRANCH   9  15
BRANCH   2  20
ATOM     20  C   UNL     1      -1.537  11.667  22.683  0.00  0.00    +0.000 C 
ATOM     21  C   UNL     1      -1.486  13.092  23.189  0.00  0.00    +0.000 C 
ATOM     22  C   UNL     1      -2.751  12.563  22.578  0.00  0.00    +0.000 C 
ENDBRANCH   2  20
TORSDOF 2
ENDMDL
MODEL 8
REMARK VINA RESULT:      -7.4      2.507      4.554
REMARK  Name = 
REMARK  2 active torsions:
REMARK  status: ('A' for Active; 'I' for Inactive)
REMARK    1  A    between atoms: C_2  and  C_19
REMARK    2  A    between atoms: C_9  and  C_10
REMARK                            x       y       z     vdW  Elec       q    Type
REMARK                         _______ _______ _______ _____ _____    ______ ____
ROOT
ATOM      1  O   UNL     1      -1.908  11.445  23.443  0.00  0.00    +0.000 OA
ATOM      2  C   UNL     1      -1.978  12.110  22.421  0.00  0.00    +0.000 C 
ATOM      3  N   UNL     1      -1.384  11.863  21.206  0.00  0.00    +0.000 N 
ATOM      4  C   UNL     1      -0.568  10.763  20.909  0.00  0.00    +0.000 A 
ATOM      5  C   UNL     1      -0.050  10.689  19.621  0.00  0.00    +0.000 A 
ATOM      6  C   UNL     1       0.811   9.639  19.280  0.00  0.00    +0.000 A 
ATOM      7  C   UNL     1       1.391   9.548  18.008  0.00  0.00    +0.000 A 
ATOM      8  C   UNL     1       2.265   8.505  17.698  0.00  0.00    +0.000 A 
ATOM      9  C   UNL     1       2.577   7.517  18.642  0.00  0.00    +0.000 A 
ATOM     10  C   UNL     1       1.987   7.600  19.912  0.00  0.00    +0.000 A 
ATOM     11  C   UNL     1       1.115   8.658  20.240  0.00  0.00    +0.000 A 
ATOM     12  C   UNL     1       0.525   8.812  21.494  0.00  0.00    +0.000 A 
ATOM     13  N   UNL     1      -0.296   9.833  21.838  0.00  0.00    +0.000 NA
ATOM     14  H   UNL     1      -1.515  12.543  20.473  0.00  0.00    +0.000 HD
ENDROOT
BRANCH   9  15
ATOM     15  C   UNL     1       3.544   6.399  18.317  0.00  0.00    +0.000 C 
ATOM     16  C   UNL     1       2.874   5.086  17.905  0.00  0.00    +0.000 C 
ATOM     17  C   UNL     1       3.985   4.307  17.213  0.00  0.00    +0.000 C 
ATOM     18  C   UNL     1       4.919   5.351  16.604  0.00  0.00    +0.000 C 
ATOM     19  C   UNL     1       4.457   6.709  17.126  0.00  0.00    +0.000 C 
ENDBRANCH   9  15
BRANCH   2  20
ATOM     20  C   UNL     1      -2.783  13.376  22.422  0.00  0.00    +0.000 C 
ATOM     21  C   UNL     1      -4.293  13.308  22.351  0.00  0.00    +0.000 C 
ATOM     22  C   UNL     1      -3.624  13.733  23.626  0.00  0.00    +0.000 C 
ENDBRANCH   2  20
TORSDOF 2
ENDMDL
MODEL 9
REMARK VINA RESULT:      -7.3      1.778      3.413
REMARK  Name = 
REMARK  2 active torsions:
REMARK  status: ('A' for Active; 'I' for Inactive)
REMARK    1  A    between atoms: C_2  and  C_19
REMARK    2  A    between atoms: C_9  and  C_10
REMARK                            x       y       z     vdW  Elec       q    Type
REMARK                         _______ _______ _______ _____ _____    ______ ____
ROOT
ATOM      1  O   UNL     1      -0.984  10.191  23.292  0.00  0.00    +0.000 OA
ATOM      2  C   UNL     1      -0.933  10.982  22.362  0.00  0.00    +0.000 C 
ATOM      3  N   UNL     1      -0.287  10.834  21.157  0.00  0.00    +0.000 N 
ATOM      4  C   UNL     1       0.447   9.708  20.762  0.00  0.00    +0.000 A 
ATOM      5  C   UNL     1       1.036   9.748  19.503  0.00  0.00    +0.000 A 
ATOM      6  C   UNL     1       1.823   8.673  19.073  0.00  0.00    +0.000 A 
ATOM      7  C   UNL     1       2.471   8.687  17.830  0.00  0.00    +0.000 A 
ATOM      8  C   UNL     1       3.270   7.615  17.432  0.00  0.00    +0.000 A 
ATOM      9  C   UNL     1       3.436   6.491  18.254  0.00  0.00    +0.000 A 
ATOM     10  C   UNL     1       2.778   6.470  19.493  0.00  0.00    +0.000 A 
ATOM     11  C   UNL     1       1.982   7.556  19.912  0.00  0.00    +0.000 A 
ATOM     12  C   UNL     1       1.330   7.606  21.143  0.00  0.00    +0.000 A 
ATOM     13  N   UNL     1       0.580   8.648  21.574  0.00  0.00    +0.000 NA
ATOM     14  H   UNL     1      -0.314  11.609  20.513  0.00  0.00    +0.000 HD
ENDROOT
BRANCH   9  15
ATOM     15  C   UNL     1       4.322   5.338  17.836  0.00  0.00    +0.000 C 
ATOM     16  C   UNL     1       4.814   5.414  16.389  0.00  0.00    +0.000 C 
ATOM     17  C   UNL     1       5.996   4.454  16.351  0.00  0.00    +0.000 C 
ATOM     18  C   UNL     1       6.588   4.456  17.759  0.00  0.00    +0.000 C 
ATOM     19  C   UNL     1       5.624   5.246  18.639  0.00  0.00    +0.000 C 
ENDBRANCH   9  15
BRANCH   2  20
ATOM     20  C   UNL     1      -1.624  12.307  22.487  0.00  0.00    +0.000 C 
ATOM     21  C   UNL     1      -2.931  12.546  21.763  0.00  0.00    +0.000 C 
ATOM     22  C   UNL     1      -2.920  12.411  23.258  0.00  0.00    +0.000 C 
ENDBRANCH   2  20
TORSDOF 2
ENDMDL
