MODEL 1
REMARK VINA RESULT:      -6.9      0.000      0.000
REMARK  Name = 
REMARK  6 active torsions:
REMARK  status: ('A' for Active; 'I' for Inactive)
REMARK    1  A    between atoms: C_1  and  O_2
REMARK    2  A    between atoms: O_2  and  C_3
REMARK    3  A    between atoms: C_3  and  C_4
REMARK    4  A    between atoms: C_9  and  C_10
REMARK    5  A    between atoms: C_9  and  C_11
REMARK    6  A    between atoms: C_13  and  O_14
REMARK                            x       y       z     vdW  Elec       q    Type
REMARK                         _______ _______ _______ _____ _____    ______ ____
ROOT
ATOM      1  C   UNL     1       1.785   3.053  18.627  0.00  0.00    +0.000 C 
ATOM      2  O   UNL     1       1.484   1.998  18.062  0.00  0.00    +0.000 OA
ATOM      3  N   UNL     1       2.968   3.732  18.359  0.00  0.00    +0.000 N 
ATOM      4  C   UNL     1       3.419   4.925  19.073  0.00  0.00    +0.000 C 
ATOM      5  C   UNL     1       3.871   5.999  18.083  0.00  0.00    +0.000 C 
ATOM      6  C   UNL     1       4.962   5.479  17.108  0.00  0.00    +0.000 C 
ATOM      7  C   UNL     1       5.167   6.545  16.008  0.00  0.00    +0.000 C 
ATOM      8  C   UNL     1       4.437   4.181  16.438  0.00  0.00    +0.000 C 
ATOM      9  C   UNL     1       3.946   3.149  17.452  0.00  0.00    +0.000 C 
ENDROOT
BRANCH   6  10
ATOM     10  C   UNL     1       6.295   5.244  17.815  0.00  0.00    +0.000 A 
ATOM     11  C   UNL     1       6.679   5.656  19.120  0.00  0.00    +0.000 A 
ATOM     12  C   UNL     1       7.958   5.184  19.284  0.00  0.00    +0.000 A 
ATOM     13  N   UNL     1       8.273   4.546  18.121  0.00  0.00    +0.000 N 
ATOM     14  N   UNL     1       7.277   4.549  17.223  0.00  0.00    +0.000 NA
ATOM     15  H   UNL     1       9.144   4.082  17.888  0.00  0.00    +0.000 HD
BRANCH  12  16
ATOM     16  O   UNL     1       8.830   5.245  20.279  0.00  0.00    +0.000 OA
ATOM     17  H   UNL     1       9.095   6.181  20.379  0.00  0.00    +0.000 HD
ENDBRANCH  12  16
ENDBRANCH   6  10
BRANCH   1  18
ATOM     18  C   UNL     1       0.822   3.673  19.655  0.00  0.00    +0.000 C 
BRANCH  18  20
ATOM     19  C   UNL     1       1.877   2.923  21.636  0.00  0.00    +0.000 C 
ATOM     20  O   UNL     1       0.668   2.987  20.891  0.00  0.00    +0.000 OA
ENDBRANCH  18  20
ENDBRANCH   1  18
TORSDOF 4
ENDMDL
MODEL 2
REMARK VINA RESULT:      -6.9      2.367      6.207
REMARK  Name = 
REMARK  6 active torsions:
REMARK  status: ('A' for Active; 'I' for Inactive)
REMARK    1  A    between atoms: C_1  and  O_2
REMARK    2  A    between atoms: O_2  and  C_3
REMARK    3  A    between atoms: C_3  and  C_4
REMARK    4  A    between atoms: C_9  and  C_10
REMARK    5  A    between atoms: C_9  and  C_11
REMARK    6  A    between atoms: C_13  and  O_14
REMARK                            x       y       z     vdW  Elec       q    Type
REMARK                         _______ _______ _______ _____ _____    ______ ____
ROOT
ATOM      1  C   UNL     1       6.974   4.512  16.475  0.00  0.00    +0.000 C 
ATOM      2  O   UNL     1       8.042   4.279  17.049  0.00  0.00    +0.000 OA
ATOM      3  N   UNL     1       5.761   4.561  17.150  0.00  0.00    +0.000 N 
ATOM      4  C   UNL     1       4.459   4.729  16.505  0.00  0.00    +0.000 C 
ATOM      5  C   UNL     1       3.643   5.803  17.223  0.00  0.00    +0.000 C 
ATOM      6  C   UNL     1       3.487   5.509  18.739  0.00  0.00    +0.000 C 
ATOM      7  C   UNL     1       2.871   6.758  19.408  0.00  0.00    +0.000 C 
ATOM      8  C   UNL     1       4.900   5.281  19.339  0.00  0.00    +0.000 C 
ATOM      9  C   UNL     1       5.709   4.238  18.569  0.00  0.00    +0.000 C 
ENDROOT
BRANCH   6  10
ATOM     10  C   UNL     1       2.571   4.315  18.998  0.00  0.00    +0.000 A 
ATOM     11  C   UNL     1       1.647   3.709  18.103  0.00  0.00    +0.000 A 
ATOM     12  C   UNL     1       1.091   2.671  18.809  0.00  0.00    +0.000 A 
ATOM     13  N   UNL     1       1.674   2.702  20.041  0.00  0.00    +0.000 N 
ATOM     14  N   UNL     1       2.588   3.673  20.175  0.00  0.00    +0.000 NA
ATOM     15  H   UNL     1       1.496   2.081  20.823  0.00  0.00    +0.000 HD
BRANCH  12  16
ATOM     16  O   UNL     1       0.185   1.751  18.512  0.00  0.00    +0.000 OA
ATOM     17  H   UNL     1       0.609   1.104  17.914  0.00  0.00    +0.000 HD
ENDBRANCH  12  16
ENDBRANCH   6  10
BRANCH   1  18
ATOM     18  C   UNL     1       6.962   4.782  14.960  0.00  0.00    +0.000 C 
BRANCH  18  20
ATOM     19  C   UNL     1       8.148   5.489  13.039  0.00  0.00    +0.000 C 
ATOM     20  O   UNL     1       7.990   5.618  14.445  0.00  0.00    +0.000 OA
ENDBRANCH  18  20
ENDBRANCH   1  18
TORSDOF 4
ENDMDL
MODEL 3
REMARK VINA RESULT:      -6.9      2.439      3.280
REMARK  Name = 
REMARK  6 active torsions:
REMARK  status: ('A' for Active; 'I' for Inactive)
REMARK    1  A    between atoms: C_1  and  O_2
REMARK    2  A    between atoms: O_2  and  C_3
REMARK    3  A    between atoms: C_3  and  C_4
REMARK    4  A    between atoms: C_9  and  C_10
REMARK    5  A    between atoms: C_9  and  C_11
REMARK    6  A    between atoms: C_13  and  O_14
REMARK                            x       y       z     vdW  Elec       q    Type
REMARK                         _______ _______ _______ _____ _____    ______ ____
ROOT
ATOM      1  C   UNL     1       2.917   4.437  19.441  0.00  0.00    +0.000 C 
ATOM      2  O   UNL     1       1.832   5.021  19.363  0.00  0.00    +0.000 OA
ATOM      3  N   UNL     1       3.983   4.728  18.599  0.00  0.00    +0.000 N 
ATOM      4  C   UNL     1       5.249   3.998  18.580  0.00  0.00    +0.000 C 
ATOM      5  C   UNL     1       6.427   4.972  18.593  0.00  0.00    +0.000 C 
ATOM      6  C   UNL     1       6.353   6.001  17.433  0.00  0.00    +0.000 C 
ATOM      7  C   UNL     1       7.435   7.077  17.678  0.00  0.00    +0.000 C 
ATOM      8  C   UNL     1       4.962   6.688  17.480  0.00  0.00    +0.000 C 
ATOM      9  C   UNL     1       3.808   5.687  17.517  0.00  0.00    +0.000 C 
ENDROOT
BRANCH   6  10
ATOM     10  C   UNL     1       6.610   5.350  16.076  0.00  0.00    +0.000 A 
ATOM     11  C   UNL     1       5.873   4.307  15.451  0.00  0.00    +0.000 A 
ATOM     12  C   UNL     1       6.496   4.100  14.245  0.00  0.00    +0.000 A 
ATOM     13  N   UNL     1       7.535   4.982  14.204  0.00  0.00    +0.000 N 
ATOM     14  N   UNL     1       7.614   5.765  15.289  0.00  0.00    +0.000 NA
ATOM     15  H   UNL     1       8.214   5.102  13.460  0.00  0.00    +0.000 HD
BRANCH  12  16
ATOM     16  O   UNL     1       6.271   3.274  13.234  0.00  0.00    +0.000 OA
ATOM     17  H   UNL     1       6.717   2.429  13.442  0.00  0.00    +0.000 HD
ENDBRANCH  12  16
ENDBRANCH   6  10
BRANCH   1  18
ATOM     18  C   UNL     1       3.130   3.358  20.517  0.00  0.00    +0.000 C 
BRANCH  18  20
ATOM     19  C   UNL     1       1.286   2.586  21.783  0.00  0.00    +0.000 C 
ATOM     20  O   UNL     1       2.382   3.488  21.720  0.00  0.00    +0.000 OA
ENDBRANCH  18  20
ENDBRANCH   1  18
TORSDOF 4
ENDMDL
MODEL 4
REMARK VINA RESULT:      -6.8      3.484      5.228
REMARK  Name = 
REMARK  6 active torsions:
REMARK  status: ('A' for Active; 'I' for Inactive)
REMARK    1  A    between atoms: C_1  and  O_2
REMARK    2  A    between atoms: O_2  and  C_3
REMARK    3  A    between atoms: C_3  and  C_4
REMARK    4  A    between atoms: C_9  and  C_10
REMARK    5  A    between atoms: C_9  and  C_11
REMARK    6  A    between atoms: C_13  and  O_14
REMARK                            x       y       z     vdW  Elec       q    Type
REMARK                         _______ _______ _______ _____ _____    ______ ____
ROOT
ATOM      1  C   UNL     1       2.071   7.753  19.238  0.00  0.00    +0.000 C 
ATOM      2  O   UNL     1       1.645   8.392  20.205  0.00  0.00    +0.000 OA
ATOM      3  N   UNL     1       2.244   6.375  19.273  0.00  0.00    +0.000 N 
ATOM      4  C   UNL     1       2.841   5.586  18.198  0.00  0.00    +0.000 C 
ATOM      5  C   UNL     1       1.979   4.362  17.892  0.00  0.00    +0.000 C 
ATOM      6  C   UNL     1       1.723   3.492  19.153  0.00  0.00    +0.000 C 
ATOM      7  C   UNL     1       0.654   2.435  18.796  0.00  0.00    +0.000 C 
ATOM      8  C   UNL     1       1.150   4.409  20.267  0.00  0.00    +0.000 C 
ATOM      9  C   UNL     1       2.008   5.649  20.513  0.00  0.00    +0.000 C 
ENDROOT
BRANCH   6  10
ATOM     10  C   UNL     1       2.987   2.772  19.616  0.00  0.00    +0.000 A 
ATOM     11  C   UNL     1       3.397   2.490  20.948  0.00  0.00    +0.000 A 
ATOM     12  C   UNL     1       4.586   1.814  20.823  0.00  0.00    +0.000 A 
ATOM     13  N   UNL     1       4.829   1.731  19.484  0.00  0.00    +0.000 N 
ATOM     14  N   UNL     1       3.868   2.283  18.730  0.00  0.00    +0.000 NA
ATOM     15  H   UNL     1       5.626   1.300  19.027  0.00  0.00    +0.000 HD
BRANCH  12  16
ATOM     16  O   UNL     1       5.432   1.292  21.697  0.00  0.00    +0.000 OA
ATOM     17  H   UNL     1       5.404   0.320  21.587  0.00  0.00    +0.000 HD
ENDBRANCH  12  16
ENDBRANCH   6  10
BRANCH   1  18
ATOM     18  C   UNL     1       2.412   8.483  17.927  0.00  0.00    +0.000 C 
BRANCH  18  20
ATOM     19  C   UNL     1       2.108  10.829  18.005  0.00  0.00    +0.000 C 
ATOM     20  O   UNL     1       1.585   9.582  17.566  0.00  0.00    +0.000 OA
ENDBRANCH  18  20
ENDBRANCH   1  18
TORSDOF 4
ENDMDL
MODEL 5
REMARK VINA RESULT:      -6.7      2.702      3.684
REMARK  Name = 
REMARK  6 active torsions:
REMARK  status: ('A' for Active; 'I' for Inactive)
REMARK    1  A    between atoms: C_1  and  O_2
REMARK    2  A    between atoms: O_2  and  C_3
REMARK    3  A    between atoms: C_3  and  C_4
REMARK    4  A    between atoms: C_9  and  C_10
REMARK    5  A    between atoms: C_9  and  C_11
REMARK    6  A    between atoms: C_13  and  O_14
REMARK                            x       y       z     vdW  Elec       q    Type
REMARK                         _______ _______ _______ _____ _____    ______ ____
ROOT
ATOM      1  C   UNL     1       2.564   6.126  18.804  0.00  0.00    +0.000 C 
ATOM      2  O   UNL     1       2.228   7.309  18.908  0.00  0.00    +0.000 OA
ATOM      3  N   UNL     1       3.718   5.734  18.137  0.00  0.00    +0.000 N 
ATOM      4  C   UNL     1       4.106   4.346  17.895  0.00  0.00    +0.000 C 
ATOM      5  C   UNL     1       5.572   4.128  18.268  0.00  0.00    +0.000 C 
ATOM      6  C   UNL     1       6.519   5.114  17.531  0.00  0.00    +0.000 C 
ATOM      7  C   UNL     1       7.927   4.981  18.154  0.00  0.00    +0.000 C 
ATOM      8  C   UNL     1       6.008   6.558  17.782  0.00  0.00    +0.000 C 
ATOM      9  C   UNL     1       4.527   6.729  17.448  0.00  0.00    +0.000 C 
ENDROOT
BRANCH   6  10
ATOM     10  C   UNL     1       6.614   4.806  16.039  0.00  0.00    +0.000 A 
ATOM     11  C   UNL     1       6.036   3.718  15.329  0.00  0.00    +0.000 A 
ATOM     12  C   UNL     1       6.402   3.908  14.020  0.00  0.00    +0.000 A 
ATOM     13  N   UNL     1       7.154   5.045  14.003  0.00  0.00    +0.000 N 
ATOM     14  N   UNL     1       7.281   5.620  15.206  0.00  0.00    +0.000 NA
ATOM     15  H   UNL     1       7.596   5.480  13.200  0.00  0.00    +0.000 HD
BRANCH  12  16
ATOM     16  O   UNL     1       6.165   3.237  12.902  0.00  0.00    +0.000 OA
ATOM     17  H   UNL     1       7.014   3.154  12.425  0.00  0.00    +0.000 HD
ENDBRANCH  12  16
ENDBRANCH   6  10
BRANCH   1  18
ATOM     18  C   UNL     1       1.702   5.025  19.447  0.00  0.00    +0.000 C 
BRANCH  18  20
ATOM     19  C   UNL     1       2.099   3.562  21.264  0.00  0.00    +0.000 C 
ATOM     20  O   UNL     1       1.779   4.887  20.860  0.00  0.00    +0.000 OA
ENDBRANCH  18  20
ENDBRANCH   1  18
TORSDOF 4
ENDMDL
MODEL 6
REMARK VINA RESULT:      -6.7      2.512      5.806
REMARK  Name = 
REMARK  6 active torsions:
REMARK  status: ('A' for Active; 'I' for Inactive)
REMARK    1  A    between atoms: C_1  and  O_2
REMARK    2  A    between atoms: O_2  and  C_3
REMARK    3  A    between atoms: C_3  and  C_4
REMARK    4  A    between atoms: C_9  and  C_10
REMARK    5  A    between atoms: C_9  and  C_11
REMARK    6  A    between atoms: C_13  and  O_14
REMARK                            x       y       z     vdW  Elec       q    Type
REMARK                         _______ _______ _______ _____ _____    ______ ____
ROOT
ATOM      1  C   UNL     1       6.376   6.009  16.804  0.00  0.00    +0.000 C 
ATOM      2  O   UNL     1       6.598   7.223  16.789  0.00  0.00    +0.000 OA
ATOM      3  N   UNL     1       5.262   5.461  17.427  0.00  0.00    +0.000 N 
ATOM      4  C   UNL     1       5.007   4.028  17.564  0.00  0.00    +0.000 C 
ATOM      5  C   UNL     1       3.571   3.701  17.159  0.00  0.00    +0.000 C 
ATOM      6  C   UNL     1       2.530   4.536  17.954  0.00  0.00    +0.000 C 
ATOM      7  C   UNL     1       1.144   4.316  17.306  0.00  0.00    +0.000 C 
ATOM      8  C   UNL     1       2.902   6.036  17.814  0.00  0.00    +0.000 C 
ATOM      9  C   UNL     1       4.358   6.322  18.177  0.00  0.00    +0.000 C 
ENDROOT
BRANCH   6  10
ATOM     10  C   UNL     1       2.457   4.111  19.418  0.00  0.00    +0.000 A 
ATOM     11  C   UNL     1       2.685   2.821  19.970  0.00  0.00    +0.000 A 
ATOM     12  C   UNL     1       2.514   2.973  21.323  0.00  0.00    +0.000 A 
ATOM     13  N   UNL     1       2.199   4.286  21.515  0.00  0.00    +0.000 N 
ATOM     14  N   UNL     1       2.179   5.001  20.383  0.00  0.00    +0.000 NA
ATOM     15  H   UNL     1       1.999   4.750  22.395  0.00  0.00    +0.000 HD
BRANCH  12  16
ATOM     16  O   UNL     1       2.599   2.141  22.351  0.00  0.00    +0.000 OA
ATOM     17  H   UNL     1       1.995   2.472  23.046  0.00  0.00    +0.000 HD
ENDBRANCH  12  16
ENDBRANCH   6  10
BRANCH   1  18
ATOM     18  C   UNL     1       7.343   5.045  16.093  0.00  0.00    +0.000 C 
BRANCH  18  20
ATOM     19  C   UNL     1       6.548   4.369  13.969  0.00  0.00    +0.000 C 
ATOM     20  O   UNL     1       7.470   5.181  14.683  0.00  0.00    +0.000 OA
ENDBRANCH  18  20
ENDBRANCH   1  18
TORSDOF 4
ENDMDL
MODEL 7
REMARK VINA RESULT:      -6.6      2.693      5.742
REMARK  Name = 
REMARK  6 active torsions:
REMARK  status: ('A' for Active; 'I' for Inactive)
REMARK    1  A    between atoms: C_1  and  O_2
REMARK    2  A    between atoms: O_2  and  C_3
REMARK    3  A    between atoms: C_3  and  C_4
REMARK    4  A    between atoms: C_9  and  C_10
REMARK    5  A    between atoms: C_9  and  C_11
REMARK    6  A    between atoms: C_13  and  O_14
REMARK                            x       y       z     vdW  Elec       q    Type
REMARK                         _______ _______ _______ _____ _____    ______ ____
ROOT
ATOM      1  C   UNL     1       6.379   4.305  16.059  0.00  0.00    +0.000 C 
ATOM      2  O   UNL     1       7.578   4.540  16.235  0.00  0.00    +0.000 OA
ATOM      3  N   UNL     1       5.446   4.380  17.087  0.00  0.00    +0.000 N 
ATOM      4  C   UNL     1       4.038   4.011  16.957  0.00  0.00    +0.000 C 
ATOM      5  C   UNL     1       3.145   5.097  17.556  0.00  0.00    +0.000 C 
ATOM      6  C   UNL     1       3.511   5.413  19.032  0.00  0.00    +0.000 C 
ATOM      7  C   UNL     1       2.730   6.676  19.459  0.00  0.00    +0.000 C 
ATOM      8  C   UNL     1       5.029   5.732  19.099  0.00  0.00    +0.000 C 
ATOM      9  C   UNL     1       5.890   4.651  18.447  0.00  0.00    +0.000 C 
ENDROOT
BRANCH   6  10
ATOM     10  C   UNL     1       3.138   4.268  19.970  0.00  0.00    +0.000 A 
ATOM     11  C   UNL     1       2.033   4.189  20.861  0.00  0.00    +0.000 A 
ATOM     12  C   UNL     1       2.139   2.957  21.457  0.00  0.00    +0.000 A 
ATOM     13  N   UNL     1       3.254   2.379  20.926  0.00  0.00    +0.000 N 
ATOM     14  N   UNL     1       3.866   3.141  20.009  0.00  0.00    +0.000 NA
ATOM     15  H   UNL     1       3.639   1.466  21.143  0.00  0.00    +0.000 HD
BRANCH  12  16
ATOM     16  O   UNL     1       1.410   2.317  22.359  0.00  0.00    +0.000 OA
ATOM     17  H   UNL     1       2.014   2.036  23.077  0.00  0.00    +0.000 HD
ENDBRANCH  12  16
ENDBRANCH   6  10
BRANCH   1  18
ATOM     18  C   UNL     1       5.868   3.936  14.656  0.00  0.00    +0.000 C 
BRANCH  18  20
ATOM     19  C   UNL     1       6.323   3.469  12.381  0.00  0.00    +0.000 C 
ATOM     20  O   UNL     1       6.780   4.090  13.575  0.00  0.00    +0.000 OA
ENDBRANCH  18  20
ENDBRANCH   1  18
TORSDOF 4
ENDMDL
MODEL 8
REMARK VINA RESULT:      -6.5      2.295      5.922
REMARK  Name = 
REMARK  6 active torsions:
REMARK  status: ('A' for Active; 'I' for Inactive)
REMARK    1  A    between atoms: C_1  and  O_2
REMARK    2  A    between atoms: O_2  and  C_3
REMARK    3  A    between atoms: C_3  and  C_4
REMARK    4  A    between atoms: C_9  and  C_10
REMARK    5  A    between atoms: C_9  and  C_11
REMARK    6  A    between atoms: C_13  and  O_14
REMARK                            x       y       z     vdW  Elec       q    Type
REMARK                         _______ _______ _______ _____ _____    ______ ____
ROOT
ATOM      1  C   UNL     1       6.638   4.330  17.164  0.00  0.00    +0.000 C 
ATOM      2  O   UNL     1       7.724   4.440  17.741  0.00  0.00    +0.000 OA
ATOM      3  N   UNL     1       5.424   4.488  17.822  0.00  0.00    +0.000 N 
ATOM      4  C   UNL     1       4.115   4.265  17.212  0.00  0.00    +0.000 C 
ATOM      5  C   UNL     1       3.176   5.431  17.523  0.00  0.00    +0.000 C 
ATOM      6  C   UNL     1       3.050   5.694  19.048  0.00  0.00    +0.000 C 
ATOM      7  C   UNL     1       2.290   7.026  19.243  0.00  0.00    +0.000 C 
ATOM      8  C   UNL     1       4.478   5.857  19.633  0.00  0.00    +0.000 C 
ATOM      9  C   UNL     1       5.406   4.701  19.262  0.00  0.00    +0.000 C 
ENDROOT
BRANCH   6  10
ATOM     10  C   UNL     1       2.278   4.584  19.757  0.00  0.00    +0.000 A 
ATOM     11  C   UNL     1       2.474   4.083  21.073  0.00  0.00    +0.000 A 
ATOM     12  C   UNL     1       1.518   3.111  21.233  0.00  0.00    +0.000 A 
ATOM     13  N   UNL     1       0.827   3.068  20.058  0.00  0.00    +0.000 N 
ATOM     14  N   UNL     1       1.253   3.962  19.156  0.00  0.00    +0.000 NA
ATOM     15  H   UNL     1       0.052   2.458  19.820  0.00  0.00    +0.000 HD
BRANCH  12  16
ATOM     16  O   UNL     1       1.199   2.304  22.235  0.00  0.00    +0.000 OA
ATOM     17  H   UNL     1       0.237   2.394  22.388  0.00  0.00    +0.000 HD
ENDBRANCH  12  16
ENDBRANCH   6  10
BRANCH   1  18
ATOM     18  C   UNL     1       6.599   4.027  15.656  0.00  0.00    +0.000 C 
BRANCH  18  20
ATOM     19  C   UNL     1       7.071   4.740  13.449  0.00  0.00    +0.000 C 
ATOM     20  O   UNL     1       7.445   4.806  14.819  0.00  0.00    +0.000 OA
ENDBRANCH  18  20
ENDBRANCH   1  18
TORSDOF 4
ENDMDL
MODEL 9
REMARK VINA RESULT:      -6.4      2.070      6.048
REMARK  Name = 
REMARK  6 active torsions:
REMARK  status: ('A' for Active; 'I' for Inactive)
REMARK    1  A    between atoms: C_1  and  O_2
REMARK    2  A    between atoms: O_2  and  C_3
REMARK    3  A    between atoms: C_3  and  C_4
REMARK    4  A    between atoms: C_9  and  C_10
REMARK    5  A    between atoms: C_9  and  C_11
REMARK    6  A    between atoms: C_13  and  O_14
REMARK                            x       y       z     vdW  Elec       q    Type
REMARK                         _______ _______ _______ _____ _____    ______ ____
ROOT
ATOM      1  C   UNL     1       7.064   4.573  17.780  0.00  0.00    +0.000 C 
ATOM      2  O   UNL     1       7.907   4.657  18.678  0.00  0.00    +0.000 OA
ATOM      3  N   UNL     1       5.701   4.690  18.023  0.00  0.00    +0.000 N 
ATOM      4  C   UNL     1       4.659   4.494  17.017  0.00  0.00    +0.000 C 
ATOM      5  C   UNL     1       3.645   5.636  17.070  0.00  0.00    +0.000 C 
ATOM      6  C   UNL     1       3.034   5.815  18.486  0.00  0.00    +0.000 C 
ATOM      7  C   UNL     1       2.223   7.131  18.495  0.00  0.00    +0.000 C 
ATOM      8  C   UNL     1       4.197   5.952  19.504  0.00  0.00    +0.000 C 
ATOM      9  C   UNL     1       5.220   4.823  19.391  0.00  0.00    +0.000 C 
ENDROOT
BRANCH   6  10
ATOM     10  C   UNL     1       2.101   4.664  18.855  0.00  0.00    +0.000 A 
ATOM     11  C   UNL     1       1.713   3.558  18.050  0.00  0.00    +0.000 A 
ATOM     12  C   UNL     1       0.885   2.807  18.847  0.00  0.00    +0.000 A 
ATOM     13  N   UNL     1       0.810   3.468  20.037  0.00  0.00    +0.000 N 
ATOM     14  N   UNL     1       1.553   4.583  20.077  0.00  0.00    +0.000 NA
ATOM     15  H   UNL     1       0.279   3.201  20.859  0.00  0.00    +0.000 HD
BRANCH  12  16
ATOM     16  O   UNL     1       0.225   1.673  18.661  0.00  0.00    +0.000 OA
ATOM     17  H   UNL     1      -0.595   1.721  19.192  0.00  0.00    +0.000 HD
ENDBRANCH  12  16
ENDBRANCH   6  10
BRANCH   1  18
ATOM     18  C   UNL     1       7.514   4.353  16.325  0.00  0.00    +0.000 C 
BRANCH  18  20
ATOM     19  C   UNL     1       7.042   5.093  14.127  0.00  0.00    +0.000 C 
ATOM     20  O   UNL     1       7.422   5.466  15.445  0.00  0.00    +0.000 OA
ENDBRANCH  18  20
ENDBRANCH   1  18
TORSDOF 4
ENDMDL
