MODEL 1
REMARK VINA RESULT:      -7.9      0.000      0.000
REMARK  Name = 
REMARK  8 active torsions:
REMARK  status: ('A' for Active; 'I' for Inactive)
REMARK    1  A    between atoms: O_1  and  C_2
REMARK    2  A    between atoms: C_2  and  C_3
REMARK    3  A    between atoms: C_2  and  C_18
REMARK    4  A    between atoms: C_3  and  O_4
REMARK    5  A    between atoms: O_4  and  C_5
REMARK    6  A    between atoms: C_9  and  C_10
REMARK    7  A    between atoms: C_10  and  N_11
REMARK    8  A    between atoms: C_18  and  N_19
REMARK                            x       y       z     vdW  Elec       q    Type
REMARK                         _______ _______ _______ _____ _____    ______ ____
ROOT
ATOM      1  C   UNL     1       7.641   8.339  17.562  0.00  0.00    +0.000 C 
ENDROOT
BRANCH   1   2
ATOM      2  C   UNL     1       7.281   6.833  17.527  0.00  0.00    +0.000 C 
BRANCH   2   3
ATOM      3  O   UNL     1       7.682   6.296  16.261  0.00  0.00    +0.000 OA
ATOM      4  H   UNL     1       6.942   5.736  15.964  0.00  0.00    +0.000 HD
ENDBRANCH   2   3
BRANCH   2   5
ATOM      5  C   UNL     1       5.756   6.684  17.705  0.00  0.00    +0.000 C 
BRANCH   5   6
ATOM      6  N   UNL     1       5.137   5.373  17.962  0.00  0.00    +0.000 NA
ATOM      7  C   UNL     1       3.984   4.938  17.147  0.00  0.00    +0.000 C 
ATOM      8  C   UNL     1       3.477   3.492  17.608  0.00  0.00    +0.000 C 
ATOM      9  C   UNL     1       3.300   3.422  19.138  0.00  0.00    +0.000 A 
ATOM     10  C   UNL     1       2.416   2.552  19.759  0.00  0.00    +0.000 A 
ATOM     11  C   UNL     1       1.339   3.112  20.435  0.00  0.00    +0.000 A 
ATOM     12  C   UNL     1       1.204   4.502  20.456  0.00  0.00    +0.000 A 
ATOM     13  C   UNL     1       2.304   5.299  20.125  0.00  0.00    +0.000 A 
ATOM     14  C   UNL     1       3.464   4.679  19.684  0.00  0.00    +0.000 A 
ATOM     15  C   UNL     1       4.801   5.299  19.400  0.00  0.00    +0.000 C 
ENDBRANCH   5   6
ENDBRANCH   2   5
ENDBRANCH   1   2
BRANCH   1  16
ATOM     16  O   UNL     1       8.638   8.587  18.561  0.00  0.00    +0.000 OA
BRANCH  16  17
ATOM     17  C   UNL     1       8.884   9.901  18.850  0.00  0.00    +0.000 A 
ATOM     18  C   UNL     1       8.875  10.764  17.743  0.00  0.00    +0.000 A 
ATOM     19  C   UNL     1       9.138  12.133  17.891  0.00  0.00    +0.000 A 
ATOM     20  C   UNL     1       9.406  12.662  19.149  0.00  0.00    +0.000 A 
ATOM     21  C   UNL     1       9.450  11.823  20.261  0.00  0.00    +0.000 A 
ATOM     22  C   UNL     1       9.187  10.447  20.097  0.00  0.00    +0.000 A 
BRANCH  21  23
ATOM     23  C   UNL     1       9.724  12.393  21.645  0.00  0.00    +0.000 C 
BRANCH  23  24
ATOM     24  N   UNL     1       8.509  12.644  22.452  0.00  0.00    +0.000 NA
ATOM     25  C   UNL     1       8.272  11.530  23.387  0.00  0.00    +0.000 C 
ATOM     26  C   UNL     1       7.169  11.811  24.408  0.00  0.00    +0.000 C 
ATOM     27  C   UNL     1       7.437  13.121  25.167  0.00  0.00    +0.000 C 
ATOM     28  C   UNL     1       7.573  14.232  24.160  0.00  0.00    +0.000 C 
ATOM     29  C   UNL     1       8.679  13.940  23.132  0.00  0.00    +0.000 C 
ENDBRANCH  23  24
ENDBRANCH  21  23
ENDBRANCH  16  17
ENDBRANCH   1  16
TORSDOF 8
ENDMDL
MODEL 2
REMARK VINA RESULT:      -7.8      5.163      7.495
REMARK  Name = 
REMARK  8 active torsions:
REMARK  status: ('A' for Active; 'I' for Inactive)
REMARK    1  A    between atoms: O_1  and  C_2
REMARK    2  A    between atoms: C_2  and  C_3
REMARK    3  A    between atoms: C_2  and  C_18
REMARK    4  A    between atoms: C_3  and  O_4
REMARK    5  A    between atoms: O_4  and  C_5
REMARK    6  A    between atoms: C_9  and  C_10
REMARK    7  A    between atoms: C_10  and  N_11
REMARK    8  A    between atoms: C_18  and  N_19
REMARK                            x       y       z     vdW  Elec       q    Type
REMARK                         _______ _______ _______ _____ _____    ______ ____
ROOT
ATOM      1  C   UNL     1       1.856   2.412  19.670  0.00  0.00    +0.000 C 
ENDROOT
BRANCH   1   2
ATOM      2  C   UNL     1       2.996   2.093  20.669  0.00  0.00    +0.000 C 
BRANCH   2   3
ATOM      3  O   UNL     1       2.783   2.853  21.864  0.00  0.00    +0.000 OA
ATOM      4  H   UNL     1       1.902   3.259  21.766  0.00  0.00    +0.000 HD
ENDBRANCH   2   3
BRANCH   2   5
ATOM      5  C   UNL     1       4.343   2.484  20.027  0.00  0.00    +0.000 C 
BRANCH   5   6
ATOM      6  N   UNL     1       4.437   3.579  19.047  0.00  0.00    +0.000 NA
ATOM      7  C   UNL     1       5.190   3.374  17.793  0.00  0.00    +0.000 C 
ATOM      8  C   UNL     1       5.162   4.696  16.891  0.00  0.00    +0.000 C 
ATOM      9  C   UNL     1       5.532   5.945  17.716  0.00  0.00    +0.000 A 
ATOM     10  C   UNL     1       6.095   7.082  17.157  0.00  0.00    +0.000 A 
ATOM     11  C   UNL     1       7.395   7.401  17.530  0.00  0.00    +0.000 A 
ATOM     12  C   UNL     1       8.059   6.571  18.436  0.00  0.00    +0.000 A 
ATOM     13  C   UNL     1       7.317   5.674  19.209  0.00  0.00    +0.000 A 
ATOM     14  C   UNL     1       5.955   5.563  18.974  0.00  0.00    +0.000 A 
ATOM     15  C   UNL     1       4.935   4.781  19.749  0.00  0.00    +0.000 C 
ENDBRANCH   5   6
ENDBRANCH   2   5
ENDBRANCH   1   2
BRANCH   1  16
ATOM     16  O   UNL     1       1.012   3.444  20.194  0.00  0.00    +0.000 OA
BRANCH  16  17
ATOM     17  C   UNL     1       1.329   4.723  19.826  0.00  0.00    +0.000 A 
ATOM     18  C   UNL     1       1.602   4.897  18.461  0.00  0.00    +0.000 A 
ATOM     19  C   UNL     1       1.967   6.151  17.950  0.00  0.00    +0.000 A 
ATOM     20  C   UNL     1       2.057   7.251  18.796  0.00  0.00    +0.000 A 
ATOM     21  C   UNL     1       1.821   7.100  20.161  0.00  0.00    +0.000 A 
ATOM     22  C   UNL     1       1.458   5.832  20.662  0.00  0.00    +0.000 A 
BRANCH  21  23
ATOM     23  C   UNL     1       1.900   8.299  21.093  0.00  0.00    +0.000 C 
BRANCH  23  24
ATOM     24  N   UNL     1       0.605   8.981  21.318  0.00  0.00    +0.000 NA
ATOM     25  C   UNL     1       0.410   9.256  22.753  0.00  0.00    +0.000 C 
ATOM     26  C   UNL     1      -0.793  10.152  23.048  0.00  0.00    +0.000 C 
ATOM     27  C   UNL     1      -0.721  11.460  22.241  0.00  0.00    +0.000 C 
ATOM     28  C   UNL     1      -0.620  11.109  20.780  0.00  0.00    +0.000 C 
ATOM     29  C   UNL     1       0.588  10.201  20.492  0.00  0.00    +0.000 C 
ENDBRANCH  23  24
ENDBRANCH  21  23
ENDBRANCH  16  17
ENDBRANCH   1  16
TORSDOF 8
ENDMDL
MODEL 3
REMARK VINA RESULT:      -7.7      2.618     10.166
REMARK  Name = 
REMARK  8 active torsions:
REMARK  status: ('A' for Active; 'I' for Inactive)
REMARK    1  A    between atoms: O_1  and  C_2
REMARK    2  A    between atoms: C_2  and  C_3
REMARK    3  A    between atoms: C_2  and  C_18
REMARK    4  A    between atoms: C_3  and  O_4
REMARK    5  A    between atoms: O_4  and  C_5
REMARK    6  A    between atoms: C_9  and  C_10
REMARK    7  A    between atoms: C_10  and  N_11
REMARK    8  A    between atoms: C_18  and  N_19
REMARK                            x       y       z     vdW  Elec       q    Type
REMARK                         _______ _______ _______ _____ _____    ______ ____
ROOT
ATOM      1  C   UNL     1       7.356   8.499  17.838  0.00  0.00    +0.000 C 
ENDROOT
BRANCH   1   2
ATOM      2  C   UNL     1       8.598   9.404  18.033  0.00  0.00    +0.000 C 
BRANCH   2   3
ATOM      3  O   UNL     1       9.080   9.237  19.372  0.00  0.00    +0.000 OA
ATOM      4  H   UNL     1       9.983   8.879  19.285  0.00  0.00    +0.000 HD
ENDBRANCH   2   3
BRANCH   2   5
ATOM      5  C   UNL     1       8.184  10.872  17.800  0.00  0.00    +0.000 C 
BRANCH   5   6
ATOM      6  N   UNL     1       9.181  11.915  17.510  0.00  0.00    +0.000 NA
ATOM      7  C   UNL     1      10.606  11.665  17.808  0.00  0.00    +0.000 C 
ATOM      8  C   UNL     1      11.499  12.935  17.419  0.00  0.00    +0.000 C 
ATOM      9  C   UNL     1      10.898  14.237  17.987  0.00  0.00    +0.000 A 
ATOM     10  C   UNL     1      11.660  15.358  18.277  0.00  0.00    +0.000 A 
ATOM     11  C   UNL     1      11.760  15.734  19.611  0.00  0.00    +0.000 A 
ATOM     12  C   UNL     1      11.098  14.975  20.578  0.00  0.00    +0.000 A 
ATOM     13  C   UNL     1      10.084  14.099  20.179  0.00  0.00    +0.000 A 
ATOM     14  C   UNL     1       9.842  13.936  18.823  0.00  0.00    +0.000 A 
ATOM     15  C   UNL     1       8.737  13.167  18.160  0.00  0.00    +0.000 C 
ENDBRANCH   5   6
ENDBRANCH   2   5
ENDBRANCH   1   2
BRANCH   1  16
ATOM     16  O   UNL     1       7.640   7.466  16.888  0.00  0.00    +0.000 OA
BRANCH  16  17
ATOM     17  C   UNL     1       6.721   6.456  16.808  0.00  0.00    +0.000 A 
ATOM     18  C   UNL     1       7.148   5.319  16.105  0.00  0.00    +0.000 A 
ATOM     19  C   UNL     1       6.298   4.219  15.922  0.00  0.00    +0.000 A 
ATOM     20  C   UNL     1       5.009   4.236  16.447  0.00  0.00    +0.000 A 
ATOM     21  C   UNL     1       4.550   5.364  17.124  0.00  0.00    +0.000 A 
ATOM     22  C   UNL     1       5.415   6.465  17.297  0.00  0.00    +0.000 A 
BRANCH  21  23
ATOM     23  C   UNL     1       3.150   5.387  17.718  0.00  0.00    +0.000 C 
BRANCH  23  24
ATOM     24  N   UNL     1       2.893   4.323  18.714  0.00  0.00    +0.000 NA
ATOM     25  C   UNL     1       2.769   4.899  20.065  0.00  0.00    +0.000 C 
ATOM     26  C   UNL     1       2.285   3.901  21.116  0.00  0.00    +0.000 C 
ATOM     27  C   UNL     1       0.971   3.231  20.681  0.00  0.00    +0.000 C 
ATOM     28  C   UNL     1       1.194   2.580  19.341  0.00  0.00    +0.000 C 
ATOM     29  C   UNL     1       1.688   3.589  18.290  0.00  0.00    +0.000 C 
ENDBRANCH  23  24
ENDBRANCH  21  23
ENDBRANCH  16  17
ENDBRANCH   1  16
TORSDOF 8
ENDMDL
MODEL 4
REMARK VINA RESULT:      -7.6      5.738      7.441
REMARK  Name = 
REMARK  8 active torsions:
REMARK  status: ('A' for Active; 'I' for Inactive)
REMARK    1  A    between atoms: O_1  and  C_2
REMARK    2  A    between atoms: C_2  and  C_3
REMARK    3  A    between atoms: C_2  and  C_18
REMARK    4  A    between atoms: C_3  and  O_4
REMARK    5  A    between atoms: O_4  and  C_5
REMARK    6  A    between atoms: C_9  and  C_10
REMARK    7  A    between atoms: C_10  and  N_11
REMARK    8  A    between atoms: C_18  and  N_19
REMARK                            x       y       z     vdW  Elec       q    Type
REMARK                         _______ _______ _______ _____ _____    ______ ____
ROOT
ATOM      1  C   UNL     1       3.883   6.403  17.518  0.00  0.00    +0.000 C 
ENDROOT
BRANCH   1   2
ATOM      2  C   UNL     1       5.341   6.217  17.030  0.00  0.00    +0.000 C 
BRANCH   2   3
ATOM      3  O   UNL     1       5.465   6.801  15.728  0.00  0.00    +0.000 OA
ATOM      4  H   UNL     1       5.921   6.135  15.181  0.00  0.00    +0.000 HD
ENDBRANCH   2   3
BRANCH   2   5
ATOM      5  C   UNL     1       5.652   4.707  16.964  0.00  0.00    +0.000 C 
BRANCH   5   6
ATOM      6  N   UNL     1       4.692   3.703  17.449  0.00  0.00    +0.000 NA
ATOM      7  C   UNL     1       3.271   3.802  17.057  0.00  0.00    +0.000 C 
ATOM      8  C   UNL     1       2.419   2.613  17.705  0.00  0.00    +0.000 C 
ATOM      9  C   UNL     1       2.705   2.475  19.214  0.00  0.00    +0.000 A 
ATOM     10  C   UNL     1       1.792   1.944  20.112  0.00  0.00    +0.000 A 
ATOM     11  C   UNL     1       1.272   2.801  21.075  0.00  0.00    +0.000 A 
ATOM     12  C   UNL     1       1.690   4.134  21.089  0.00  0.00    +0.000 A 
ATOM     13  C   UNL     1       2.852   4.491  20.399  0.00  0.00    +0.000 A 
ATOM     14  C   UNL     1       3.494   3.528  19.635  0.00  0.00    +0.000 A 
ATOM     15  C   UNL     1       4.810   3.629  18.921  0.00  0.00    +0.000 C 
ENDBRANCH   5   6
ENDBRANCH   2   5
ENDBRANCH   1   2
BRANCH   1  16
ATOM     16  O   UNL     1       3.434   7.735  17.243  0.00  0.00    +0.000 OA
BRANCH  16  17
ATOM     17  C   UNL     1       2.544   8.265  18.137  0.00  0.00    +0.000 A 
ATOM     18  C   UNL     1       2.469   7.595  19.368  0.00  0.00    +0.000 A 
ATOM     19  C   UNL     1       1.579   8.013  20.367  0.00  0.00    +0.000 A 
ATOM     20  C   UNL     1       0.756   9.114  20.154  0.00  0.00    +0.000 A 
ATOM     21  C   UNL     1       0.789   9.780  18.930  0.00  0.00    +0.000 A 
ATOM     22  C   UNL     1       1.686   9.345  17.932  0.00  0.00    +0.000 A 
BRANCH  21  23
ATOM     23  C   UNL     1      -0.094  10.995  18.692  0.00  0.00    +0.000 C 
BRANCH  23  24
ATOM     24  N   UNL     1      -1.540  10.689  18.602  0.00  0.00    +0.000 NA
ATOM     25  C   UNL     1      -2.339  11.911  18.803  0.00  0.00    +0.000 C 
ATOM     26  C   UNL     1      -3.827  11.727  18.507  0.00  0.00    +0.000 C 
ATOM     27  C   UNL     1      -4.044  11.153  17.096  0.00  0.00    +0.000 C 
ATOM     28  C   UNL     1      -3.281   9.860  16.989  0.00  0.00    +0.000 C 
ATOM     29  C   UNL     1      -1.786  10.051  17.297  0.00  0.00    +0.000 C 
ENDBRANCH  23  24
ENDBRANCH  21  23
ENDBRANCH  16  17
ENDBRANCH   1  16
TORSDOF 8
ENDMDL
MODEL 5
REMARK VINA RESULT:      -7.6      2.570     10.476
REMARK  Name = 
REMARK  8 active torsions:
REMARK  status: ('A' for Active; 'I' for Inactive)
REMARK    1  A    between atoms: O_1  and  C_2
REMARK    2  A    between atoms: C_2  and  C_3
REMARK    3  A    between atoms: C_2  and  C_18
REMARK    4  A    between atoms: C_3  and  O_4
REMARK    5  A    between atoms: O_4  and  C_5
REMARK    6  A    between atoms: C_9  and  C_10
REMARK    7  A    between atoms: C_10  and  N_11
REMARK    8  A    between atoms: C_18  and  N_19
REMARK                            x       y       z     vdW  Elec       q    Type
REMARK                         _______ _______ _______ _____ _____    ______ ____
ROOT
ATOM      1  C   UNL     1       8.097   8.997  18.022  0.00  0.00    +0.000 C 
ENDROOT
BRANCH   1   2
ATOM      2  C   UNL     1       9.216   9.806  18.723  0.00  0.00    +0.000 C 
BRANCH   2   3
ATOM      3  O   UNL     1       8.990   9.768  20.137  0.00  0.00    +0.000 OA
ATOM      4  H   UNL     1       9.147  10.676  20.455  0.00  0.00    +0.000 HD
ENDBRANCH   2   3
BRANCH   2   5
ATOM      5  C   UNL     1       9.166  11.263  18.219  0.00  0.00    +0.000 C 
BRANCH   5   6
ATOM      6  N   UNL     1       9.876  12.344  18.922  0.00  0.00    +0.000 NA
ATOM      7  C   UNL     1       9.151  13.578  19.285  0.00  0.00    +0.000 C 
ATOM      8  C   UNL     1      10.122  14.608  20.031  0.00  0.00    +0.000 C 
ATOM      9  C   UNL     1      11.444  14.792  19.259  0.00  0.00    +0.000 A 
ATOM     10  C   UNL     1      12.213  15.944  19.338  0.00  0.00    +0.000 A 
ATOM     11  C   UNL     1      12.331  16.713  18.186  0.00  0.00    +0.000 A 
ATOM     12  C   UNL     1      11.679  16.293  17.025  0.00  0.00    +0.000 A 
ATOM     13  C   UNL     1      11.236  14.971  16.932  0.00  0.00    +0.000 A 
ATOM     14  C   UNL     1      11.365  14.147  18.040  0.00  0.00    +0.000 A 
ATOM     15  C   UNL     1      11.090  12.676  18.145  0.00  0.00    +0.000 C 
ENDBRANCH   5   6
ENDBRANCH   2   5
ENDBRANCH   1   2
BRANCH   1  16
ATOM     16  O   UNL     1       8.197   7.610  18.365  0.00  0.00    +0.000 OA
BRANCH  16  17
ATOM     17  C   UNL     1       7.140   6.824  17.998  0.00  0.00    +0.000 A 
ATOM     18  C   UNL     1       6.525   7.181  16.789  0.00  0.00    +0.000 A 
ATOM     19  C   UNL     1       5.412   6.478  16.306  0.00  0.00    +0.000 A 
ATOM     20  C   UNL     1       4.902   5.400  17.022  0.00  0.00    +0.000 A 
ATOM     21  C   UNL     1       5.475   5.042  18.241  0.00  0.00    +0.000 A 
ATOM     22  C   UNL     1       6.592   5.760  18.716  0.00  0.00    +0.000 A 
BRANCH  21  23
ATOM     23  C   UNL     1       4.937   3.854  19.024  0.00  0.00    +0.000 C 
BRANCH  23  24
ATOM     24  N   UNL     1       3.461   3.804  19.116  0.00  0.00    +0.000 NA
ATOM     25  C   UNL     1       3.005   2.421  19.344  0.00  0.00    +0.000 C 
ATOM     26  C   UNL     1       1.516   2.312  19.672  0.00  0.00    +0.000 C 
ATOM     27  C   UNL     1       1.142   3.218  20.857  0.00  0.00    +0.000 C 
ATOM     28  C   UNL     1       1.546   4.629  20.520  0.00  0.00    +0.000 C 
ATOM     29  C   UNL     1       3.044   4.729  20.183  0.00  0.00    +0.000 C 
ENDBRANCH  23  24
ENDBRANCH  21  23
ENDBRANCH  16  17
ENDBRANCH   1  16
TORSDOF 8
ENDMDL
MODEL 6
REMARK VINA RESULT:      -7.5      2.534      3.321
REMARK  Name = 
REMARK  8 active torsions:
REMARK  status: ('A' for Active; 'I' for Inactive)
REMARK    1  A    between atoms: O_1  and  C_2
REMARK    2  A    between atoms: C_2  and  C_3
REMARK    3  A    between atoms: C_2  and  C_18
REMARK    4  A    between atoms: C_3  and  O_4
REMARK    5  A    between atoms: O_4  and  C_5
REMARK    6  A    between atoms: C_9  and  C_10
REMARK    7  A    between atoms: C_10  and  N_11
REMARK    8  A    between atoms: C_18  and  N_19
REMARK                            x       y       z     vdW  Elec       q    Type
REMARK                         _______ _______ _______ _____ _____    ______ ____
ROOT
ATOM      1  C   UNL     1       7.658   7.294  18.060  0.00  0.00    +0.000 C 
ENDROOT
BRANCH   1   2
ATOM      2  C   UNL     1       7.298   6.088  17.157  0.00  0.00    +0.000 C 
BRANCH   2   3
ATOM      3  O   UNL     1       6.547   6.565  16.034  0.00  0.00    +0.000 OA
ATOM      4  H   UNL     1       5.991   5.816  15.750  0.00  0.00    +0.000 HD
ENDBRANCH   2   3
BRANCH   2   5
ATOM      5  C   UNL     1       6.452   5.092  17.975  0.00  0.00    +0.000 C 
BRANCH   5   6
ATOM      6  N   UNL     1       4.998   4.974  17.776  0.00  0.00    +0.000 NA
ATOM      7  C   UNL     1       4.083   5.854  18.532  0.00  0.00    +0.000 C 
ATOM      8  C   UNL     1       2.559   5.543  18.159  0.00  0.00    +0.000 C 
ATOM      9  C   UNL     1       2.263   4.031  18.223  0.00  0.00    +0.000 A 
ATOM     10  C   UNL     1       1.000   3.516  18.475  0.00  0.00    +0.000 A 
ATOM     11  C   UNL     1       0.821   2.816  19.662  0.00  0.00    +0.000 A 
ATOM     12  C   UNL     1       1.906   2.669  20.528  0.00  0.00    +0.000 A 
ATOM     13  C   UNL     1       3.199   2.897  20.047  0.00  0.00    +0.000 A 
ATOM     14  C   UNL     1       3.352   3.366  18.751  0.00  0.00    +0.000 A 
ATOM     15  C   UNL     1       4.621   3.558  17.973  0.00  0.00    +0.000 C 
ENDBRANCH   5   6
ENDBRANCH   2   5
ENDBRANCH   1   2
BRANCH   1  16
ATOM     16  O   UNL     1       7.833   8.473  17.265  0.00  0.00    +0.000 OA
BRANCH  16  17
ATOM     17  C   UNL     1       8.365   9.557  17.909  0.00  0.00    +0.000 A 
ATOM     18  C   UNL     1       8.998   9.271  19.128  0.00  0.00    +0.000 A 
ATOM     19  C   UNL     1       9.563  10.291  19.907  0.00  0.00    +0.000 A 
ATOM     20  C   UNL     1       9.512  11.612  19.474  0.00  0.00    +0.000 A 
ATOM     21  C   UNL     1       8.864  11.927  18.281  0.00  0.00    +0.000 A 
ATOM     22  C   UNL     1       8.297  10.891  17.509  0.00  0.00    +0.000 A 
BRANCH  21  23
ATOM     23  C   UNL     1       8.818  13.365  17.788  0.00  0.00    +0.000 C 
BRANCH  23  24
ATOM     24  N   UNL     1       7.971  14.262  18.607  0.00  0.00    +0.000 NA
ATOM     25  C   UNL     1       8.736  15.450  19.028  0.00  0.00    +0.000 C 
ATOM     26  C   UNL     1       7.878  16.530  19.687  0.00  0.00    +0.000 C 
ATOM     27  C   UNL     1       6.697  16.926  18.785  0.00  0.00    +0.000 C 
ATOM     28  C   UNL     1       5.904  15.685  18.471  0.00  0.00    +0.000 C 
ATOM     29  C   UNL     1       6.775  14.600  17.816  0.00  0.00    +0.000 C 
ENDBRANCH  23  24
ENDBRANCH  21  23
ENDBRANCH  16  17
ENDBRANCH   1  16
TORSDOF 8
ENDMDL
MODEL 7
REMARK VINA RESULT:      -7.5      2.257      3.555
REMARK  Name = 
REMARK  8 active torsions:
REMARK  status: ('A' for Active; 'I' for Inactive)
REMARK    1  A    between atoms: O_1  and  C_2
REMARK    2  A    between atoms: C_2  and  C_3
REMARK    3  A    between atoms: C_2  and  C_18
REMARK    4  A    between atoms: C_3  and  O_4
REMARK    5  A    between atoms: O_4  and  C_5
REMARK    6  A    between atoms: C_9  and  C_10
REMARK    7  A    between atoms: C_10  and  N_11
REMARK    8  A    between atoms: C_18  and  N_19
REMARK                            x       y       z     vdW  Elec       q    Type
REMARK                         _______ _______ _______ _____ _____    ______ ____
ROOT
ATOM      1  C   UNL     1       7.871   8.615  17.757  0.00  0.00    +0.000 C 
ENDROOT
BRANCH   1   2
ATOM      2  C   UNL     1       7.475   7.127  17.586  0.00  0.00    +0.000 C 
BRANCH   2   3
ATOM      3  O   UNL     1       7.876   6.694  16.281  0.00  0.00    +0.000 OA
ATOM      4  H   UNL     1       7.053   6.452  15.818  0.00  0.00    +0.000 HD
ENDBRANCH   2   3
BRANCH   2   5
ATOM      5  C   UNL     1       5.946   7.000  17.739  0.00  0.00    +0.000 C 
BRANCH   5   6
ATOM      6  N   UNL     1       5.295   5.688  17.889  0.00  0.00    +0.000 NA
ATOM      7  C   UNL     1       4.106   5.365  17.075  0.00  0.00    +0.000 C 
ATOM      8  C   UNL     1       3.569   3.896  17.411  0.00  0.00    +0.000 C 
ATOM      9  C   UNL     1       3.435   3.683  18.933  0.00  0.00    +0.000 A 
ATOM     10  C   UNL     1       2.543   2.783  19.496  0.00  0.00    +0.000 A 
ATOM     11  C   UNL     1       1.505   3.305  20.257  0.00  0.00    +0.000 A 
ATOM     12  C   UNL     1       1.413   4.689  20.415  0.00  0.00    +0.000 A 
ATOM     13  C   UNL     1       2.526   5.483  20.126  0.00  0.00    +0.000 A 
ATOM     14  C   UNL     1       3.653   4.878  19.590  0.00  0.00    +0.000 A 
ATOM     15  C   UNL     1       5.000   5.484  19.324  0.00  0.00    +0.000 C 
ENDBRANCH   5   6
ENDBRANCH   2   5
ENDBRANCH   1   2
BRANCH   1  16
ATOM     16  O   UNL     1       8.635   8.790  18.956  0.00  0.00    +0.000 OA
BRANCH  16  17
ATOM     17  C   UNL     1       9.286   9.986  19.083  0.00  0.00    +0.000 A 
ATOM     18  C   UNL     1       9.373  10.479  20.394  0.00  0.00    +0.000 A 
ATOM     19  C   UNL     1       9.989  11.708  20.666  0.00  0.00    +0.000 A 
ATOM     20  C   UNL     1      10.537  12.460  19.632  0.00  0.00    +0.000 A 
ATOM     21  C   UNL     1      10.438  12.009  18.317  0.00  0.00    +0.000 A 
ATOM     22  C   UNL     1       9.812  10.772  18.057  0.00  0.00    +0.000 A 
BRANCH  21  23
ATOM     23  C   UNL     1      11.048  12.814  17.180  0.00  0.00    +0.000 C 
BRANCH  23  24
ATOM     24  N   UNL     1      10.525  14.194  17.062  0.00  0.00    +0.000 NA
ATOM     25  C   UNL     1       9.310  14.357  17.881  0.00  0.00    +0.000 C 
ATOM     26  C   UNL     1       8.835  15.805  17.991  0.00  0.00    +0.000 C 
ATOM     27  C   UNL     1       9.963  16.722  18.492  0.00  0.00    +0.000 C 
ATOM     28  C   UNL     1      11.136  16.581  17.558  0.00  0.00    +0.000 C 
ATOM     29  C   UNL     1      11.605  15.120  17.445  0.00  0.00    +0.000 C 
ENDBRANCH  23  24
ENDBRANCH  21  23
ENDBRANCH  16  17
ENDBRANCH   1  16
TORSDOF 8
ENDMDL
MODEL 8
REMARK VINA RESULT:      -7.5      1.098      1.373
REMARK  Name = 
REMARK  8 active torsions:
REMARK  status: ('A' for Active; 'I' for Inactive)
REMARK    1  A    between atoms: O_1  and  C_2
REMARK    2  A    between atoms: C_2  and  C_3
REMARK    3  A    between atoms: C_2  and  C_18
REMARK    4  A    between atoms: C_3  and  O_4
REMARK    5  A    between atoms: O_4  and  C_5
REMARK    6  A    between atoms: C_9  and  C_10
REMARK    7  A    between atoms: C_10  and  N_11
REMARK    8  A    between atoms: C_18  and  N_19
REMARK                            x       y       z     vdW  Elec       q    Type
REMARK                         _______ _______ _______ _____ _____    ______ ____
ROOT
ATOM      1  C   UNL     1       7.656   7.686  17.768  0.00  0.00    +0.000 C 
ENDROOT
BRANCH   1   2
ATOM      2  C   UNL     1       7.582   6.139  17.777  0.00  0.00    +0.000 C 
BRANCH   2   3
ATOM      3  O   UNL     1       7.298   5.687  16.448  0.00  0.00    +0.000 OA
ATOM      4  H   UNL     1       8.155   5.678  15.983  0.00  0.00    +0.000 HD
ENDBRANCH   2   3
BRANCH   2   5
ATOM      5  C   UNL     1       6.455   5.702  18.736  0.00  0.00    +0.000 C 
BRANCH   5   6
ATOM      6  N   UNL     1       5.333   4.869  18.273  0.00  0.00    +0.000 NA
ATOM      7  C   UNL     1       4.145   5.511  17.674  0.00  0.00    +0.000 C 
ATOM      8  C   UNL     1       3.058   4.415  17.255  0.00  0.00    +0.000 C 
ATOM      9  C   UNL     1       2.793   3.421  18.403  0.00  0.00    +0.000 A 
ATOM     10  C   UNL     1       1.596   2.735  18.549  0.00  0.00    +0.000 A 
ATOM     11  C   UNL     1       0.821   3.034  19.663  0.00  0.00    +0.000 A 
ATOM     12  C   UNL     1       1.279   3.997  20.565  0.00  0.00    +0.000 A 
ATOM     13  C   UNL     1       2.626   4.369  20.539  0.00  0.00    +0.000 A 
ATOM     14  C   UNL     1       3.440   3.846  19.546  0.00  0.00    +0.000 A 
ATOM     15  C   UNL     1       4.926   3.987  19.388  0.00  0.00    +0.000 C 
ENDBRANCH   5   6
ENDBRANCH   2   5
ENDBRANCH   1   2
BRANCH   1  16
ATOM     16  O   UNL     1       8.640   8.140  18.704  0.00  0.00    +0.000 OA
BRANCH  16  17
ATOM     17  C   UNL     1       8.822   9.495  18.773  0.00  0.00    +0.000 A 
ATOM     18  C   UNL     1       8.337  10.216  17.671  0.00  0.00    +0.000 A 
ATOM     19  C   UNL     1       8.481  11.608  17.597  0.00  0.00    +0.000 A 
ATOM     20  C   UNL     1       9.105  12.303  18.629  0.00  0.00    +0.000 A 
ATOM     21  C   UNL     1       9.622  11.608  19.721  0.00  0.00    +0.000 A 
ATOM     22  C   UNL     1       9.473  10.207  19.780  0.00  0.00    +0.000 A 
BRANCH  21  23
ATOM     23  C   UNL     1      10.290  12.359  20.863  0.00  0.00    +0.000 C 
BRANCH  23  24
ATOM     24  N   UNL     1       9.441  13.398  21.488  0.00  0.00    +0.000 NA
ATOM     25  C   UNL     1       8.898  12.917  22.771  0.00  0.00    +0.000 C 
ATOM     26  C   UNL     1       8.194  14.003  23.585  0.00  0.00    +0.000 C 
ATOM     27  C   UNL     1       9.112  15.219  23.796  0.00  0.00    +0.000 C 
ATOM     28  C   UNL     1       9.552  15.719  22.446  0.00  0.00    +0.000 C 
ATOM     29  C   UNL     1      10.252  14.619  21.629  0.00  0.00    +0.000 C 
ENDBRANCH  23  24
ENDBRANCH  21  23
ENDBRANCH  16  17
ENDBRANCH   1  16
TORSDOF 8
ENDMDL
MODEL 9
REMARK VINA RESULT:      -7.5      2.694      9.415
REMARK  Name = 
REMARK  8 active torsions:
REMARK  status: ('A' for Active; 'I' for Inactive)
REMARK    1  A    between atoms: O_1  and  C_2
REMARK    2  A    between atoms: C_2  and  C_3
REMARK    3  A    between atoms: C_2  and  C_18
REMARK    4  A    between atoms: C_3  and  O_4
REMARK    5  A    between atoms: O_4  and  C_5
REMARK    6  A    between atoms: C_9  and  C_10
REMARK    7  A    between atoms: C_10  and  N_11
REMARK    8  A    between atoms: C_18  and  N_19
REMARK                            x       y       z     vdW  Elec       q    Type
REMARK                         _______ _______ _______ _____ _____    ______ ____
ROOT
ATOM      1  C   UNL     1       6.924   8.005  17.384  0.00  0.00    +0.000 C 
ENDROOT
BRANCH   1   2
ATOM      2  C   UNL     1       8.348   8.397  17.850  0.00  0.00    +0.000 C 
BRANCH   2   3
ATOM      3  O   UNL     1       8.650   7.678  19.051  0.00  0.00    +0.000 OA
ATOM      4  H   UNL     1       8.139   8.113  19.757  0.00  0.00    +0.000 HD
ENDBRANCH   2   3
BRANCH   2   5
ATOM      5  C   UNL     1       8.381   9.916  18.121  0.00  0.00    +0.000 C 
BRANCH   5   6
ATOM      6  N   UNL     1       9.532  10.554  18.780  0.00  0.00    +0.000 NA
ATOM      7  C   UNL     1       9.337  11.272  20.055  0.00  0.00    +0.000 C 
ATOM      8  C   UNL     1      10.720  11.886  20.578  0.00  0.00    +0.000 C 
ATOM      9  C   UNL     1      11.447  12.660  19.460  0.00  0.00    +0.000 A 
ATOM     10  C   UNL     1      12.332  13.698  19.710  0.00  0.00    +0.000 A 
ATOM     11  C   UNL     1      11.962  14.969  19.287  0.00  0.00    +0.000 A 
ATOM     12  C   UNL     1      10.735  15.134  18.641  0.00  0.00    +0.000 A 
ATOM     13  C   UNL     1      10.083  14.013  18.119  0.00  0.00    +0.000 A 
ATOM     14  C   UNL     1      10.627  12.759  18.353  0.00  0.00    +0.000 A 
ATOM     15  C   UNL     1      10.193  11.436  17.794  0.00  0.00    +0.000 C 
ENDBRANCH   5   6
ENDBRANCH   2   5
ENDBRANCH   1   2
BRANCH   1  16
ATOM     16  O   UNL     1       6.954   6.744  16.705  0.00  0.00    +0.000 OA
BRANCH  16  17
ATOM     17  C   UNL     1       5.875   5.928  16.909  0.00  0.00    +0.000 A 
ATOM     18  C   UNL     1       5.979   4.652  16.335  0.00  0.00    +0.000 A 
ATOM     19  C   UNL     1       4.935   3.722  16.442  0.00  0.00    +0.000 A 
ATOM     20  C   UNL     1       3.774   4.051  17.134  0.00  0.00    +0.000 A 
ATOM     21  C   UNL     1       3.632   5.322  17.689  0.00  0.00    +0.000 A 
ATOM     22  C   UNL     1       4.689   6.249  17.569  0.00  0.00    +0.000 A 
BRANCH  21  23
ATOM     23  C   UNL     1       2.374   5.688  18.462  0.00  0.00    +0.000 C 
BRANCH  23  24
ATOM     24  N   UNL     1       2.386   7.053  19.032  0.00  0.00    +0.000 NA
ATOM     25  C   UNL     1       1.806   8.016  18.079  0.00  0.00    +0.000 C 
ATOM     26  C   UNL     1       1.577   9.406  18.672  0.00  0.00    +0.000 C 
ATOM     27  C   UNL     1       0.733   9.327  19.956  0.00  0.00    +0.000 C 
ATOM     28  C   UNL     1       1.429   8.406  20.923  0.00  0.00    +0.000 C 
ATOM     29  C   UNL     1       1.664   7.012  20.316  0.00  0.00    +0.000 C 
ENDBRANCH  23  24
ENDBRANCH  21  23
ENDBRANCH  16  17
ENDBRANCH   1  16
TORSDOF 8
ENDMDL
