MODEL 1
REMARK VINA RESULT:      -4.9      0.000      0.000
REMARK  Name = 
REMARK  6 active torsions:
REMARK  status: ('A' for Active; 'I' for Inactive)
REMARK    1  A    between atoms: C_1  and  N_2
REMARK    2  A    between atoms: N_2  and  C_3
REMARK    3  A    between atoms: N_2  and  C_4
REMARK    4  A    between atoms: C_7  and  N_8
REMARK    5  A    between atoms: N_8  and  C_9
REMARK    6  A    between atoms: N_8  and  C_10
REMARK                            x       y       z     vdW  Elec       q    Type
REMARK                         _______ _______ _______ _____ _____    ______ ____
ROOT
ATOM      1  C   UNL     1       5.331   4.916  17.431  0.00  0.00    +0.000 A 
ATOM      2  C   UNL     1       4.410   4.111  16.742  0.00  0.00    +0.000 A 
ATOM      3  C   UNL     1       3.231   3.666  17.353  0.00  0.00    +0.000 A 
ATOM      4  C   UNL     1       2.897   4.011  18.687  0.00  0.00    +0.000 A 
ATOM      5  C   UNL     1       3.837   4.819  19.372  0.00  0.00    +0.000 A 
ATOM      6  C   UNL     1       5.026   5.249  18.766  0.00  0.00    +0.000 A 
ENDROOT
BRANCH   1   8
ATOM      7  C   UNL     1       7.258   6.559  17.321  0.00  0.00    +0.000 C 
ATOM      8  N   UNL     1       6.531   5.422  16.777  0.00  0.00    +0.000 N 
ATOM      9  C   UNL     1       7.068   4.779  15.581  0.00  0.00    +0.000 C 
ENDBRANCH   1   8
BRANCH   4  10
ATOM     10  N   UNL     1       1.660   3.565  19.319  0.00  0.00    +0.000 N 
ATOM     11  C   UNL     1       1.086   4.205  20.510  0.00  0.00    +0.000 C 
ATOM     12  C   UNL     1       0.864   2.443  18.837  0.00  0.00    +0.000 C 
ENDBRANCH   4  10
TORSDOF 2
ENDMDL
MODEL 2
REMARK VINA RESULT:      -4.9      0.098      1.721
REMARK  Name = 
REMARK  6 active torsions:
REMARK  status: ('A' for Active; 'I' for Inactive)
REMARK    1  A    between atoms: C_1  and  N_2
REMARK    2  A    between atoms: N_2  and  C_3
REMARK    3  A    between atoms: N_2  and  C_4
REMARK    4  A    between atoms: C_7  and  N_8
REMARK    5  A    between atoms: N_8  and  C_9
REMARK    6  A    between atoms: N_8  and  C_10
REMARK                            x       y       z     vdW  Elec       q    Type
REMARK                         _______ _______ _______ _____ _____    ______ ____
ROOT
ATOM      1  C   UNL     1       5.293   4.939  17.405  0.00  0.00    +0.000 A 
ATOM      2  C   UNL     1       4.919   5.371  18.687  0.00  0.00    +0.000 A 
ATOM      3  C   UNL     1       3.735   4.925  19.291  0.00  0.00    +0.000 A 
ATOM      4  C   UNL     1       2.862   4.010  18.650  0.00  0.00    +0.000 A 
ATOM      5  C   UNL     1       3.249   3.586  17.354  0.00  0.00    +0.000 A 
ATOM      6  C   UNL     1       4.425   4.047  16.744  0.00  0.00    +0.000 A 
ENDROOT
BRANCH   1   8
ATOM      7  C   UNL     1       7.049   4.732  15.588  0.00  0.00    +0.000 C 
ATOM      8  N   UNL     1       6.551   5.361  16.802  0.00  0.00    +0.000 N 
ATOM      9  C   UNL     1       7.329   6.459  17.368  0.00  0.00    +0.000 C 
ENDBRANCH   1   8
BRANCH   4  10
ATOM     10  N   UNL     1       1.639   3.528  19.284  0.00  0.00    +0.000 N 
ATOM     11  C   UNL     1       1.064   4.137  20.491  0.00  0.00    +0.000 C 
ATOM     12  C   UNL     1       0.862   2.398  18.790  0.00  0.00    +0.000 C 
ENDBRANCH   4  10
TORSDOF 2
ENDMDL
MODEL 3
REMARK VINA RESULT:      -4.9      0.171      1.033
REMARK  Name = 
REMARK  6 active torsions:
REMARK  status: ('A' for Active; 'I' for Inactive)
REMARK    1  A    between atoms: C_1  and  N_2
REMARK    2  A    between atoms: N_2  and  C_3
REMARK    3  A    between atoms: N_2  and  C_4
REMARK    4  A    between atoms: C_7  and  N_8
REMARK    5  A    between atoms: N_8  and  C_9
REMARK    6  A    between atoms: N_8  and  C_10
REMARK                            x       y       z     vdW  Elec       q    Type
REMARK                         _______ _______ _______ _____ _____    ______ ____
ROOT
ATOM      1  C   UNL     1       5.374   4.910  17.402  0.00  0.00    +0.000 A 
ATOM      2  C   UNL     1       4.571   3.913  16.825  0.00  0.00    +0.000 A 
ATOM      3  C   UNL     1       3.406   3.459  17.457  0.00  0.00    +0.000 A 
ATOM      4  C   UNL     1       2.967   3.986  18.699  0.00  0.00    +0.000 A 
ATOM      5  C   UNL     1       3.789   4.988  19.271  0.00  0.00    +0.000 A 
ATOM      6  C   UNL     1       4.965   5.429  18.647  0.00  0.00    +0.000 A 
ENDROOT
BRANCH   1   8
ATOM      7  C   UNL     1       7.006   4.835  15.463  0.00  0.00    +0.000 C 
ATOM      8  N   UNL     1       6.556   5.419  16.718  0.00  0.00    +0.000 N 
ATOM      9  C   UNL     1       7.299   6.560  17.243  0.00  0.00    +0.000 C 
ENDBRANCH   1   8
BRANCH   4  10
ATOM     10  N   UNL     1       1.744   3.530  19.348  0.00  0.00    +0.000 N 
ATOM     11  C   UNL     1       1.245   4.089  20.611  0.00  0.00    +0.000 C 
ATOM     12  C   UNL     1       0.890   2.475  18.816  0.00  0.00    +0.000 C 
ENDBRANCH   4  10
TORSDOF 2
ENDMDL
MODEL 4
REMARK VINA RESULT:      -4.9      0.298      5.172
REMARK  Name = 
REMARK  6 active torsions:
REMARK  status: ('A' for Active; 'I' for Inactive)
REMARK    1  A    between atoms: C_1  and  N_2
REMARK    2  A    between atoms: N_2  and  C_3
REMARK    3  A    between atoms: N_2  and  C_4
REMARK    4  A    between atoms: C_7  and  N_8
REMARK    5  A    between atoms: N_8  and  C_9
REMARK    6  A    between atoms: N_8  and  C_10
REMARK                            x       y       z     vdW  Elec       q    Type
REMARK                         _______ _______ _______ _____ _____    ______ ____
ROOT
ATOM      1  C   UNL     1       2.930   3.830  18.810  0.00  0.00    +0.000 A 
ATOM      2  C   UNL     1       3.200   3.519  17.467  0.00  0.00    +0.000 A 
ATOM      3  C   UNL     1       4.336   4.018  16.817  0.00  0.00    +0.000 A 
ATOM      4  C   UNL     1       5.278   4.849  17.477  0.00  0.00    +0.000 A 
ATOM      5  C   UNL     1       4.991   5.158  18.829  0.00  0.00    +0.000 A 
ATOM      6  C   UNL     1       3.844   4.673  19.474  0.00  0.00    +0.000 A 
ENDROOT
BRANCH   1   8
ATOM      7  C   UNL     1       1.522   3.566  20.901  0.00  0.00    +0.000 C 
ATOM      8  N   UNL     1       1.777   3.266  19.500  0.00  0.00    +0.000 N 
ATOM      9  C   UNL     1       0.816   2.421  18.797  0.00  0.00    +0.000 C 
ENDBRANCH   1   8
BRANCH   4  10
ATOM     10  N   UNL     1       6.472   5.353  16.808  0.00  0.00    +0.000 N 
ATOM     11  C   UNL     1       7.035   4.743  15.596  0.00  0.00    +0.000 C 
ATOM     12  C   UNL     1       7.230   6.509  17.268  0.00  0.00    +0.000 C 
ENDBRANCH   4  10
TORSDOF 2
ENDMDL
MODEL 5
REMARK VINA RESULT:      -4.9      0.222      5.170
REMARK  Name = 
REMARK  6 active torsions:
REMARK  status: ('A' for Active; 'I' for Inactive)
REMARK    1  A    between atoms: C_1  and  N_2
REMARK    2  A    between atoms: N_2  and  C_3
REMARK    3  A    between atoms: N_2  and  C_4
REMARK    4  A    between atoms: C_7  and  N_8
REMARK    5  A    between atoms: N_8  and  C_9
REMARK    6  A    between atoms: N_8  and  C_10
REMARK                            x       y       z     vdW  Elec       q    Type
REMARK                         _______ _______ _______ _____ _____    ______ ____
ROOT
ATOM      1  C   UNL     1       2.873   3.995  18.813  0.00  0.00    +0.000 A 
ATOM      2  C   UNL     1       3.177   3.622  17.494  0.00  0.00    +0.000 A 
ATOM      3  C   UNL     1       4.329   4.090  16.850  0.00  0.00    +0.000 A 
ATOM      4  C   UNL     1       5.254   4.952  17.493  0.00  0.00    +0.000 A 
ATOM      5  C   UNL     1       4.933   5.325  18.822  0.00  0.00    +0.000 A 
ATOM      6  C   UNL     1       3.770   4.870  19.459  0.00  0.00    +0.000 A 
ENDROOT
BRANCH   1   8
ATOM      7  C   UNL     1       0.810   2.524  18.839  0.00  0.00    +0.000 C 
ATOM      8  N   UNL     1       1.703   3.463  19.500  0.00  0.00    +0.000 N 
ATOM      9  C   UNL     1       1.414   3.819  20.886  0.00  0.00    +0.000 C 
ENDBRANCH   1   8
BRANCH   4  10
ATOM     10  N   UNL     1       6.465   5.426  16.832  0.00  0.00    +0.000 N 
ATOM     11  C   UNL     1       7.307   6.503  17.367  0.00  0.00    +0.000 C 
ATOM     12  C   UNL     1       6.965   4.883  15.575  0.00  0.00    +0.000 C 
ENDBRANCH   4  10
TORSDOF 2
ENDMDL
MODEL 6
REMARK VINA RESULT:      -4.9      0.161      5.354
REMARK  Name = 
REMARK  6 active torsions:
REMARK  status: ('A' for Active; 'I' for Inactive)
REMARK    1  A    between atoms: C_1  and  N_2
REMARK    2  A    between atoms: N_2  and  C_3
REMARK    3  A    between atoms: N_2  and  C_4
REMARK    4  A    between atoms: C_7  and  N_8
REMARK    5  A    between atoms: N_8  and  C_9
REMARK    6  A    between atoms: N_8  and  C_10
REMARK                            x       y       z     vdW  Elec       q    Type
REMARK                         _______ _______ _______ _____ _____    ______ ____
ROOT
ATOM      1  C   UNL     1       2.933   3.922  18.774  0.00  0.00    +0.000 A 
ATOM      2  C   UNL     1       3.768   4.873  19.384  0.00  0.00    +0.000 A 
ATOM      3  C   UNL     1       4.922   5.347  18.745  0.00  0.00    +0.000 A 
ATOM      4  C   UNL     1       5.302   4.906  17.452  0.00  0.00    +0.000 A 
ATOM      5  C   UNL     1       4.453   3.943  16.851  0.00  0.00    +0.000 A 
ATOM      6  C   UNL     1       3.309   3.456  17.498  0.00  0.00    +0.000 A 
ENDROOT
BRANCH   1   8
ATOM      7  C   UNL     1       0.892   2.420  18.825  0.00  0.00    +0.000 C 
ATOM      8  N   UNL     1       1.705   3.472  19.416  0.00  0.00    +0.000 N 
ATOM      9  C   UNL     1       1.274   4.027  20.696  0.00  0.00    +0.000 C 
ENDBRANCH   1   8
BRANCH   4  10
ATOM     10  N   UNL     1       6.492   5.412  16.777  0.00  0.00    +0.000 N 
ATOM     11  C   UNL     1       7.309   6.514  17.303  0.00  0.00    +0.000 C 
ATOM     12  C   UNL     1       6.994   4.882  15.516  0.00  0.00    +0.000 C 
ENDBRANCH   4  10
TORSDOF 2
ENDMDL
MODEL 7
REMARK VINA RESULT:      -4.9      0.119      1.712
REMARK  Name = 
REMARK  6 active torsions:
REMARK  status: ('A' for Active; 'I' for Inactive)
REMARK    1  A    between atoms: C_1  and  N_2
REMARK    2  A    between atoms: N_2  and  C_3
REMARK    3  A    between atoms: N_2  and  C_4
REMARK    4  A    between atoms: C_7  and  N_8
REMARK    5  A    between atoms: N_8  and  C_9
REMARK    6  A    between atoms: N_8  and  C_10
REMARK                            x       y       z     vdW  Elec       q    Type
REMARK                         _______ _______ _______ _____ _____    ______ ____
ROOT
ATOM      1  C   UNL     1       5.303   5.044  17.429  0.00  0.00    +0.000 A 
ATOM      2  C   UNL     1       5.013   5.360  18.766  0.00  0.00    +0.000 A 
ATOM      3  C   UNL     1       3.858   4.877  19.395  0.00  0.00    +0.000 A 
ATOM      4  C   UNL     1       2.930   4.037  18.726  0.00  0.00    +0.000 A 
ATOM      5  C   UNL     1       3.234   3.730  17.377  0.00  0.00    +0.000 A 
ATOM      6  C   UNL     1       4.381   4.229  16.742  0.00  0.00    +0.000 A 
ENDROOT
BRANCH   1   8
ATOM      7  C   UNL     1       7.349   6.540  17.403  0.00  0.00    +0.000 C 
ATOM      8  N   UNL     1       6.532   5.502  16.793  0.00  0.00    +0.000 N 
ATOM      9  C   UNL     1       7.007   4.903  15.549  0.00  0.00    +0.000 C 
ENDBRANCH   1   8
BRANCH   4  10
ATOM     10  N   UNL     1       1.738   3.517  19.385  0.00  0.00    +0.000 N 
ATOM     11  C   UNL     1       0.964   2.379  18.871  0.00  0.00    +0.000 C 
ATOM     12  C   UNL     1       1.189   4.067  20.618  0.00  0.00    +0.000 C 
ENDBRANCH   4  10
TORSDOF 2
ENDMDL
MODEL 8
REMARK VINA RESULT:      -4.9      0.162      1.392
REMARK  Name = 
REMARK  6 active torsions:
REMARK  status: ('A' for Active; 'I' for Inactive)
REMARK    1  A    between atoms: C_1  and  N_2
REMARK    2  A    between atoms: N_2  and  C_3
REMARK    3  A    between atoms: N_2  and  C_4
REMARK    4  A    between atoms: C_7  and  N_8
REMARK    5  A    between atoms: N_8  and  C_9
REMARK    6  A    between atoms: N_8  and  C_10
REMARK                            x       y       z     vdW  Elec       q    Type
REMARK                         _______ _______ _______ _____ _____    ______ ____
ROOT
ATOM      1  C   UNL     1       5.246   5.030  17.410  0.00  0.00    +0.000 A 
ATOM      2  C   UNL     1       4.874   5.469  18.691  0.00  0.00    +0.000 A 
ATOM      3  C   UNL     1       3.712   4.996  19.315  0.00  0.00    +0.000 A 
ATOM      4  C   UNL     1       2.860   4.044  18.698  0.00  0.00    +0.000 A 
ATOM      5  C   UNL     1       3.245   3.614  17.405  0.00  0.00    +0.000 A 
ATOM      6  C   UNL     1       4.399   4.102  16.773  0.00  0.00    +0.000 A 
ENDROOT
BRANCH   1   8
ATOM      7  C   UNL     1       7.336   6.465  17.438  0.00  0.00    +0.000 C 
ATOM      8  N   UNL     1       6.483   5.483  16.786  0.00  0.00    +0.000 N 
ATOM      9  C   UNL     1       6.930   4.932  15.509  0.00  0.00    +0.000 C 
ENDBRANCH   1   8
BRANCH   4  10
ATOM     10  N   UNL     1       1.661   3.535  19.354  0.00  0.00    +0.000 N 
ATOM     11  C   UNL     1       1.186   4.021  20.656  0.00  0.00    +0.000 C 
ATOM     12  C   UNL     1       0.810   2.495  18.791  0.00  0.00    +0.000 C 
ENDBRANCH   4  10
TORSDOF 2
ENDMDL
MODEL 9
REMARK VINA RESULT:      -4.9      0.439      5.446
REMARK  Name = 
REMARK  6 active torsions:
REMARK  status: ('A' for Active; 'I' for Inactive)
REMARK    1  A    between atoms: C_1  and  N_2
REMARK    2  A    between atoms: N_2  and  C_3
REMARK    3  A    between atoms: N_2  and  C_4
REMARK    4  A    between atoms: C_7  and  N_8
REMARK    5  A    between atoms: N_8  and  C_9
REMARK    6  A    between atoms: N_8  and  C_10
REMARK                            x       y       z     vdW  Elec       q    Type
REMARK                         _______ _______ _______ _____ _____    ______ ____
ROOT
ATOM      1  C   UNL     1       3.016   3.683  18.925  0.00  0.00    +0.000 A 
ATOM      2  C   UNL     1       3.813   4.682  19.506  0.00  0.00    +0.000 A 
ATOM      3  C   UNL     1       4.936   5.196  18.844  0.00  0.00    +0.000 A 
ATOM      4  C   UNL     1       5.320   4.749  17.554  0.00  0.00    +0.000 A 
ATOM      5  C   UNL     1       4.510   3.738  16.982  0.00  0.00    +0.000 A 
ATOM      6  C   UNL     1       3.397   3.211  17.653  0.00  0.00    +0.000 A 
ENDROOT
BRANCH   1   8
ATOM      7  C   UNL     1       0.808   2.439  18.860  0.00  0.00    +0.000 C 
ATOM      8  N   UNL     1       1.818   3.188  19.592  0.00  0.00    +0.000 N 
ATOM      9  C   UNL     1       1.614   3.387  21.024  0.00  0.00    +0.000 C 
ENDBRANCH   1   8
BRANCH   4  10
ATOM     10  N   UNL     1       6.476   5.298  16.854  0.00  0.00    +0.000 N 
ATOM     11  C   UNL     1       6.995   4.743  15.597  0.00  0.00    +0.000 C 
ATOM     12  C   UNL     1       7.237   6.448  17.326  0.00  0.00    +0.000 C 
ENDBRANCH   4  10
TORSDOF 2
ENDMDL
