MODEL 1
REMARK VINA RESULT:      -7.2      0.000      0.000
REMARK  Name = 
REMARK  3 active torsions:
REMARK  status: ('A' for Active; 'I' for Inactive)
REMARK    1  A    between atoms: C_2  and  C_3
REMARK    2  A    between atoms: C_2  and  C_12
REMARK    3  A    between atoms: C_4  and  C_5
REMARK                            x       y       z     vdW  Elec       q    Type
REMARK                         _______ _______ _______ _____ _____    ______ ____
ROOT
ATOM      1  O   UNL     1       7.598   6.247  16.251  0.00  0.00    +0.000 OA
ATOM      2  C   UNL     1       7.155   6.759  17.272  0.00  0.00    +0.000 C 
ENDROOT
BRANCH   2   3
ATOM      3  C   UNL     1       5.863   6.300  17.849  0.00  0.00    +0.000 A 
ATOM      4  C   UNL     1       4.673   6.835  17.337  0.00  0.00    +0.000 A 
ATOM      5  C   UNL     1       3.442   6.431  17.862  0.00  0.00    +0.000 A 
ATOM      6  C   UNL     1       3.411   5.509  18.903  0.00  0.00    +0.000 A 
ATOM      7  F   UNL     1       2.232   5.129  19.410  0.00  0.00    +0.000 F 
ATOM      8  C   UNL     1       4.584   4.980  19.428  0.00  0.00    +0.000 A 
ATOM      9  C   UNL     1       5.815   5.378  18.905  0.00  0.00    +0.000 A 
ENDBRANCH   2   3
BRANCH   2  10
ATOM     10  C   UNL     1       7.887   7.819  18.015  0.00  0.00    +0.000 C 
ATOM     11  C   UNL     1       7.898   9.083  17.566  0.00  0.00    +0.000 C 
BRANCH  11  12
ATOM     12  C   UNL     1       8.604  10.174  18.254  0.00  0.00    +0.000 A 
ATOM     13  C   UNL     1       9.335   9.961  19.432  0.00  0.00    +0.000 A 
ATOM     14  C   UNL     1       9.999  11.016  20.065  0.00  0.00    +0.000 A 
ATOM     15  C   UNL     1       9.952  12.292  19.509  0.00  0.00    +0.000 A 
ATOM     16 BR   UNL     1      10.845  13.719  20.366  0.00  0.00    +0.000 Br
ATOM     17  C   UNL     1       9.253  12.518  18.325  0.00  0.00    +0.000 A 
ATOM     18  C   UNL     1       8.587  11.460  17.698  0.00  0.00    +0.000 A 
ENDBRANCH  11  12
ENDBRANCH   2  10
TORSDOF 3
ENDMDL
MODEL 2
REMARK VINA RESULT:      -7.2      5.575      6.544
REMARK  Name = 
REMARK  3 active torsions:
REMARK  status: ('A' for Active; 'I' for Inactive)
REMARK    1  A    between atoms: C_2  and  C_3
REMARK    2  A    between atoms: C_2  and  C_12
REMARK    3  A    between atoms: C_4  and  C_5
REMARK                            x       y       z     vdW  Elec       q    Type
REMARK                         _______ _______ _______ _____ _____    ______ ____
ROOT
ATOM      1  O   UNL     1       4.853   3.168  19.610  0.00  0.00    +0.000 OA
ATOM      2  C   UNL     1       4.709   4.189  18.948  0.00  0.00    +0.000 C 
ENDROOT
BRANCH   2   3
ATOM      3  C   UNL     1       5.396   4.344  17.639  0.00  0.00    +0.000 A 
ATOM      4  C   UNL     1       6.714   4.825  17.627  0.00  0.00    +0.000 A 
ATOM      5  C   UNL     1       7.387   4.990  16.413  0.00  0.00    +0.000 A 
ATOM      6  C   UNL     1       6.734   4.689  15.222  0.00  0.00    +0.000 A 
ATOM      7  F   UNL     1       7.377   4.855  14.060  0.00  0.00    +0.000 F 
ATOM      8  C   UNL     1       5.424   4.224  15.218  0.00  0.00    +0.000 A 
ATOM      9  C   UNL     1       4.749   4.054  16.428  0.00  0.00    +0.000 A 
ENDBRANCH   2   3
BRANCH   2  10
ATOM     10  C   UNL     1       3.816   5.297  19.377  0.00  0.00    +0.000 C 
ATOM     11  C   UNL     1       3.408   6.224  18.496  0.00  0.00    +0.000 C 
BRANCH  11  12
ATOM     12  C   UNL     1       2.528   7.344  18.859  0.00  0.00    +0.000 A 
ATOM     13  C   UNL     1       2.023   7.505  20.158  0.00  0.00    +0.000 A 
ATOM     14  C   UNL     1       1.189   8.581  20.476  0.00  0.00    +0.000 A 
ATOM     15  C   UNL     1       0.870   9.517  19.497  0.00  0.00    +0.000 A 
ATOM     16 BR   UNL     1      -0.262  10.969  19.924  0.00  0.00    +0.000 Br
ATOM     17  C   UNL     1       1.382   9.390  18.207  0.00  0.00    +0.000 A 
ATOM     18  C   UNL     1       2.213   8.309  17.893  0.00  0.00    +0.000 A 
ENDBRANCH  11  12
ENDBRANCH   2  10
TORSDOF 3
ENDMDL
MODEL 3
REMARK VINA RESULT:      -7.1      2.379      2.638
REMARK  Name = 
REMARK  3 active torsions:
REMARK  status: ('A' for Active; 'I' for Inactive)
REMARK    1  A    between atoms: C_2  and  C_3
REMARK    2  A    between atoms: C_2  and  C_12
REMARK    3  A    between atoms: C_4  and  C_5
REMARK                            x       y       z     vdW  Elec       q    Type
REMARK                         _______ _______ _______ _____ _____    ______ ____
ROOT
ATOM      1  O   UNL     1       8.090   6.383  19.220  0.00  0.00    +0.000 OA
ATOM      2  C   UNL     1       7.794   6.935  18.167  0.00  0.00    +0.000 C 
ENDROOT
BRANCH   2   3
ATOM      3  C   UNL     1       7.050   6.199  17.111  0.00  0.00    +0.000 A 
ATOM      4  C   UNL     1       5.909   6.796  16.556  0.00  0.00    +0.000 A 
ATOM      5  C   UNL     1       5.181   6.128  15.566  0.00  0.00    +0.000 A 
ATOM      6  C   UNL     1       5.589   4.865  15.151  0.00  0.00    +0.000 A 
ATOM      7  F   UNL     1       4.887   4.223  14.210  0.00  0.00    +0.000 F 
ATOM      8  C   UNL     1       6.711   4.256  15.702  0.00  0.00    +0.000 A 
ATOM      9  C   UNL     1       7.443   4.920  16.688  0.00  0.00    +0.000 A 
ENDBRANCH   2   3
BRANCH   2  10
ATOM     10  C   UNL     1       8.110   8.362  17.899  0.00  0.00    +0.000 C 
ATOM     11  C   UNL     1       8.811   9.083  18.787  0.00  0.00    +0.000 C 
BRANCH  11  12
ATOM     12  C   UNL     1       9.154  10.499  18.580  0.00  0.00    +0.000 A 
ATOM     13  C   UNL     1      10.321  11.067  19.112  0.00  0.00    +0.000 A 
ATOM     14  C   UNL     1      10.623  12.416  18.898  0.00  0.00    +0.000 A 
ATOM     15  C   UNL     1       9.766  13.201  18.132  0.00  0.00    +0.000 A 
ATOM     16 BR   UNL     1      10.171  15.025  17.847  0.00  0.00    +0.000 Br
ATOM     17  C   UNL     1       8.615  12.648  17.574  0.00  0.00    +0.000 A 
ATOM     18  C   UNL     1       8.315  11.299  17.793  0.00  0.00    +0.000 A 
ENDBRANCH  11  12
ENDBRANCH   2  10
TORSDOF 3
ENDMDL
MODEL 4
REMARK VINA RESULT:      -7.1      5.499      6.611
REMARK  Name = 
REMARK  3 active torsions:
REMARK  status: ('A' for Active; 'I' for Inactive)
REMARK    1  A    between atoms: C_2  and  C_3
REMARK    2  A    between atoms: C_2  and  C_12
REMARK    3  A    between atoms: C_4  and  C_5
REMARK                            x       y       z     vdW  Elec       q    Type
REMARK                         _______ _______ _______ _____ _____    ______ ____
ROOT
ATOM      1  O   UNL     1       5.287   3.540  19.331  0.00  0.00    +0.000 OA
ATOM      2  C   UNL     1       5.140   4.525  18.618  0.00  0.00    +0.000 C 
ENDROOT
BRANCH   2   3
ATOM      3  C   UNL     1       5.666   4.536  17.227  0.00  0.00    +0.000 A 
ATOM      4  C   UNL     1       6.950   5.051  16.999  0.00  0.00    +0.000 A 
ATOM      5  C   UNL     1       7.471   5.083  15.702  0.00  0.00    +0.000 A 
ATOM      6  C   UNL     1       6.701   4.615  14.643  0.00  0.00    +0.000 A 
ATOM      7  F   UNL     1       7.197   4.653  13.401  0.00  0.00    +0.000 F 
ATOM      8  C   UNL     1       5.421   4.113  14.853  0.00  0.00    +0.000 A 
ATOM      9  C   UNL     1       4.897   4.076  16.146  0.00  0.00    +0.000 A 
ENDBRANCH   2   3
BRANCH   2  10
ATOM     10  C   UNL     1       4.399   5.733  19.068  0.00  0.00    +0.000 C 
ATOM     11  C   UNL     1       3.260   6.099  18.461  0.00  0.00    +0.000 C 
BRANCH  11  12
ATOM     12  C   UNL     1       2.483   7.283  18.858  0.00  0.00    +0.000 A 
ATOM     13  C   UNL     1       2.156   8.298  17.948  0.00  0.00    +0.000 A 
ATOM     14  C   UNL     1       1.413   9.412  18.353  0.00  0.00    +0.000 A 
ATOM     15  C   UNL     1       0.976   9.507  19.671  0.00  0.00    +0.000 A 
ATOM     16 BR   UNL     1      -0.023  11.014  20.220  0.00  0.00    +0.000 Br
ATOM     17  C   UNL     1       1.268   8.495  20.583  0.00  0.00    +0.000 A 
ATOM     18  C   UNL     1       2.015   7.384  20.175  0.00  0.00    +0.000 A 
ENDBRANCH  11  12
ENDBRANCH   2  10
TORSDOF 3
ENDMDL
MODEL 5
REMARK VINA RESULT:      -7.1      2.347      2.821
REMARK  Name = 
REMARK  3 active torsions:
REMARK  status: ('A' for Active; 'I' for Inactive)
REMARK    1  A    between atoms: C_2  and  C_3
REMARK    2  A    between atoms: C_2  and  C_12
REMARK    3  A    between atoms: C_4  and  C_5
REMARK                            x       y       z     vdW  Elec       q    Type
REMARK                         _______ _______ _______ _____ _____    ______ ____
ROOT
ATOM      1  O   UNL     1       8.068   6.208  19.155  0.00  0.00    +0.000 OA
ATOM      2  C   UNL     1       7.752   6.803  18.133  0.00  0.00    +0.000 C 
ENDROOT
BRANCH   2   3
ATOM      3  C   UNL     1       7.031   6.099  17.040  0.00  0.00    +0.000 A 
ATOM      4  C   UNL     1       5.873   6.688  16.512  0.00  0.00    +0.000 A 
ATOM      5  C   UNL     1       5.168   6.048  15.488  0.00  0.00    +0.000 A 
ATOM      6  C   UNL     1       5.614   4.821  15.012  0.00  0.00    +0.000 A 
ATOM      7  F   UNL     1       4.933   4.206  14.038  0.00  0.00    +0.000 F 
ATOM      8  C   UNL     1       6.754   4.219  15.535  0.00  0.00    +0.000 A 
ATOM      9  C   UNL     1       7.464   4.855  16.554  0.00  0.00    +0.000 A 
ENDBRANCH   2   3
BRANCH   2  10
ATOM     10  C   UNL     1       8.018   8.254  17.940  0.00  0.00    +0.000 C 
ATOM     11  C   UNL     1       8.789   8.926  18.809  0.00  0.00    +0.000 C 
BRANCH  11  12
ATOM     12  C   UNL     1       9.087  10.360  18.674  0.00  0.00    +0.000 A 
ATOM     13  C   UNL     1       8.433  11.171  17.736  0.00  0.00    +0.000 A 
ATOM     14  C   UNL     1       8.735  12.533  17.631  0.00  0.00    +0.000 A 
ATOM     15  C   UNL     1       9.683  13.096  18.481  0.00  0.00    +0.000 A 
ATOM     16 BR   UNL     1      10.095  14.934  18.336  0.00  0.00    +0.000 Br
ATOM     17  C   UNL     1      10.325  12.311  19.438  0.00  0.00    +0.000 A 
ATOM     18  C   UNL     1      10.022  10.949  19.536  0.00  0.00    +0.000 A 
ENDBRANCH  11  12
ENDBRANCH   2  10
TORSDOF 3
ENDMDL
MODEL 6
REMARK VINA RESULT:      -7.0      5.571      6.676
REMARK  Name = 
REMARK  3 active torsions:
REMARK  status: ('A' for Active; 'I' for Inactive)
REMARK    1  A    between atoms: C_2  and  C_3
REMARK    2  A    between atoms: C_2  and  C_12
REMARK    3  A    between atoms: C_4  and  C_5
REMARK                            x       y       z     vdW  Elec       q    Type
REMARK                         _______ _______ _______ _____ _____    ______ ____
ROOT
ATOM      1  O   UNL     1       3.740   3.126  20.031  0.00  0.00    +0.000 OA
ATOM      2  C   UNL     1       3.873   4.162  19.390  0.00  0.00    +0.000 C 
ENDROOT
BRANCH   2   3
ATOM      3  C   UNL     1       4.851   4.239  18.273  0.00  0.00    +0.000 A 
ATOM      4  C   UNL     1       6.137   4.727  18.540  0.00  0.00    +0.000 A 
ATOM      5  C   UNL     1       7.078   4.819  17.511  0.00  0.00    +0.000 A 
ATOM      6  C   UNL     1       6.723   4.438  16.221  0.00  0.00    +0.000 A 
ATOM      7  F   UNL     1       7.622   4.535  15.235  0.00  0.00    +0.000 F 
ATOM      8  C   UNL     1       5.447   3.963  15.939  0.00  0.00    +0.000 A 
ATOM      9  C   UNL     1       4.504   3.866  16.965  0.00  0.00    +0.000 A 
ENDBRANCH   2   3
BRANCH   2  10
ATOM     10  C   UNL     1       3.047   5.371  19.649  0.00  0.00    +0.000 C 
ATOM     11  C   UNL     1       3.056   6.399  18.787  0.00  0.00    +0.000 C 
BRANCH  11  12
ATOM     12  C   UNL     1       2.264   7.622  18.987  0.00  0.00    +0.000 A 
ATOM     13  C   UNL     1       1.990   8.512  17.938  0.00  0.00    +0.000 A 
ATOM     14  C   UNL     1       1.232   9.666  18.156  0.00  0.00    +0.000 A 
ATOM     15  C   UNL     1       0.725   9.928  19.426  0.00  0.00    +0.000 A 
ATOM     16 BR   UNL     1      -0.295  11.490  19.722  0.00  0.00    +0.000 Br
ATOM     17  C   UNL     1       0.964   9.042  20.475  0.00  0.00    +0.000 A 
ATOM     18  C   UNL     1       1.726   7.890  20.253  0.00  0.00    +0.000 A 
ENDBRANCH  11  12
ENDBRANCH   2  10
TORSDOF 3
ENDMDL
MODEL 7
REMARK VINA RESULT:      -6.9      5.731      6.672
REMARK  Name = 
REMARK  3 active torsions:
REMARK  status: ('A' for Active; 'I' for Inactive)
REMARK    1  A    between atoms: C_2  and  C_3
REMARK    2  A    between atoms: C_2  and  C_12
REMARK    3  A    between atoms: C_4  and  C_5
REMARK                            x       y       z     vdW  Elec       q    Type
REMARK                         _______ _______ _______ _____ _____    ______ ____
ROOT
ATOM      1  O   UNL     1       3.486   3.245  19.983  0.00  0.00    +0.000 OA
ATOM      2  C   UNL     1       3.572   4.225  19.252  0.00  0.00    +0.000 C 
ENDROOT
BRANCH   2   3
ATOM      3  C   UNL     1       4.636   4.305  18.217  0.00  0.00    +0.000 A 
ATOM      4  C   UNL     1       4.295   4.041  16.883  0.00  0.00    +0.000 A 
ATOM      5  C   UNL     1       5.273   4.101  15.886  0.00  0.00    +0.000 A 
ATOM      6  C   UNL     1       6.585   4.407  16.231  0.00  0.00    +0.000 A 
ATOM      7  F   UNL     1       7.522   4.456  15.277  0.00  0.00    +0.000 F 
ATOM      8  C   UNL     1       6.940   4.659  17.552  0.00  0.00    +0.000 A 
ATOM      9  C   UNL     1       5.966   4.604  18.551  0.00  0.00    +0.000 A 
ENDBRANCH   2   3
BRANCH   2  10
ATOM     10  C   UNL     1       2.607   5.354  19.317  0.00  0.00    +0.000 C 
ATOM     11  C   UNL     1       3.027   6.618  19.157  0.00  0.00    +0.000 C 
BRANCH  11  12
ATOM     12  C   UNL     1       2.123   7.778  19.212  0.00  0.00    +0.000 A 
ATOM     13  C   UNL     1       1.557   8.224  20.415  0.00  0.00    +0.000 A 
ATOM     14  C   UNL     1       0.703   9.331  20.438  0.00  0.00    +0.000 A 
ATOM     15  C   UNL     1       0.424  10.011  19.256  0.00  0.00    +0.000 A 
ATOM     16 BR   UNL     1      -0.735  11.503  19.287  0.00  0.00    +0.000 Br
ATOM     17  C   UNL     1       0.997   9.599  18.055  0.00  0.00    +0.000 A 
ATOM     18  C   UNL     1       1.848   8.489  18.036  0.00  0.00    +0.000 A 
ENDBRANCH  11  12
ENDBRANCH   2  10
TORSDOF 3
ENDMDL
MODEL 8
REMARK VINA RESULT:      -6.9      0.545      1.248
REMARK  Name = 
REMARK  3 active torsions:
REMARK  status: ('A' for Active; 'I' for Inactive)
REMARK    1  A    between atoms: C_2  and  C_3
REMARK    2  A    between atoms: C_2  and  C_12
REMARK    3  A    between atoms: C_4  and  C_5
REMARK                            x       y       z     vdW  Elec       q    Type
REMARK                         _______ _______ _______ _____ _____    ______ ____
ROOT
ATOM      1  O   UNL     1       7.854   6.492  16.266  0.00  0.00    +0.000 OA
ATOM      2  C   UNL     1       7.297   6.850  17.296  0.00  0.00    +0.000 C 
ENDROOT
BRANCH   2   3
ATOM      3  C   UNL     1       6.090   6.135  17.791  0.00  0.00    +0.000 A 
ATOM      4  C   UNL     1       6.210   5.325  18.930  0.00  0.00    +0.000 A 
ATOM      5  C   UNL     1       5.097   4.634  19.417  0.00  0.00    +0.000 A 
ATOM      6  C   UNL     1       3.879   4.744  18.754  0.00  0.00    +0.000 A 
ATOM      7  F   UNL     1       2.817   4.075  19.217  0.00  0.00    +0.000 F 
ATOM      8  C   UNL     1       3.749   5.533  17.617  0.00  0.00    +0.000 A 
ATOM      9  C   UNL     1       4.856   6.228  17.129  0.00  0.00    +0.000 A 
ENDBRANCH   2   3
BRANCH   2  10
ATOM     10  C   UNL     1       7.808   7.968  18.132  0.00  0.00    +0.000 C 
ATOM     11  C   UNL     1       8.278   9.087  17.559  0.00  0.00    +0.000 C 
BRANCH  11  12
ATOM     12  C   UNL     1       8.798  10.226  18.330  0.00  0.00    +0.000 A 
ATOM     13  C   UNL     1       9.436  10.058  19.567  0.00  0.00    +0.000 A 
ATOM     14  C   UNL     1       9.923  11.160  20.278  0.00  0.00    +0.000 A 
ATOM     15  C   UNL     1       9.791  12.438  19.743  0.00  0.00    +0.000 A 
ATOM     16 BR   UNL     1      10.445  13.927  20.706  0.00  0.00    +0.000 Br
ATOM     17  C   UNL     1       9.184  12.623  18.503  0.00  0.00    +0.000 A 
ATOM     18  C   UNL     1       8.695  11.518  17.797  0.00  0.00    +0.000 A 
ENDBRANCH  11  12
ENDBRANCH   2  10
TORSDOF 3
ENDMDL
MODEL 9
REMARK VINA RESULT:      -6.9      5.660      6.623
REMARK  Name = 
REMARK  3 active torsions:
REMARK  status: ('A' for Active; 'I' for Inactive)
REMARK    1  A    between atoms: C_2  and  C_3
REMARK    2  A    between atoms: C_2  and  C_12
REMARK    3  A    between atoms: C_4  and  C_5
REMARK                            x       y       z     vdW  Elec       q    Type
REMARK                         _______ _______ _______ _____ _____    ______ ____
ROOT
ATOM      1  O   UNL     1       3.434   2.777  18.496  0.00  0.00    +0.000 OA
ATOM      2  C   UNL     1       3.711   3.934  18.206  0.00  0.00    +0.000 C 
ENDROOT
BRANCH   2   3
ATOM      3  C   UNL     1       4.820   4.233  17.262  0.00  0.00    +0.000 A 
ATOM      4  C   UNL     1       4.557   4.193  15.885  0.00  0.00    +0.000 A 
ATOM      5  C   UNL     1       5.579   4.461  14.970  0.00  0.00    +0.000 A 
ATOM      6  C   UNL     1       6.857   4.751  15.436  0.00  0.00    +0.000 A 
ATOM      7  F   UNL     1       7.836   5.000  14.559  0.00  0.00    +0.000 F 
ATOM      8  C   UNL     1       7.134   4.782  16.798  0.00  0.00    +0.000 A 
ATOM      9  C   UNL     1       6.117   4.518  17.716  0.00  0.00    +0.000 A 
ENDBRANCH   2   3
BRANCH   2  10
ATOM     10  C   UNL     1       2.940   5.093  18.730  0.00  0.00    +0.000 C 
ATOM     11  C   UNL     1       3.093   6.312  18.192  0.00  0.00    +0.000 C 
BRANCH  11  12
ATOM     12  C   UNL     1       2.362   7.497  18.666  0.00  0.00    +0.000 A 
ATOM     13  C   UNL     1       2.032   8.559  17.811  0.00  0.00    +0.000 A 
ATOM     14  C   UNL     1       1.334   9.673  18.289  0.00  0.00    +0.000 A 
ATOM     15  C   UNL     1       0.944   9.721  19.624  0.00  0.00    +0.000 A 
ATOM     16 BR   UNL     1       0.005  11.228  20.270  0.00  0.00    +0.000 Br
ATOM     17  C   UNL     1       1.239   8.664  20.482  0.00  0.00    +0.000 A 
ATOM     18  C   UNL     1       1.941   7.553  20.001  0.00  0.00    +0.000 A 
ENDBRANCH  11  12
ENDBRANCH   2  10
TORSDOF 3
ENDMDL
