MODEL 1
REMARK VINA RESULT:      -7.0      0.000      0.000
REMARK  Name = 
REMARK  10 active torsions:
REMARK  status: ('A' for Active; 'I' for Inactive)
REMARK    1  A    between atoms: C_1  and  O_2
REMARK    2  A    between atoms: O_2  and  C_3
REMARK    3  A    between atoms: C_3  and  C_4
REMARK    4  A    between atoms: C_4  and  N_5
REMARK    5  A    between atoms: C_9  and  S_10
REMARK    6  A    between atoms: S_10  and  C_11
REMARK    7  A    between atoms: C_11  and  C_12
REMARK    8  A    between atoms: N_14  and  N_15
REMARK    9  A    between atoms: C_16  and  C_18
REMARK   10  A    between atoms: C_21  and  N_22
REMARK                            x       y       z     vdW  Elec       q    Type
REMARK                         _______ _______ _______ _____ _____    ______ ____
ROOT
ATOM      1  C   UNL     1       1.795   4.026  20.913  0.00  0.00    +0.000 C 
ATOM      2  O   UNL     1       0.675   3.986  20.400  0.00  0.00    +0.000 OA
ATOM      3  N   UNL     1       2.396   5.217  21.271  0.00  0.00    +0.000 N 
ATOM      4  H   UNL     1       3.387   5.294  21.523  0.00  0.00    +0.000 HD
ENDROOT
BRANCH   3   5
ATOM      5  N   UNL     1       1.760   6.404  20.886  0.00  0.00    +0.000 N 
ATOM      6  C   UNL     1       2.259   7.103  19.806  0.00  0.00    +0.000 C 
ATOM      7  O   UNL     1       3.182   6.692  19.109  0.00  0.00    +0.000 OA
ATOM      8  H   UNL     1       1.052   6.752  21.528  0.00  0.00    +0.000 HD
BRANCH   6   9
ATOM      9  C   UNL     1       1.650   8.438  19.537  0.00  0.00    +0.000 A 
ATOM     10  C   UNL     1       1.812   8.994  18.256  0.00  0.00    +0.000 A 
ATOM     11  C   UNL     1       1.283  10.253  17.954  0.00  0.00    +0.000 A 
ATOM     12  C   UNL     1       0.577  10.958  18.935  0.00  0.00    +0.000 A 
ATOM     13  C   UNL     1       0.397  10.405  20.215  0.00  0.00    +0.000 A 
ATOM     14  C   UNL     1       0.932   9.147  20.509  0.00  0.00    +0.000 A 
BRANCH  12  15
ATOM     15  N   UNL     1       0.014  12.281  18.636  0.00  0.00    +0.000 N 
ATOM     16  O   UNL     1       0.660  13.277  19.004  0.00  0.00    +0.000 OA
ATOM     17  O   UNL     1      -1.068  12.325  18.042  0.00  0.00    +0.000 OA
ENDBRANCH  12  15
ENDBRANCH   6   9
ENDBRANCH   3   5
BRANCH   1  18
ATOM     18  C   UNL     1       2.614   2.783  21.197  0.00  0.00    +0.000 C 
BRANCH  18  19
ATOM     19  S   UNL     1       2.913   1.851  19.666  0.00  0.00    +0.000 S 
BRANCH  19  24
ATOM     20  N   UNL     1       5.284   5.254  16.167  0.00  0.00    +0.000 N 
ATOM     21  C   UNL     1       4.924   4.479  17.221  0.00  0.00    +0.000 A 
ATOM     22  N   UNL     1       5.626   4.306  18.324  0.00  0.00    +0.000 NA
ATOM     23  N   UNL     1       5.032   3.438  19.215  0.00  0.00    +0.000 NA
ATOM     24  C   UNL     1       3.888   2.984  18.757  0.00  0.00    +0.000 A 
ATOM     25  S   UNL     1       3.452   3.582  17.212  0.00  0.00    +0.000 S 
ATOM     26  H   UNL     1       4.774   5.126  15.296  0.00  0.00    +0.000 HD
BRANCH  20  27
ATOM     27  C   UNL     1       6.714   5.475  15.935  0.00  0.00    +0.000 C 
BRANCH  27  28
ATOM     28  C   UNL     1       7.128   4.872  14.586  0.00  0.00    +0.000 C 
BRANCH  28  30
ATOM     29  C   UNL     1       6.101   3.595  12.888  0.00  0.00    +0.000 C 
ATOM     30  O   UNL     1       6.267   3.765  14.289  0.00  0.00    +0.000 OA
ENDBRANCH  28  30
ENDBRANCH  27  28
ENDBRANCH  20  27
ENDBRANCH  19  24
ENDBRANCH  18  19
ENDBRANCH   1  18
TORSDOF 9
ENDMDL
MODEL 2
REMARK VINA RESULT:      -6.9      4.249      8.709
REMARK  Name = 
REMARK  10 active torsions:
REMARK  status: ('A' for Active; 'I' for Inactive)
REMARK    1  A    between atoms: C_1  and  O_2
REMARK    2  A    between atoms: O_2  and  C_3
REMARK    3  A    between atoms: C_3  and  C_4
REMARK    4  A    between atoms: C_4  and  N_5
REMARK    5  A    between atoms: C_9  and  S_10
REMARK    6  A    between atoms: S_10  and  C_11
REMARK    7  A    between atoms: C_11  and  C_12
REMARK    8  A    between atoms: N_14  and  N_15
REMARK    9  A    between atoms: C_16  and  C_18
REMARK   10  A    between atoms: C_21  and  N_22
REMARK                            x       y       z     vdW  Elec       q    Type
REMARK                         _______ _______ _______ _____ _____    ______ ____
ROOT
ATOM      1  C   UNL     1      -0.221   9.235  22.262  0.00  0.00    +0.000 C 
ATOM      2  O   UNL     1      -0.860   8.181  22.307  0.00  0.00    +0.000 OA
ATOM      3  N   UNL     1       1.071   9.290  21.775  0.00  0.00    +0.000 N 
ATOM      4  H   UNL     1       1.684  10.102  21.896  0.00  0.00    +0.000 HD
ENDROOT
BRANCH   3   5
ATOM      5  N   UNL     1       1.701   8.075  21.475  0.00  0.00    +0.000 N 
ATOM      6  C   UNL     1       1.909   7.746  20.151  0.00  0.00    +0.000 C 
ATOM      7  O   UNL     1       1.646   8.504  19.222  0.00  0.00    +0.000 OA
ATOM      8  H   UNL     1       1.835   7.443  22.260  0.00  0.00    +0.000 HD
BRANCH   6   9
ATOM      9  C   UNL     1       2.435   6.376  19.880  0.00  0.00    +0.000 A 
ATOM     10  C   UNL     1       2.012   5.327  20.713  0.00  0.00    +0.000 A 
ATOM     11  C   UNL     1       2.490   4.026  20.521  0.00  0.00    +0.000 A 
ATOM     12  C   UNL     1       3.390   3.771  19.480  0.00  0.00    +0.000 A 
ATOM     13  C   UNL     1       3.808   4.809  18.631  0.00  0.00    +0.000 A 
ATOM     14  C   UNL     1       3.327   6.107  18.833  0.00  0.00    +0.000 A 
BRANCH  12  15
ATOM     15  N   UNL     1       3.903   2.411  19.262  0.00  0.00    +0.000 N 
ATOM     16  O   UNL     1       4.777   1.996  20.041  0.00  0.00    +0.000 OA
ATOM     17  O   UNL     1       3.439   1.765  18.317  0.00  0.00    +0.000 OA
ENDBRANCH  12  15
ENDBRANCH   6   9
ENDBRANCH   3   5
BRANCH   1  18
ATOM     18  C   UNL     1      -0.784  10.560  22.735  0.00  0.00    +0.000 C 
BRANCH  18  19
ATOM     19  S   UNL     1      -0.129  11.928  21.734  0.00  0.00    +0.000 S 
BRANCH  19  24
ATOM     20  N   UNL     1      -3.613  11.916  17.574  0.00  0.00    +0.000 N 
ATOM     21  C   UNL     1      -2.576  11.743  18.432  0.00  0.00    +0.000 A 
ATOM     22  N   UNL     1      -1.533  10.962  18.230  0.00  0.00    +0.000 NA
ATOM     23  N   UNL     1      -0.647  10.955  19.285  0.00  0.00    +0.000 NA
ATOM     24  C   UNL     1      -1.047  11.744  20.256  0.00  0.00    +0.000 A 
ATOM     25  S   UNL     1      -2.527  12.550  19.954  0.00  0.00    +0.000 S 
ATOM     26  H   UNL     1      -4.452  12.361  17.939  0.00  0.00    +0.000 HD
BRANCH  20  27
ATOM     27  C   UNL     1      -3.932  10.822  16.653  0.00  0.00    +0.000 C 
BRANCH  27  28
ATOM     28  C   UNL     1      -3.308  11.091  15.279  0.00  0.00    +0.000 C 
BRANCH  28  30
ATOM     29  C   UNL     1      -3.432   9.764  13.330  0.00  0.00    +0.000 C 
ATOM     30  O   UNL     1      -2.967   9.837  14.671  0.00  0.00    +0.000 OA
ENDBRANCH  28  30
ENDBRANCH  27  28
ENDBRANCH  20  27
ENDBRANCH  19  24
ENDBRANCH  18  19
ENDBRANCH   1  18
TORSDOF 9
ENDMDL
MODEL 3
REMARK VINA RESULT:      -6.9      6.349      7.985
REMARK  Name = 
REMARK  10 active torsions:
REMARK  status: ('A' for Active; 'I' for Inactive)
REMARK    1  A    between atoms: C_1  and  O_2
REMARK    2  A    between atoms: O_2  and  C_3
REMARK    3  A    between atoms: C_3  and  C_4
REMARK    4  A    between atoms: C_4  and  N_5
REMARK    5  A    between atoms: C_9  and  S_10
REMARK    6  A    between atoms: S_10  and  C_11
REMARK    7  A    between atoms: C_11  and  C_12
REMARK    8  A    between atoms: N_14  and  N_15
REMARK    9  A    between atoms: C_16  and  C_18
REMARK   10  A    between atoms: C_21  and  N_22
REMARK                            x       y       z     vdW  Elec       q    Type
REMARK                         _______ _______ _______ _____ _____    ______ ____
ROOT
ATOM      1  C   UNL     1       7.968   7.545  18.082  0.00  0.00    +0.000 C 
ATOM      2  O   UNL     1       7.646   7.917  16.951  0.00  0.00    +0.000 OA
ATOM      3  N   UNL     1       8.631   8.375  18.965  0.00  0.00    +0.000 N 
ATOM      4  H   UNL     1       9.071   8.040  19.830  0.00  0.00    +0.000 HD
ENDROOT
BRANCH   3   5
ATOM      5  N   UNL     1       9.075   9.613  18.483  0.00  0.00    +0.000 N 
ATOM      6  C   UNL     1       9.378  10.607  19.390  0.00  0.00    +0.000 C 
ATOM      7  O   UNL     1       9.363  10.434  20.605  0.00  0.00    +0.000 OA
ATOM      8  H   UNL     1       9.003   9.744  17.477  0.00  0.00    +0.000 HD
BRANCH   6   9
ATOM      9  C   UNL     1       9.689  11.953  18.825  0.00  0.00    +0.000 A 
ATOM     10  C   UNL     1      10.564  12.025  17.728  0.00  0.00    +0.000 A 
ATOM     11  C   UNL     1      10.910  13.261  17.172  0.00  0.00    +0.000 A 
ATOM     12  C   UNL     1      10.369  14.433  17.709  0.00  0.00    +0.000 A 
ATOM     13  C   UNL     1       9.481  14.372  18.797  0.00  0.00    +0.000 A 
ATOM     14  C   UNL     1       9.143  13.132  19.349  0.00  0.00    +0.000 A 
BRANCH  12  15
ATOM     15  N   UNL     1      10.720  15.740  17.138  0.00  0.00    +0.000 N 
ATOM     16  O   UNL     1      11.911  15.937  16.843  0.00  0.00    +0.000 OA
ATOM     17  O   UNL     1       9.814  16.567  16.990  0.00  0.00    +0.000 OA
ENDBRANCH  12  15
ENDBRANCH   6   9
ENDBRANCH   3   5
BRANCH   1  18
ATOM     18  C   UNL     1       7.673   6.155  18.606  0.00  0.00    +0.000 C 
BRANCH  18  19
ATOM     19  S   UNL     1       7.328   5.014  17.234  0.00  0.00    +0.000 S 
BRANCH  19  24
ATOM     20  N   UNL     1       2.153   4.509  18.783  0.00  0.00    +0.000 N 
ATOM     21  C   UNL     1       3.359   4.459  18.165  0.00  0.00    +0.000 A 
ATOM     22  N   UNL     1       3.649   3.736  17.101  0.00  0.00    +0.000 NA
ATOM     23  N   UNL     1       4.964   3.855  16.705  0.00  0.00    +0.000 NA
ATOM     24  C   UNL     1       5.630   4.676  17.485  0.00  0.00    +0.000 A 
ATOM     25  S   UNL     1       4.704   5.364  18.751  0.00  0.00    +0.000 S 
ATOM     26  H   UNL     1       2.120   4.921  19.713  0.00  0.00    +0.000 HD
BRANCH  20  27
ATOM     27  C   UNL     1       1.276   3.340  18.673  0.00  0.00    +0.000 C 
BRANCH  27  28
ATOM     28  C   UNL     1       1.929   2.126  19.344  0.00  0.00    +0.000 C 
BRANCH  28  30
ATOM     29  C   UNL     1       1.296   2.750  21.531  0.00  0.00    +0.000 C 
ATOM     30  O   UNL     1       2.384   2.507  20.650  0.00  0.00    +0.000 OA
ENDBRANCH  28  30
ENDBRANCH  27  28
ENDBRANCH  20  27
ENDBRANCH  19  24
ENDBRANCH  18  19
ENDBRANCH   1  18
TORSDOF 9
ENDMDL
MODEL 4
REMARK VINA RESULT:      -6.6      4.170      9.315
REMARK  Name = 
REMARK  10 active torsions:
REMARK  status: ('A' for Active; 'I' for Inactive)
REMARK    1  A    between atoms: C_1  and  O_2
REMARK    2  A    between atoms: O_2  and  C_3
REMARK    3  A    between atoms: C_3  and  C_4
REMARK    4  A    between atoms: C_4  and  N_5
REMARK    5  A    between atoms: C_9  and  S_10
REMARK    6  A    between atoms: S_10  and  C_11
REMARK    7  A    between atoms: C_11  and  C_12
REMARK    8  A    between atoms: N_14  and  N_15
REMARK    9  A    between atoms: C_16  and  C_18
REMARK   10  A    between atoms: C_21  and  N_22
REMARK                            x       y       z     vdW  Elec       q    Type
REMARK                         _______ _______ _______ _____ _____    ______ ____
ROOT
ATOM      1  C   UNL     1       0.775   9.729  22.031  0.00  0.00    +0.000 C 
ATOM      2  O   UNL     1       1.673   9.496  22.845  0.00  0.00    +0.000 OA
ATOM      3  N   UNL     1       0.308   8.765  21.159  0.00  0.00    +0.000 N 
ATOM      4  H   UNL     1      -0.297   8.976  20.358  0.00  0.00    +0.000 HD
ENDROOT
BRANCH   3   5
ATOM      5  N   UNL     1       0.995   7.545  21.114  0.00  0.00    +0.000 N 
ATOM      6  C   UNL     1       1.870   7.316  20.071  0.00  0.00    +0.000 C 
ATOM      7  O   UNL     1       2.143   8.164  19.226  0.00  0.00    +0.000 OA
ATOM      8  H   UNL     1       0.689   6.842  21.782  0.00  0.00    +0.000 HD
BRANCH   6   9
ATOM      9  C   UNL     1       2.453   5.946  19.978  0.00  0.00    +0.000 A 
ATOM     10  C   UNL     1       3.362   5.681  18.939  0.00  0.00    +0.000 A 
ATOM     11  C   UNL     1       3.922   4.408  18.789  0.00  0.00    +0.000 A 
ATOM     12  C   UNL     1       3.579   3.395  19.690  0.00  0.00    +0.000 A 
ATOM     13  C   UNL     1       2.683   3.652  20.742  0.00  0.00    +0.000 A 
ATOM     14  C   UNL     1       2.126   4.927  20.883  0.00  0.00    +0.000 A 
BRANCH  12  15
ATOM     15  N   UNL     1       4.158   2.052  19.549  0.00  0.00    +0.000 N 
ATOM     16  O   UNL     1       3.769   1.357  18.594  0.00  0.00    +0.000 OA
ATOM     17  O   UNL     1       4.990   1.692  20.387  0.00  0.00    +0.000 OA
ENDBRANCH  12  15
ENDBRANCH   6   9
ENDBRANCH   3   5
BRANCH   1  18
ATOM     18  C   UNL     1       0.107  11.083  21.908  0.00  0.00    +0.000 C 
BRANCH  18  19
ATOM     19  S   UNL     1       0.715  11.966  20.441  0.00  0.00    +0.000 S 
BRANCH  19  24
ATOM     20  N   UNL     1      -3.052  11.806  16.540  0.00  0.00    +0.000 N 
ATOM     21  C   UNL     1      -2.205  11.564  17.571  0.00  0.00    +0.000 A 
ATOM     22  N   UNL     1      -2.199  10.481  18.323  0.00  0.00    +0.000 NA
ATOM     23  N   UNL     1      -1.248  10.517  19.320  0.00  0.00    +0.000 NA
ATOM     24  C   UNL     1      -0.555  11.632  19.286  0.00  0.00    +0.000 A 
ATOM     25  S   UNL     1      -1.008  12.714  18.038  0.00  0.00    +0.000 S 
ATOM     26  H   UNL     1      -3.103  12.761  16.191  0.00  0.00    +0.000 HD
BRANCH  20  27
ATOM     27  C   UNL     1      -4.369  11.164  16.567  0.00  0.00    +0.000 C 
BRANCH  27  28
ATOM     28  C   UNL     1      -5.451  12.195  16.911  0.00  0.00    +0.000 C 
BRANCH  28  30
ATOM     29  C   UNL     1      -5.992  10.707  18.661  0.00  0.00    +0.000 C 
ATOM     30  O   UNL     1      -5.791  12.066  18.298  0.00  0.00    +0.000 OA
ENDBRANCH  28  30
ENDBRANCH  27  28
ENDBRANCH  20  27
ENDBRANCH  19  24
ENDBRANCH  18  19
ENDBRANCH   1  18
TORSDOF 9
ENDMDL
MODEL 5
REMARK VINA RESULT:      -6.5      2.494      3.154
REMARK  Name = 
REMARK  10 active torsions:
REMARK  status: ('A' for Active; 'I' for Inactive)
REMARK    1  A    between atoms: C_1  and  O_2
REMARK    2  A    between atoms: O_2  and  C_3
REMARK    3  A    between atoms: C_3  and  C_4
REMARK    4  A    between atoms: C_4  and  N_5
REMARK    5  A    between atoms: C_9  and  S_10
REMARK    6  A    between atoms: S_10  and  C_11
REMARK    7  A    between atoms: C_11  and  C_12
REMARK    8  A    between atoms: N_14  and  N_15
REMARK    9  A    between atoms: C_16  and  C_18
REMARK   10  A    between atoms: C_21  and  N_22
REMARK                            x       y       z     vdW  Elec       q    Type
REMARK                         _______ _______ _______ _____ _____    ______ ____
ROOT
ATOM      1  C   UNL     1       2.274   5.031  20.171  0.00  0.00    +0.000 C 
ATOM      2  O   UNL     1       1.167   4.619  20.525  0.00  0.00    +0.000 OA
ATOM      3  N   UNL     1       2.702   6.315  20.448  0.00  0.00    +0.000 N 
ATOM      4  H   UNL     1       3.528   6.740  20.012  0.00  0.00    +0.000 HD
ENDROOT
BRANCH   3   5
ATOM      5  N   UNL     1       1.773   7.200  21.011  0.00  0.00    +0.000 N 
ATOM      6  C   UNL     1       1.401   8.316  20.290  0.00  0.00    +0.000 C 
ATOM      7  O   UNL     1       1.778   8.530  19.141  0.00  0.00    +0.000 OA
ATOM      8  H   UNL     1       1.543   7.034  21.987  0.00  0.00    +0.000 HD
BRANCH   6   9
ATOM      9  C   UNL     1       0.538   9.308  20.995  0.00  0.00    +0.000 A 
ATOM     10  C   UNL     1       0.305   9.125  22.369  0.00  0.00    +0.000 A 
ATOM     11  C   UNL     1      -0.515  10.009  23.077  0.00  0.00    +0.000 A 
ATOM     12  C   UNL     1      -1.099  11.092  22.410  0.00  0.00    +0.000 A 
ATOM     13  C   UNL     1      -0.861  11.293  21.040  0.00  0.00    +0.000 A 
ATOM     14  C   UNL     1      -0.042  10.402  20.339  0.00  0.00    +0.000 A 
BRANCH  12  15
ATOM     15  N   UNL     1      -1.963  12.031  23.137  0.00  0.00    +0.000 N 
ATOM     16  O   UNL     1      -3.056  11.606  23.548  0.00  0.00    +0.000 OA
ATOM     17  O   UNL     1      -1.554  13.187  23.293  0.00  0.00    +0.000 OA
ENDBRANCH  12  15
ENDBRANCH   6   9
ENDBRANCH   3   5
BRANCH   1  18
ATOM     18  C   UNL     1       3.262   4.178  19.403  0.00  0.00    +0.000 C 
BRANCH  18  19
ATOM     19  S   UNL     1       4.920   4.923  19.444  0.00  0.00    +0.000 S 
BRANCH  19  24
ATOM     20  N   UNL     1       7.392   4.433  14.640  0.00  0.00    +0.000 N 
ATOM     21  C   UNL     1       6.525   4.488  15.681  0.00  0.00    +0.000 A 
ATOM     22  N   UNL     1       5.215   4.363  15.599  0.00  0.00    +0.000 NA
ATOM     23  N   UNL     1       4.580   4.492  16.816  0.00  0.00    +0.000 NA
ATOM     24  C   UNL     1       5.437   4.705  17.787  0.00  0.00    +0.000 A 
ATOM     25  S   UNL     1       7.075   4.761  17.292  0.00  0.00    +0.000 S 
ATOM     26  H   UNL     1       8.340   4.767  14.801  0.00  0.00    +0.000 HD
BRANCH  20  27
ATOM     27  C   UNL     1       6.898   4.818  13.314  0.00  0.00    +0.000 C 
BRANCH  27  28
ATOM     28  C   UNL     1       6.002   3.711  12.744  0.00  0.00    +0.000 C 
BRANCH  28  30
ATOM     29  C   UNL     1       6.022   1.828  11.322  0.00  0.00    +0.000 C 
ATOM     30  O   UNL     1       6.814   2.795  11.999  0.00  0.00    +0.000 OA
ENDBRANCH  28  30
ENDBRANCH  27  28
ENDBRANCH  20  27
ENDBRANCH  19  24
ENDBRANCH  18  19
ENDBRANCH   1  18
TORSDOF 9
ENDMDL
MODEL 6
REMARK VINA RESULT:      -6.4      1.092      1.590
REMARK  Name = 
REMARK  10 active torsions:
REMARK  status: ('A' for Active; 'I' for Inactive)
REMARK    1  A    between atoms: C_1  and  O_2
REMARK    2  A    between atoms: O_2  and  C_3
REMARK    3  A    between atoms: C_3  and  C_4
REMARK    4  A    between atoms: C_4  and  N_5
REMARK    5  A    between atoms: C_9  and  S_10
REMARK    6  A    between atoms: S_10  and  C_11
REMARK    7  A    between atoms: C_11  and  C_12
REMARK    8  A    between atoms: N_14  and  N_15
REMARK    9  A    between atoms: C_16  and  C_18
REMARK   10  A    between atoms: C_21  and  N_22
REMARK                            x       y       z     vdW  Elec       q    Type
REMARK                         _______ _______ _______ _____ _____    ______ ____
ROOT
ATOM      1  C   UNL     1       1.786   4.658  20.804  0.00  0.00    +0.000 C 
ATOM      2  O   UNL     1       0.638   4.623  20.356  0.00  0.00    +0.000 OA
ATOM      3  N   UNL     1       2.544   5.813  20.794  0.00  0.00    +0.000 N 
ATOM      4  H   UNL     1       3.551   5.827  20.984  0.00  0.00    +0.000 HD
ENDROOT
BRANCH   3   5
ATOM      5  N   UNL     1       2.026   6.921  20.110  0.00  0.00    +0.000 N 
ATOM      6  C   UNL     1       1.560   7.993  20.844  0.00  0.00    +0.000 C 
ATOM      7  O   UNL     1       1.656   8.062  22.066  0.00  0.00    +0.000 OA
ATOM      8  H   UNL     1       1.892   6.797  19.110  0.00  0.00    +0.000 HD
BRANCH   6   9
ATOM      9  C   UNL     1       0.873   9.075  20.081  0.00  0.00    +0.000 A 
ATOM     10  C   UNL     1      -0.090   9.849  20.750  0.00  0.00    +0.000 A 
ATOM     11  C   UNL     1      -0.783  10.861  20.078  0.00  0.00    +0.000 A 
ATOM     12  C   UNL     1      -0.504  11.110  18.730  0.00  0.00    +0.000 A 
ATOM     13  C   UNL     1       0.468  10.352  18.055  0.00  0.00    +0.000 A 
ATOM     14  C   UNL     1       1.154   9.340  18.733  0.00  0.00    +0.000 A 
BRANCH  12  15
ATOM     15  N   UNL     1      -1.221  12.169  18.008  0.00  0.00    +0.000 N 
ATOM     16  O   UNL     1      -2.296  11.866  17.463  0.00  0.00    +0.000 OA
ATOM     17  O   UNL     1      -0.712  13.295  17.983  0.00  0.00    +0.000 OA
ENDBRANCH  12  15
ENDBRANCH   6   9
ENDBRANCH   3   5
BRANCH   1  18
ATOM     18  C   UNL     1       2.473   3.446  21.400  0.00  0.00    +0.000 C 
BRANCH  18  19
ATOM     19  S   UNL     1       3.030   2.316  20.089  0.00  0.00    +0.000 S 
BRANCH  19  24
ATOM     20  N   UNL     1       5.152   5.508  16.249  0.00  0.00    +0.000 N 
ATOM     21  C   UNL     1       4.859   4.805  17.372  0.00  0.00    +0.000 A 
ATOM     22  N   UNL     1       5.610   4.734  18.453  0.00  0.00    +0.000 NA
ATOM     23  N   UNL     1       5.080   3.920  19.431  0.00  0.00    +0.000 NA
ATOM     24  C   UNL     1       3.932   3.403  19.057  0.00  0.00    +0.000 A 
ATOM     25  S   UNL     1       3.415   3.872  17.494  0.00  0.00    +0.000 S 
ATOM     26  H   UNL     1       4.611   5.301  15.413  0.00  0.00    +0.000 HD
BRANCH  20  27
ATOM     27  C   UNL     1       6.564   5.748  15.939  0.00  0.00    +0.000 C 
BRANCH  27  28
ATOM     28  C   UNL     1       7.134   4.574  15.133  0.00  0.00    +0.000 C 
BRANCH  28  30
ATOM     29  C   UNL     1       6.133   3.681  13.192  0.00  0.00    +0.000 C 
ATOM     30  O   UNL     1       6.844   4.780  13.744  0.00  0.00    +0.000 OA
ENDBRANCH  28  30
ENDBRANCH  27  28
ENDBRANCH  20  27
ENDBRANCH  19  24
ENDBRANCH  18  19
ENDBRANCH   1  18
TORSDOF 9
ENDMDL
MODEL 7
REMARK VINA RESULT:      -6.4      4.739     10.589
REMARK  Name = 
REMARK  10 active torsions:
REMARK  status: ('A' for Active; 'I' for Inactive)
REMARK    1  A    between atoms: C_1  and  O_2
REMARK    2  A    between atoms: O_2  and  C_3
REMARK    3  A    between atoms: C_3  and  C_4
REMARK    4  A    between atoms: C_4  and  N_5
REMARK    5  A    between atoms: C_9  and  S_10
REMARK    6  A    between atoms: S_10  and  C_11
REMARK    7  A    between atoms: C_11  and  C_12
REMARK    8  A    between atoms: N_14  and  N_15
REMARK    9  A    between atoms: C_16  and  C_18
REMARK   10  A    between atoms: C_21  and  N_22
REMARK                            x       y       z     vdW  Elec       q    Type
REMARK                         _______ _______ _______ _____ _____    ______ ____
ROOT
ATOM      1  C   UNL     1       1.397   9.025  19.490  0.00  0.00    +0.000 C 
ATOM      2  O   UNL     1       1.661   9.737  18.518  0.00  0.00    +0.000 OA
ATOM      3  N   UNL     1       1.898   7.744  19.618  0.00  0.00    +0.000 N 
ATOM      4  H   UNL     1       1.553   7.072  20.311  0.00  0.00    +0.000 HD
ENDROOT
BRANCH   3   5
ATOM      5  N   UNL     1       2.595   7.209  18.527  0.00  0.00    +0.000 N 
ATOM      6  C   UNL     1       3.432   6.133  18.740  0.00  0.00    +0.000 C 
ATOM      7  O   UNL     1       3.532   5.564  19.822  0.00  0.00    +0.000 OA
ATOM      8  H   UNL     1       2.547   7.749  17.667  0.00  0.00    +0.000 HD
BRANCH   6   9
ATOM      9  C   UNL     1       4.271   5.703  17.583  0.00  0.00    +0.000 A 
ATOM     10  C   UNL     1       4.832   6.699  16.765  0.00  0.00    +0.000 A 
ATOM     11  C   UNL     1       5.608   6.355  15.653  0.00  0.00    +0.000 A 
ATOM     12  C   UNL     1       5.835   5.005  15.363  0.00  0.00    +0.000 A 
ATOM     13  C   UNL     1       5.292   4.001  16.183  0.00  0.00    +0.000 A 
ATOM     14  C   UNL     1       4.514   4.354  17.291  0.00  0.00    +0.000 A 
BRANCH  12  15
ATOM     15  N   UNL     1       6.648   4.624  14.200  0.00  0.00    +0.000 N 
ATOM     16  O   UNL     1       6.292   3.624  13.554  0.00  0.00    +0.000 OA
ATOM     17  O   UNL     1       7.636   5.317  13.937  0.00  0.00    +0.000 OA
ENDBRANCH  12  15
ENDBRANCH   6   9
ENDBRANCH   3   5
BRANCH   1  18
ATOM     18  C   UNL     1       0.505   9.482  20.626  0.00  0.00    +0.000 C 
BRANCH  18  19
ATOM     19  S   UNL     1       0.751  11.251  20.961  0.00  0.00    +0.000 S 
BRANCH  19  24
ATOM     20  N   UNL     1      -4.177  12.950  22.466  0.00  0.00    +0.000 N 
ATOM     21  C   UNL     1      -2.933  12.418  22.373  0.00  0.00    +0.000 A 
ATOM     22  N   UNL     1      -2.258  11.861  23.360  0.00  0.00    +0.000 NA
ATOM     23  N   UNL     1      -1.003  11.432  22.986  0.00  0.00    +0.000 NA
ATOM     24  C   UNL     1      -0.769  11.674  21.716  0.00  0.00    +0.000 A 
ATOM     25  S   UNL     1      -2.059  12.436  20.887  0.00  0.00    +0.000 S 
ATOM     26  H   UNL     1      -4.490  13.544  21.701  0.00  0.00    +0.000 HD
BRANCH  20  27
ATOM     27  C   UNL     1      -4.607  13.467  23.768  0.00  0.00    +0.000 C 
BRANCH  27  28
ATOM     28  C   UNL     1      -5.815  12.671  24.278  0.00  0.00    +0.000 C 
BRANCH  28  30
ATOM     29  C   UNL     1      -7.895  12.685  23.162  0.00  0.00    +0.000 C 
ATOM     30  O   UNL     1      -6.562  12.191  23.153  0.00  0.00    +0.000 OA
ENDBRANCH  28  30
ENDBRANCH  27  28
ENDBRANCH  20  27
ENDBRANCH  19  24
ENDBRANCH  18  19
ENDBRANCH   1  18
TORSDOF 9
ENDMDL
MODEL 8
REMARK VINA RESULT:      -6.4      1.076      1.129
REMARK  Name = 
REMARK  10 active torsions:
REMARK  status: ('A' for Active; 'I' for Inactive)
REMARK    1  A    between atoms: C_1  and  O_2
REMARK    2  A    between atoms: O_2  and  C_3
REMARK    3  A    between atoms: C_3  and  C_4
REMARK    4  A    between atoms: C_4  and  N_5
REMARK    5  A    between atoms: C_9  and  S_10
REMARK    6  A    between atoms: S_10  and  C_11
REMARK    7  A    between atoms: C_11  and  C_12
REMARK    8  A    between atoms: N_14  and  N_15
REMARK    9  A    between atoms: C_16  and  C_18
REMARK   10  A    between atoms: C_21  and  N_22
REMARK                            x       y       z     vdW  Elec       q    Type
REMARK                         _______ _______ _______ _____ _____    ______ ____
ROOT
ATOM      1  C   UNL     1       1.630   3.463  19.906  0.00  0.00    +0.000 C 
ATOM      2  O   UNL     1       0.685   3.712  19.153  0.00  0.00    +0.000 OA
ATOM      3  N   UNL     1       2.081   4.371  20.843  0.00  0.00    +0.000 N 
ATOM      4  H   UNL     1       2.968   4.267  21.347  0.00  0.00    +0.000 HD
ENDROOT
BRANCH   3   5
ATOM      5  N   UNL     1       1.533   5.661  20.812  0.00  0.00    +0.000 N 
ATOM      6  C   UNL     1       2.175   6.634  20.074  0.00  0.00    +0.000 C 
ATOM      7  O   UNL     1       3.157   6.408  19.373  0.00  0.00    +0.000 OA
ATOM      8  H   UNL     1       0.769   5.830  21.461  0.00  0.00    +0.000 HD
BRANCH   6   9
ATOM      9  C   UNL     1       1.646   8.024  20.202  0.00  0.00    +0.000 A 
ATOM     10  C   UNL     1       1.583   8.818  19.044  0.00  0.00    +0.000 A 
ATOM     11  C   UNL     1       1.118  10.135  19.108  0.00  0.00    +0.000 A 
ATOM     12  C   UNL     1       0.702  10.661  20.336  0.00  0.00    +0.000 A 
ATOM     13  C   UNL     1       0.747   9.871  21.498  0.00  0.00    +0.000 A 
ATOM     14  C   UNL     1       1.217   8.556  21.426  0.00  0.00    +0.000 A 
BRANCH  12  15
ATOM     15  N   UNL     1       0.211  12.042  20.423  0.00  0.00    +0.000 N 
ATOM     16  O   UNL     1       1.045  12.935  20.650  0.00  0.00    +0.000 OA
ATOM     17  O   UNL     1      -1.000  12.233  20.269  0.00  0.00    +0.000 OA
ENDBRANCH  12  15
ENDBRANCH   6   9
ENDBRANCH   3   5
BRANCH   1  18
ATOM     18  C   UNL     1       2.382   2.148  19.873  0.00  0.00    +0.000 C 
BRANCH  18  19
ATOM     19  S   UNL     1       4.116   2.391  20.362  0.00  0.00    +0.000 S 
BRANCH  19  24
ATOM     20  N   UNL     1       5.344   4.894  15.707  0.00  0.00    +0.000 N 
ATOM     21  C   UNL     1       5.255   4.446  16.985  0.00  0.00    +0.000 A 
ATOM     22  N   UNL     1       6.046   4.796  17.980  0.00  0.00    +0.000 NA
ATOM     23  N   UNL     1       5.743   4.160  19.164  0.00  0.00    +0.000 NA
ATOM     24  C   UNL     1       4.720   3.347  19.028  0.00  0.00    +0.000 A 
ATOM     25  S   UNL     1       4.052   3.302  17.452  0.00  0.00    +0.000 S 
ATOM     26  H   UNL     1       4.827   4.383  14.995  0.00  0.00    +0.000 HD
BRANCH  20  27
ATOM     27  C   UNL     1       6.657   5.328  15.222  0.00  0.00    +0.000 C 
BRANCH  27  28
ATOM     28  C   UNL     1       7.013   4.584  13.929  0.00  0.00    +0.000 C 
BRANCH  28  30
ATOM     29  C   UNL     1       5.984   3.299  12.238  0.00  0.00    +0.000 C 
ATOM     30  O   UNL     1       5.950   3.677  13.608  0.00  0.00    +0.000 OA
ENDBRANCH  28  30
ENDBRANCH  27  28
ENDBRANCH  20  27
ENDBRANCH  19  24
ENDBRANCH  18  19
ENDBRANCH   1  18
TORSDOF 9
ENDMDL
MODEL 9
REMARK VINA RESULT:      -6.4      2.383      3.180
REMARK  Name = 
REMARK  10 active torsions:
REMARK  status: ('A' for Active; 'I' for Inactive)
REMARK    1  A    between atoms: C_1  and  O_2
REMARK    2  A    between atoms: O_2  and  C_3
REMARK    3  A    between atoms: C_3  and  C_4
REMARK    4  A    between atoms: C_4  and  N_5
REMARK    5  A    between atoms: C_9  and  S_10
REMARK    6  A    between atoms: S_10  and  C_11
REMARK    7  A    between atoms: C_11  and  C_12
REMARK    8  A    between atoms: N_14  and  N_15
REMARK    9  A    between atoms: C_16  and  C_18
REMARK   10  A    between atoms: C_21  and  N_22
REMARK                            x       y       z     vdW  Elec       q    Type
REMARK                         _______ _______ _______ _____ _____    ______ ____
ROOT
ATOM      1  C   UNL     1       3.624   4.808  19.965  0.00  0.00    +0.000 C 
ATOM      2  O   UNL     1       2.983   4.411  20.941  0.00  0.00    +0.000 OA
ATOM      3  N   UNL     1       3.553   6.115  19.523  0.00  0.00    +0.000 N 
ATOM      4  H   UNL     1       3.923   6.424  18.618  0.00  0.00    +0.000 HD
ENDROOT
BRANCH   3   5
ATOM      5  N   UNL     1       2.601   6.950  20.123  0.00  0.00    +0.000 N 
ATOM      6  C   UNL     1       2.045   7.965  19.372  0.00  0.00    +0.000 C 
ATOM      7  O   UNL     1       2.277   8.121  18.176  0.00  0.00    +0.000 OA
ATOM      8  H   UNL     1       2.491   6.841  21.128  0.00  0.00    +0.000 HD
BRANCH   6   9
ATOM      9  C   UNL     1       1.161   8.924  20.098  0.00  0.00    +0.000 A 
ATOM     10  C   UNL     1       0.840   8.644  21.437  0.00  0.00    +0.000 A 
ATOM     11  C   UNL     1      -0.003   9.495  22.160  0.00  0.00    +0.000 A 
ATOM     12  C   UNL     1      -0.520  10.639  21.544  0.00  0.00    +0.000 A 
ATOM     13  C   UNL     1      -0.193  10.937  20.210  0.00  0.00    +0.000 A 
ATOM     14  C   UNL     1       0.648  10.079  19.493  0.00  0.00    +0.000 A 
BRANCH  12  15
ATOM     15  N   UNL     1      -1.406  11.545  22.287  0.00  0.00    +0.000 N 
ATOM     16  O   UNL     1      -2.192  12.248  21.629  0.00  0.00    +0.000 OA
ATOM     17  O   UNL     1      -1.315  11.556  23.519  0.00  0.00    +0.000 OA
ENDBRANCH  12  15
ENDBRANCH   6   9
ENDBRANCH   3   5
BRANCH   1  18
ATOM     18  C   UNL     1       4.542   3.909  19.162  0.00  0.00    +0.000 C 
BRANCH  18  19
ATOM     19  S   UNL     1       6.082   4.778  18.741  0.00  0.00    +0.000 S 
BRANCH  19  24
ATOM     20  N   UNL     1       5.247   4.085  13.425  0.00  0.00    +0.000 N 
ATOM     21  C   UNL     1       5.745   4.298  14.669  0.00  0.00    +0.000 A 
ATOM     22  N   UNL     1       7.018   4.450  14.973  0.00  0.00    +0.000 NA
ATOM     23  N   UNL     1       7.238   4.621  16.323  0.00  0.00    +0.000 NA
ATOM     24  C   UNL     1       6.114   4.599  17.001  0.00  0.00    +0.000 A 
ATOM     25  S   UNL     1       4.711   4.373  16.046  0.00  0.00    +0.000 S 
ATOM     26  H   UNL     1       4.286   3.761  13.354  0.00  0.00    +0.000 HD
BRANCH  20  27
ATOM     27  C   UNL     1       6.116   3.432  12.441  0.00  0.00    +0.000 C 
BRANCH  27  28
ATOM     28  C   UNL     1       5.303   2.448  11.591  0.00  0.00    +0.000 C 
BRANCH  28  30
ATOM     29  C   UNL     1       7.513   1.794  11.080  0.00  0.00    +0.000 C 
ATOM     30  O   UNL     1       6.159   1.373  11.180  0.00  0.00    +0.000 OA
ENDBRANCH  28  30
ENDBRANCH  27  28
ENDBRANCH  20  27
ENDBRANCH  19  24
ENDBRANCH  18  19
ENDBRANCH   1  18
TORSDOF 9
ENDMDL
