MODEL 1
REMARK VINA RESULT:      -6.5      0.000      0.000
REMARK  Name = 
REMARK  9 active torsions:
REMARK  status: ('A' for Active; 'I' for Inactive)
REMARK    1  A    between atoms: C_1  and  N_2
REMARK    2  A    between atoms: N_2  and  C_3
REMARK    3  A    between atoms: N_2  and  C_4
REMARK    4  A    between atoms: N_2  and  C_5
REMARK    5  A    between atoms: C_5  and  C_6
REMARK    6  A    between atoms: C_7  and  C_8
REMARK    7  A    between atoms: C_8  and  O_9
REMARK    8  A    between atoms: O_9  and  C_10
REMARK    9  A    between atoms: N_12  and  C_13
REMARK                            x       y       z     vdW  Elec       q    Type
REMARK                         _______ _______ _______ _____ _____    ______ ____
ROOT
ATOM      1  C   UNL     1       7.326   7.018  17.632  0.00  0.00    +0.000 C 
ATOM      2  O   UNL     1       7.592   6.280  18.572  0.00  0.00    +0.000 OA
ATOM      3  N   UNL     1       6.235   6.936  16.810  0.00  0.00    +0.000 N 
ATOM      4  H   UNL     1       6.368   7.313  15.883  0.00  0.00    +0.000 HD
ENDROOT
BRANCH   3   5
ATOM      5  C   UNL     1       5.111   6.148  17.073  0.00  0.00    +0.000 A 
ATOM      6  C   UNL     1       4.006   6.660  17.768  0.00  0.00    +0.000 A 
ATOM      7  C   UNL     1       2.911   5.847  18.071  0.00  0.00    +0.000 A 
ATOM      8  C   UNL     1       2.923   4.517  17.676  0.00  0.00    +0.000 A 
ATOM      9 CL   UNL     1       1.598   3.506  18.092  0.00  0.00    +0.000 Cl
ATOM     10  C   UNL     1       3.990   4.010  16.951  0.00  0.00    +0.000 A 
ATOM     11  C   UNL     1       5.086   4.816  16.628  0.00  0.00    +0.000 A 
ENDBRANCH   3   5
BRANCH   1  12
ATOM     12  O   UNL     1       8.158   7.982  17.171  0.00  0.00    +0.000 OA
BRANCH  12  13
ATOM     13  C   UNL     1       7.864   9.261  17.719  0.00  0.00    +0.000 C 
BRANCH  13  15
ATOM     14  C   UNL     1       9.613  10.506  19.048  0.00  0.00    +0.000 C 
ATOM     15  C   UNL     1       8.823   9.442  18.853  0.00  0.00    +0.000 C 
BRANCH  14  16
ATOM     16  C   UNL     1       9.653  11.689  18.127  0.00  0.00    +0.000 C 
BRANCH  16  18
ATOM     17  C   UNL     1      11.507  13.072  17.243  0.00  0.00    +0.000 C 
ATOM     18  N   UNL     1      10.654  12.787  18.481  0.00  0.00    +0.000 N 
ATOM     19  C   UNL     1      11.578  12.333  19.601  0.00  0.00    +0.000 C 
ATOM     20  C   UNL     1       9.932  14.070  18.867  0.00  0.00    +0.000 C 
ENDBRANCH  16  18
ENDBRANCH  14  16
ENDBRANCH  13  15
ENDBRANCH  12  13
ENDBRANCH   1  12
TORSDOF 6
ENDMDL
MODEL 2
REMARK VINA RESULT:      -6.4      1.587      2.414
REMARK  Name = 
REMARK  9 active torsions:
REMARK  status: ('A' for Active; 'I' for Inactive)
REMARK    1  A    between atoms: C_1  and  N_2
REMARK    2  A    between atoms: N_2  and  C_3
REMARK    3  A    between atoms: N_2  and  C_4
REMARK    4  A    between atoms: N_2  and  C_5
REMARK    5  A    between atoms: C_5  and  C_6
REMARK    6  A    between atoms: C_7  and  C_8
REMARK    7  A    between atoms: C_8  and  O_9
REMARK    8  A    between atoms: O_9  and  C_10
REMARK    9  A    between atoms: N_12  and  C_13
REMARK                            x       y       z     vdW  Elec       q    Type
REMARK                         _______ _______ _______ _____ _____    ______ ____
ROOT
ATOM      1  C   UNL     1       6.811   5.710  18.719  0.00  0.00    +0.000 C 
ATOM      2  O   UNL     1       7.085   5.267  19.827  0.00  0.00    +0.000 OA
ATOM      3  N   UNL     1       5.669   5.476  18.003  0.00  0.00    +0.000 N 
ATOM      4  H   UNL     1       5.770   5.549  17.000  0.00  0.00    +0.000 HD
ENDROOT
BRANCH   3   5
ATOM      5  C   UNL     1       4.514   4.896  18.534  0.00  0.00    +0.000 A 
ATOM      6  C   UNL     1       4.033   3.665  18.066  0.00  0.00    +0.000 A 
ATOM      7  C   UNL     1       2.848   3.120  18.569  0.00  0.00    +0.000 A 
ATOM      8  C   UNL     1       2.144   3.812  19.544  0.00  0.00    +0.000 A 
ATOM      9 CL   UNL     1       0.662   3.167  20.124  0.00  0.00    +0.000 Cl
ATOM     10  C   UNL     1       2.631   5.009  20.045  0.00  0.00    +0.000 A 
ATOM     11  C   UNL     1       3.822   5.557  19.562  0.00  0.00    +0.000 A 
ENDBRANCH   3   5
BRANCH   1  12
ATOM     12  O   UNL     1       7.674   6.423  17.958  0.00  0.00    +0.000 OA
BRANCH  12  13
ATOM     13  C   UNL     1       8.273   7.495  18.674  0.00  0.00    +0.000 C 
BRANCH  13  15
ATOM     14  C   UNL     1       8.531   9.938  18.090  0.00  0.00    +0.000 C 
ATOM     15  C   UNL     1       8.054   8.713  17.833  0.00  0.00    +0.000 C 
BRANCH  14  16
ATOM     16  C   UNL     1       9.364  10.269  19.292  0.00  0.00    +0.000 C 
BRANCH  16  18
ATOM     17  C   UNL     1      10.516  11.942  20.707  0.00  0.00    +0.000 C 
ATOM     18  N   UNL     1      10.055  11.631  19.282  0.00  0.00    +0.000 N 
ATOM     19  C   UNL     1       9.087  12.722  18.846  0.00  0.00    +0.000 C 
ATOM     20  C   UNL     1      11.280  11.608  18.379  0.00  0.00    +0.000 C 
ENDBRANCH  16  18
ENDBRANCH  14  16
ENDBRANCH  13  15
ENDBRANCH  12  13
ENDBRANCH   1  12
TORSDOF 6
ENDMDL
MODEL 3
REMARK VINA RESULT:      -6.3      1.244      1.715
REMARK  Name = 
REMARK  9 active torsions:
REMARK  status: ('A' for Active; 'I' for Inactive)
REMARK    1  A    between atoms: C_1  and  N_2
REMARK    2  A    between atoms: N_2  and  C_3
REMARK    3  A    between atoms: N_2  and  C_4
REMARK    4  A    between atoms: N_2  and  C_5
REMARK    5  A    between atoms: C_5  and  C_6
REMARK    6  A    between atoms: C_7  and  C_8
REMARK    7  A    between atoms: C_8  and  O_9
REMARK    8  A    between atoms: O_9  and  C_10
REMARK    9  A    between atoms: N_12  and  C_13
REMARK                            x       y       z     vdW  Elec       q    Type
REMARK                         _______ _______ _______ _____ _____    ______ ____
ROOT
ATOM      1  C   UNL     1       6.753   5.798  18.123  0.00  0.00    +0.000 C 
ATOM      2  O   UNL     1       6.784   5.388  19.277  0.00  0.00    +0.000 OA
ATOM      3  N   UNL     1       5.816   5.500  17.172  0.00  0.00    +0.000 N 
ATOM      4  H   UNL     1       6.141   5.560  16.218  0.00  0.00    +0.000 HD
ENDROOT
BRANCH   3   5
ATOM      5  C   UNL     1       4.594   4.879  17.442  0.00  0.00    +0.000 A 
ATOM      6  C   UNL     1       3.470   5.617  17.838  0.00  0.00    +0.000 A 
ATOM      7  C   UNL     1       2.268   4.979  18.155  0.00  0.00    +0.000 A 
ATOM      8  C   UNL     1       2.193   3.596  18.075  0.00  0.00    +0.000 A 
ATOM      9 CL   UNL     1       0.731   2.808  18.514  0.00  0.00    +0.000 Cl
ATOM     10  C   UNL     1       3.284   2.858  17.644  0.00  0.00    +0.000 A 
ATOM     11  C   UNL     1       4.488   3.485  17.309  0.00  0.00    +0.000 A 
ENDBRANCH   3   5
BRANCH   1  12
ATOM     12  O   UNL     1       7.740   6.536  17.560  0.00  0.00    +0.000 OA
BRANCH  12  13
ATOM     13  C   UNL     1       8.213   7.560  18.424  0.00  0.00    +0.000 C 
BRANCH  13  15
ATOM     14  C   UNL     1       8.426  10.049  18.055  0.00  0.00    +0.000 C 
ATOM     15  C   UNL     1       7.958   8.845  17.701  0.00  0.00    +0.000 C 
BRANCH  14  16
ATOM     16  C   UNL     1       9.283  10.284  19.262  0.00  0.00    +0.000 C 
BRANCH  16  18
ATOM     17  C   UNL     1       9.074  12.735  18.982  0.00  0.00    +0.000 C 
ATOM     18  N   UNL     1      10.054  11.603  19.298  0.00  0.00    +0.000 N 
ATOM     19  C   UNL     1      11.151  11.614  18.243  0.00  0.00    +0.000 C 
ATOM     20  C   UNL     1      10.637  11.849  20.682  0.00  0.00    +0.000 C 
ENDBRANCH  16  18
ENDBRANCH  14  16
ENDBRANCH  13  15
ENDBRANCH  12  13
ENDBRANCH   1  12
TORSDOF 6
ENDMDL
MODEL 4
REMARK VINA RESULT:      -6.3      0.575      1.048
REMARK  Name = 
REMARK  9 active torsions:
REMARK  status: ('A' for Active; 'I' for Inactive)
REMARK    1  A    between atoms: C_1  and  N_2
REMARK    2  A    between atoms: N_2  and  C_3
REMARK    3  A    between atoms: N_2  and  C_4
REMARK    4  A    between atoms: N_2  and  C_5
REMARK    5  A    between atoms: C_5  and  C_6
REMARK    6  A    between atoms: C_7  and  C_8
REMARK    7  A    between atoms: C_8  and  O_9
REMARK    8  A    between atoms: O_9  and  C_10
REMARK    9  A    between atoms: N_12  and  C_13
REMARK                            x       y       z     vdW  Elec       q    Type
REMARK                         _______ _______ _______ _____ _____    ______ ____
ROOT
ATOM      1  C   UNL     1       7.155   6.677  17.582  0.00  0.00    +0.000 C 
ATOM      2  O   UNL     1       7.373   5.973  18.560  0.00  0.00    +0.000 OA
ATOM      3  N   UNL     1       6.060   6.624  16.763  0.00  0.00    +0.000 N 
ATOM      4  H   UNL     1       6.217   6.943  15.818  0.00  0.00    +0.000 HD
ENDROOT
BRANCH   3   5
ATOM      5  C   UNL     1       4.887   5.927  17.064  0.00  0.00    +0.000 A 
ATOM      6  C   UNL     1       3.823   6.542  17.739  0.00  0.00    +0.000 A 
ATOM      7  C   UNL     1       2.677   5.820  18.080  0.00  0.00    +0.000 A 
ATOM      8  C   UNL     1       2.597   4.477  17.744  0.00  0.00    +0.000 A 
ATOM      9 CL   UNL     1       1.209   3.577  18.209  0.00  0.00    +0.000 Cl
ATOM     10  C   UNL     1       3.623   3.867  17.040  0.00  0.00    +0.000 A 
ATOM     11  C   UNL     1       4.769   4.581  16.679  0.00  0.00    +0.000 A 
ENDBRANCH   3   5
BRANCH   1  12
ATOM     12  O   UNL     1       8.048   7.559  17.074  0.00  0.00    +0.000 OA
BRANCH  12  13
ATOM     13  C   UNL     1       7.795   8.892  17.496  0.00  0.00    +0.000 C 
BRANCH  13  15
ATOM     14  C   UNL     1       9.324  10.308  18.923  0.00  0.00    +0.000 C 
ATOM     15  C   UNL     1       8.736   9.140  18.633  0.00  0.00    +0.000 C 
BRANCH  14  16
ATOM     16  C   UNL     1       9.123  11.559  18.122  0.00  0.00    +0.000 C 
BRANCH  16  18
ATOM     17  C   UNL     1      10.946  12.372  19.586  0.00  0.00    +0.000 C 
ATOM     18  N   UNL     1       9.831  12.811  18.635  0.00  0.00    +0.000 N 
ATOM     19  C   UNL     1       8.865  13.695  19.410  0.00  0.00    +0.000 C 
ATOM     20  C   UNL     1      10.462  13.584  17.485  0.00  0.00    +0.000 C 
ENDBRANCH  16  18
ENDBRANCH  14  16
ENDBRANCH  13  15
ENDBRANCH  12  13
ENDBRANCH   1  12
TORSDOF 6
ENDMDL
MODEL 5
REMARK VINA RESULT:      -6.3      2.006      2.473
REMARK  Name = 
REMARK  9 active torsions:
REMARK  status: ('A' for Active; 'I' for Inactive)
REMARK    1  A    between atoms: C_1  and  N_2
REMARK    2  A    between atoms: N_2  and  C_3
REMARK    3  A    between atoms: N_2  and  C_4
REMARK    4  A    between atoms: N_2  and  C_5
REMARK    5  A    between atoms: C_5  and  C_6
REMARK    6  A    between atoms: C_7  and  C_8
REMARK    7  A    between atoms: C_8  and  O_9
REMARK    8  A    between atoms: O_9  and  C_10
REMARK    9  A    between atoms: N_12  and  C_13
REMARK                            x       y       z     vdW  Elec       q    Type
REMARK                         _______ _______ _______ _____ _____    ______ ____
ROOT
ATOM      1  C   UNL     1       6.526   5.355  17.556  0.00  0.00    +0.000 C 
ATOM      2  O   UNL     1       5.932   4.941  16.568  0.00  0.00    +0.000 OA
ATOM      3  N   UNL     1       6.029   5.461  18.826  0.00  0.00    +0.000 N 
ATOM      4  H   UNL     1       6.461   6.173  19.397  0.00  0.00    +0.000 HD
ENDROOT
BRANCH   3   5
ATOM      5  C   UNL     1       4.838   4.870  19.255  0.00  0.00    +0.000 A 
ATOM      6  C   UNL     1       3.721   5.644  19.603  0.00  0.00    +0.000 A 
ATOM      7  C   UNL     1       2.553   5.043  20.079  0.00  0.00    +0.000 A 
ATOM      8  C   UNL     1       2.504   3.663  20.208  0.00  0.00    +0.000 A 
ATOM      9 CL   UNL     1       1.086   2.930  20.843  0.00  0.00    +0.000 Cl
ATOM     10  C   UNL     1       3.585   2.884  19.827  0.00  0.00    +0.000 A 
ATOM     11  C   UNL     1       4.754   3.470  19.335  0.00  0.00    +0.000 A 
ENDBRANCH   3   5
BRANCH   1  12
ATOM     12  O   UNL     1       7.765   5.902  17.516  0.00  0.00    +0.000 OA
BRANCH  12  13
ATOM     13  C   UNL     1       7.905   6.996  18.413  0.00  0.00    +0.000 C 
BRANCH  13  15
ATOM     14  C   UNL     1       8.263   9.433  17.858  0.00  0.00    +0.000 C 
ATOM     15  C   UNL     1       7.758   8.226  17.573  0.00  0.00    +0.000 C 
BRANCH  14  16
ATOM     16  C   UNL     1       9.057   9.730  19.094  0.00  0.00    +0.000 C 
BRANCH  16  18
ATOM     17  C   UNL     1      11.042  11.206  19.016  0.00  0.00    +0.000 C 
ATOM     18  N   UNL     1       9.533  11.171  19.262  0.00  0.00    +0.000 N 
ATOM     19  C   UNL     1       9.269  11.664  20.678  0.00  0.00    +0.000 C 
ATOM     20  C   UNL     1       8.863  12.083  18.243  0.00  0.00    +0.000 C 
ENDBRANCH  16  18
ENDBRANCH  14  16
ENDBRANCH  13  15
ENDBRANCH  12  13
ENDBRANCH   1  12
TORSDOF 6
ENDMDL
MODEL 6
REMARK VINA RESULT:      -6.3      0.933      1.564
REMARK  Name = 
REMARK  9 active torsions:
REMARK  status: ('A' for Active; 'I' for Inactive)
REMARK    1  A    between atoms: C_1  and  N_2
REMARK    2  A    between atoms: N_2  and  C_3
REMARK    3  A    between atoms: N_2  and  C_4
REMARK    4  A    between atoms: N_2  and  C_5
REMARK    5  A    between atoms: C_5  and  C_6
REMARK    6  A    between atoms: C_7  and  C_8
REMARK    7  A    between atoms: C_8  and  O_9
REMARK    8  A    between atoms: O_9  and  C_10
REMARK    9  A    between atoms: N_12  and  C_13
REMARK                            x       y       z     vdW  Elec       q    Type
REMARK                         _______ _______ _______ _____ _____    ______ ____
ROOT
ATOM      1  C   UNL     1       7.499   7.229  17.639  0.00  0.00    +0.000 C 
ATOM      2  O   UNL     1       7.832   6.513  18.576  0.00  0.00    +0.000 OA
ATOM      3  N   UNL     1       6.426   7.047  16.811  0.00  0.00    +0.000 N 
ATOM      4  H   UNL     1       6.526   7.444  15.888  0.00  0.00    +0.000 HD
ENDROOT
BRANCH   3   5
ATOM      5  C   UNL     1       5.383   6.152  17.061  0.00  0.00    +0.000 A 
ATOM      6  C   UNL     1       5.447   4.817  16.636  0.00  0.00    +0.000 A 
ATOM      7  C   UNL     1       4.376   3.945  16.847  0.00  0.00    +0.000 A 
ATOM      8  C   UNL     1       3.237   4.412  17.485  0.00  0.00    +0.000 A 
ATOM      9 CL   UNL     1       1.901   3.354  17.698  0.00  0.00    +0.000 Cl
ATOM     10  C   UNL     1       3.177   5.717  17.948  0.00  0.00    +0.000 A 
ATOM     11  C   UNL     1       4.247   6.596  17.758  0.00  0.00    +0.000 A 
ENDBRANCH   3   5
BRANCH   1  12
ATOM     12  O   UNL     1       8.235   8.274  17.192  0.00  0.00    +0.000 OA
BRANCH  12  13
ATOM     13  C   UNL     1       7.907   9.491  17.847  0.00  0.00    +0.000 C 
BRANCH  13  15
ATOM     14  C   UNL     1       9.737  11.019  18.679  0.00  0.00    +0.000 C 
ATOM     15  C   UNL     1       9.105   9.839  18.674  0.00  0.00    +0.000 C 
BRANCH  14  16
ATOM     16  C   UNL     1       9.327  12.183  17.827  0.00  0.00    +0.000 C 
BRANCH  16  18
ATOM     17  C   UNL     1      10.256  14.428  18.303  0.00  0.00    +0.000 C 
ATOM     18  N   UNL     1       9.068  13.499  18.559  0.00  0.00    +0.000 N 
ATOM     19  C   UNL     1       8.959  13.267  20.059  0.00  0.00    +0.000 C 
ATOM     20  C   UNL     1       7.812  14.174  18.027  0.00  0.00    +0.000 C 
ENDBRANCH  16  18
ENDBRANCH  14  16
ENDBRANCH  13  15
ENDBRANCH  12  13
ENDBRANCH   1  12
TORSDOF 6
ENDMDL
MODEL 7
REMARK VINA RESULT:      -6.2      1.832      2.488
REMARK  Name = 
REMARK  9 active torsions:
REMARK  status: ('A' for Active; 'I' for Inactive)
REMARK    1  A    between atoms: C_1  and  N_2
REMARK    2  A    between atoms: N_2  and  C_3
REMARK    3  A    between atoms: N_2  and  C_4
REMARK    4  A    between atoms: N_2  and  C_5
REMARK    5  A    between atoms: C_5  and  C_6
REMARK    6  A    between atoms: C_7  and  C_8
REMARK    7  A    between atoms: C_8  and  O_9
REMARK    8  A    between atoms: O_9  and  C_10
REMARK    9  A    between atoms: N_12  and  C_13
REMARK                            x       y       z     vdW  Elec       q    Type
REMARK                         _______ _______ _______ _____ _____    ______ ____
ROOT
ATOM      1  C   UNL     1       6.591   5.584  17.601  0.00  0.00    +0.000 C 
ATOM      2  O   UNL     1       6.003   5.438  16.537  0.00  0.00    +0.000 OA
ATOM      3  N   UNL     1       6.047   5.509  18.855  0.00  0.00    +0.000 N 
ATOM      4  H   UNL     1       6.530   6.044  19.562  0.00  0.00    +0.000 HD
ENDROOT
BRANCH   3   5
ATOM      5  C   UNL     1       4.777   4.999  19.130  0.00  0.00    +0.000 A 
ATOM      6  C   UNL     1       3.635   5.810  19.073  0.00  0.00    +0.000 A 
ATOM      7  C   UNL     1       2.376   5.300  19.402  0.00  0.00    +0.000 A 
ATOM      8  C   UNL     1       2.262   3.973  19.790  0.00  0.00    +0.000 A 
ATOM      9 CL   UNL     1       0.723   3.360  20.244  0.00  0.00    +0.000 Cl
ATOM     10  C   UNL     1       3.377   3.149  19.810  0.00  0.00    +0.000 A 
ATOM     11  C   UNL     1       4.639   3.642  19.469  0.00  0.00    +0.000 A 
ENDBRANCH   3   5
BRANCH   1  12
ATOM     12  O   UNL     1       7.884   5.973  17.699  0.00  0.00    +0.000 OA
BRANCH  12  13
ATOM     13  C   UNL     1       8.051   7.096  18.555  0.00  0.00    +0.000 C 
BRANCH  13  15
ATOM     14  C   UNL     1       8.336   9.527  17.936  0.00  0.00    +0.000 C 
ATOM     15  C   UNL     1       7.871   8.297  17.682  0.00  0.00    +0.000 C 
BRANCH  14  16
ATOM     16  C   UNL     1       9.112   9.882  19.168  0.00  0.00    +0.000 C 
BRANCH  16  18
ATOM     17  C   UNL     1       9.234  11.894  20.606  0.00  0.00    +0.000 C 
ATOM     18  N   UNL     1       9.637  11.314  19.248  0.00  0.00    +0.000 N 
ATOM     19  C   UNL     1       9.015  12.176  18.159  0.00  0.00    +0.000 C 
ATOM     20  C   UNL     1      11.156  11.339  19.151  0.00  0.00    +0.000 C 
ENDBRANCH  16  18
ENDBRANCH  14  16
ENDBRANCH  13  15
ENDBRANCH  12  13
ENDBRANCH   1  12
TORSDOF 6
ENDMDL
MODEL 8
REMARK VINA RESULT:      -6.1      1.542      2.105
REMARK  Name = 
REMARK  9 active torsions:
REMARK  status: ('A' for Active; 'I' for Inactive)
REMARK    1  A    between atoms: C_1  and  N_2
REMARK    2  A    between atoms: N_2  and  C_3
REMARK    3  A    between atoms: N_2  and  C_4
REMARK    4  A    between atoms: N_2  and  C_5
REMARK    5  A    between atoms: C_5  and  C_6
REMARK    6  A    between atoms: C_7  and  C_8
REMARK    7  A    between atoms: C_8  and  O_9
REMARK    8  A    between atoms: O_9  and  C_10
REMARK    9  A    between atoms: N_12  and  C_13
REMARK                            x       y       z     vdW  Elec       q    Type
REMARK                         _______ _______ _______ _____ _____    ______ ____
ROOT
ATOM      1  C   UNL     1       6.597   6.251  17.144  0.00  0.00    +0.000 C 
ATOM      2  O   UNL     1       5.923   6.409  16.134  0.00  0.00    +0.000 OA
ATOM      3  N   UNL     1       6.164   5.779  18.352  0.00  0.00    +0.000 N 
ATOM      4  H   UNL     1       6.698   6.095  19.150  0.00  0.00    +0.000 HD
ENDROOT
BRANCH   3   5
ATOM      5  C   UNL     1       4.931   5.157  18.556  0.00  0.00    +0.000 A 
ATOM      6  C   UNL     1       4.816   3.761  18.613  0.00  0.00    +0.000 A 
ATOM      7  C   UNL     1       3.569   3.149  18.765  0.00  0.00    +0.000 A 
ATOM      8  C   UNL     1       2.433   3.940  18.860  0.00  0.00    +0.000 A 
ATOM      9 CL   UNL     1       0.895   3.186  18.995  0.00  0.00    +0.000 Cl
ATOM     10  C   UNL     1       2.537   5.322  18.848  0.00  0.00    +0.000 A 
ATOM     11  C   UNL     1       3.780   5.947  18.712  0.00  0.00    +0.000 A 
ENDBRANCH   3   5
BRANCH   1  12
ATOM     12  O   UNL     1       7.888   6.645  17.256  0.00  0.00    +0.000 OA
BRANCH  12  13
ATOM     13  C   UNL     1       8.077   7.597  18.295  0.00  0.00    +0.000 C 
BRANCH  13  15
ATOM     14  C   UNL     1       8.445  10.087  18.085  0.00  0.00    +0.000 C 
ATOM     15  C   UNL     1       7.917   8.937  17.647  0.00  0.00    +0.000 C 
BRANCH  14  16
ATOM     16  C   UNL     1       9.282  10.196  19.324  0.00  0.00    +0.000 C 
BRANCH  16  18
ATOM     17  C   UNL     1      11.382  11.496  19.152  0.00  0.00    +0.000 C 
ATOM     18  N   UNL     1       9.918  11.559  19.592  0.00  0.00    +0.000 N 
ATOM     19  C   UNL     1       9.880  11.887  21.077  0.00  0.00    +0.000 C 
ATOM     20  C   UNL     1       9.224  12.646  18.784  0.00  0.00    +0.000 C 
ENDBRANCH  16  18
ENDBRANCH  14  16
ENDBRANCH  13  15
ENDBRANCH  12  13
ENDBRANCH   1  12
TORSDOF 6
ENDMDL
MODEL 9
REMARK VINA RESULT:      -6.1      1.346      1.646
REMARK  Name = 
REMARK  9 active torsions:
REMARK  status: ('A' for Active; 'I' for Inactive)
REMARK    1  A    between atoms: C_1  and  N_2
REMARK    2  A    between atoms: N_2  and  C_3
REMARK    3  A    between atoms: N_2  and  C_4
REMARK    4  A    between atoms: N_2  and  C_5
REMARK    5  A    between atoms: C_5  and  C_6
REMARK    6  A    between atoms: C_7  and  C_8
REMARK    7  A    between atoms: C_8  and  O_9
REMARK    8  A    between atoms: O_9  and  C_10
REMARK    9  A    between atoms: N_12  and  C_13
REMARK                            x       y       z     vdW  Elec       q    Type
REMARK                         _______ _______ _______ _____ _____    ______ ____
ROOT
ATOM      1  C   UNL     1       6.316   6.556  17.218  0.00  0.00    +0.000 C 
ATOM      2  O   UNL     1       5.598   7.008  16.335  0.00  0.00    +0.000 OA
ATOM      3  N   UNL     1       5.938   5.722  18.235  0.00  0.00    +0.000 N 
ATOM      4  H   UNL     1       6.502   5.783  19.070  0.00  0.00    +0.000 HD
ENDROOT
BRANCH   3   5
ATOM      5  C   UNL     1       4.717   5.044  18.281  0.00  0.00    +0.000 A 
ATOM      6  C   UNL     1       3.680   5.461  19.127  0.00  0.00    +0.000 A 
ATOM      7  C   UNL     1       2.484   4.744  19.202  0.00  0.00    +0.000 A 
ATOM      8  C   UNL     1       2.326   3.604  18.427  0.00  0.00    +0.000 A 
ATOM      9 CL   UNL     1       0.875   2.694  18.559  0.00  0.00    +0.000 Cl
ATOM     10  C   UNL     1       3.327   3.205  17.555  0.00  0.00    +0.000 A 
ATOM     11  C   UNL     1       4.523   3.922  17.459  0.00  0.00    +0.000 A 
ENDBRANCH   3   5
BRANCH   1  12
ATOM     12  O   UNL     1       7.608   6.920  17.399  0.00  0.00    +0.000 OA
BRANCH  12  13
ATOM     13  C   UNL     1       7.774   8.331  17.440  0.00  0.00    +0.000 C 
BRANCH  13  15
ATOM     14  C   UNL     1       9.158   9.762  18.993  0.00  0.00    +0.000 C 
ATOM     15  C   UNL     1       8.549   8.609  18.690  0.00  0.00    +0.000 C 
BRANCH  14  16
ATOM     16  C   UNL     1       9.156  10.963  18.095  0.00  0.00    +0.000 C 
BRANCH  16  18
ATOM     17  C   UNL     1      11.261  11.572  19.248  0.00  0.00    +0.000 C 
ATOM     18  N   UNL     1      10.031  12.136  18.533  0.00  0.00    +0.000 N 
ATOM     19  C   UNL     1       9.282  13.031  19.508  0.00  0.00    +0.000 C 
ATOM     20  C   UNL     1      10.506  12.934  17.327  0.00  0.00    +0.000 C 
ENDBRANCH  16  18
ENDBRANCH  14  16
ENDBRANCH  13  15
ENDBRANCH  12  13
ENDBRANCH   1  12
TORSDOF 6
ENDMDL
