MODEL 1
REMARK VINA RESULT:      -7.8      0.000      0.000
REMARK  Name = 
REMARK  7 active torsions:
REMARK  status: ('A' for Active; 'I' for Inactive)
REMARK    1  A    between atoms: C_1  and  C_2
REMARK    2  A    between atoms: C_2  and  O_3
REMARK    3  A    between atoms: O_3  and  C_4
REMARK    4  A    between atoms: C_6  and  C_7
REMARK    5  A    between atoms: C_11  and  C_12
REMARK    6  A    between atoms: N_18  and  C_19
REMARK    7  A    between atoms: C_19  and  C_20
REMARK                            x       y       z     vdW  Elec       q    Type
REMARK                         _______ _______ _______ _____ _____    ______ ____
ROOT
ATOM      1  C   UNL     1       6.036   6.021  16.065  0.00  0.00    +0.000 A 
ATOM      2  N   UNL     1       6.643   5.621  14.923  0.00  0.00    +0.000 NA
ATOM      3  C   UNL     1       6.417   4.395  14.433  0.00  0.00    +0.000 A 
ATOM      4  C   UNL     1       7.126   4.018  13.171  0.00  0.00    +0.000 C 
ATOM      5  N   UNL     1       5.595   3.489  14.965  0.00  0.00    +0.000 NA
ATOM      6  C   UNL     1       5.001   3.879  16.107  0.00  0.00    +0.000 A 
ATOM      7  C   UNL     1       4.070   3.158  16.866  0.00  0.00    +0.000 A 
ATOM      8  C   UNL     1       3.705   3.914  17.970  0.00  0.00    +0.000 A 
ATOM      9  N   UNL     1       4.479   5.084  17.912  0.00  0.00    +0.000 N 
ATOM     10  C   UNL     1       5.206   5.109  16.722  0.00  0.00    +0.000 A 
ENDROOT
BRANCH   8  11
ATOM     11  C   UNL     1       2.780   3.490  19.042  0.00  0.00    +0.000 A 
ATOM     12  C   UNL     1       3.303   2.949  20.232  0.00  0.00    +0.000 A 
ATOM     13  C   UNL     1       2.469   2.563  21.284  0.00  0.00    +0.000 A 
ATOM     14  C   UNL     1       1.092   2.727  21.172  0.00  0.00    +0.000 A 
ATOM     15  C   UNL     1       0.553   3.230  19.992  0.00  0.00    +0.000 A 
ATOM     16  C   UNL     1       1.389   3.575  18.923  0.00  0.00    +0.000 A 
ENDBRANCH   8  11
BRANCH   1  17
ATOM     17  O   UNL     1       6.261   7.323  16.495  0.00  0.00    +0.000 OA
BRANCH  17  19
ATOM     18  C   UNL     1       7.817   8.799  17.675  0.00  0.00    +0.000 C 
ATOM     19  C   UNL     1       7.411   7.370  17.364  0.00  0.00    +0.000 C 
ENDBRANCH  17  19
ENDBRANCH   1  17
BRANCH   9  20
ATOM     20  C   UNL     1       4.559   6.110  18.963  0.00  0.00    +0.000 C 
BRANCH  20  21
ATOM     21  C   UNL     1       3.388   7.074  18.994  0.00  0.00    +0.000 A 
ATOM     22  C   UNL     1       2.529   7.155  20.101  0.00  0.00    +0.000 A 
ATOM     23  C   UNL     1       1.458   8.055  20.107  0.00  0.00    +0.000 A 
ATOM     24  C   UNL     1       1.243   8.902  19.024  0.00  0.00    +0.000 A 
ATOM     25  C   UNL     1       2.096   8.846  17.924  0.00  0.00    +0.000 A 
ATOM     26  C   UNL     1       3.166   7.945  17.912  0.00  0.00    +0.000 A 
ENDBRANCH  20  21
ENDBRANCH   9  20
TORSDOF 5
ENDMDL
MODEL 2
REMARK VINA RESULT:      -7.8      1.838      4.969
REMARK  Name = 
REMARK  7 active torsions:
REMARK  status: ('A' for Active; 'I' for Inactive)
REMARK    1  A    between atoms: C_1  and  C_2
REMARK    2  A    between atoms: C_2  and  O_3
REMARK    3  A    between atoms: O_3  and  C_4
REMARK    4  A    between atoms: C_6  and  C_7
REMARK    5  A    between atoms: C_11  and  C_12
REMARK    6  A    between atoms: N_18  and  C_19
REMARK    7  A    between atoms: C_19  and  C_20
REMARK                            x       y       z     vdW  Elec       q    Type
REMARK                         _______ _______ _______ _____ _____    ______ ____
ROOT
ATOM      1  C   UNL     1       4.340   4.170  16.796  0.00  0.00    +0.000 A 
ATOM      2  N   UNL     1       5.491   4.089  16.089  0.00  0.00    +0.000 NA
ATOM      3  C   UNL     1       6.179   5.200  15.790  0.00  0.00    +0.000 A 
ATOM      4  C   UNL     1       7.438   5.035  15.001  0.00  0.00    +0.000 C 
ATOM      5  N   UNL     1       5.845   6.438  16.156  0.00  0.00    +0.000 NA
ATOM      6  C   UNL     1       4.693   6.522  16.847  0.00  0.00    +0.000 A 
ATOM      7  C   UNL     1       4.114   7.678  17.387  0.00  0.00    +0.000 A 
ATOM      8  C   UNL     1       2.930   7.334  18.023  0.00  0.00    +0.000 A 
ATOM      9  N   UNL     1       2.758   5.958  17.806  0.00  0.00    +0.000 N 
ATOM     10  C   UNL     1       3.884   5.438  17.166  0.00  0.00    +0.000 A 
ENDROOT
BRANCH   8  11
ATOM     11  C   UNL     1       1.995   8.273  18.678  0.00  0.00    +0.000 A 
ATOM     12  C   UNL     1       1.340   9.249  17.903  0.00  0.00    +0.000 A 
ATOM     13  C   UNL     1       0.425  10.138  18.474  0.00  0.00    +0.000 A 
ATOM     14  C   UNL     1       0.134  10.055  19.831  0.00  0.00    +0.000 A 
ATOM     15  C   UNL     1       0.794   9.118  20.621  0.00  0.00    +0.000 A 
ATOM     16  C   UNL     1       1.743   8.259  20.054  0.00  0.00    +0.000 A 
ENDBRANCH   8  11
BRANCH   1  17
ATOM     17  O   UNL     1       3.700   2.982  17.129  0.00  0.00    +0.000 OA
BRANCH  17  19
ATOM     18  C   UNL     1       3.684   1.070  18.657  0.00  0.00    +0.000 C 
ATOM     19  C   UNL     1       4.245   2.447  18.352  0.00  0.00    +0.000 C 
ENDBRANCH  17  19
ENDBRANCH   1  17
BRANCH   9  20
ATOM     20  C   UNL     1       1.558   5.180  18.150  0.00  0.00    +0.000 C 
BRANCH  20  21
ATOM     21  C   UNL     1       1.667   4.388  19.439  0.00  0.00    +0.000 A 
ATOM     22  C   UNL     1       2.486   4.812  20.497  0.00  0.00    +0.000 A 
ATOM     23  C   UNL     1       2.567   4.066  21.678  0.00  0.00    +0.000 A 
ATOM     24  C   UNL     1       1.817   2.904  21.831  0.00  0.00    +0.000 A 
ATOM     25  C   UNL     1       0.986   2.478  20.796  0.00  0.00    +0.000 A 
ATOM     26  C   UNL     1       0.905   3.219  19.613  0.00  0.00    +0.000 A 
ENDBRANCH  20  21
ENDBRANCH   9  20
TORSDOF 5
ENDMDL
MODEL 3
REMARK VINA RESULT:      -7.7      1.840      4.894
REMARK  Name = 
REMARK  7 active torsions:
REMARK  status: ('A' for Active; 'I' for Inactive)
REMARK    1  A    between atoms: C_1  and  C_2
REMARK    2  A    between atoms: C_2  and  O_3
REMARK    3  A    between atoms: O_3  and  C_4
REMARK    4  A    between atoms: C_6  and  C_7
REMARK    5  A    between atoms: C_11  and  C_12
REMARK    6  A    between atoms: N_18  and  C_19
REMARK    7  A    between atoms: C_19  and  C_20
REMARK                            x       y       z     vdW  Elec       q    Type
REMARK                         _______ _______ _______ _____ _____    ______ ____
ROOT
ATOM      1  C   UNL     1       4.350   4.166  16.824  0.00  0.00    +0.000 A 
ATOM      2  N   UNL     1       5.512   4.074  16.137  0.00  0.00    +0.000 NA
ATOM      3  C   UNL     1       6.209   5.180  15.841  0.00  0.00    +0.000 A 
ATOM      4  C   UNL     1       7.481   5.005  15.074  0.00  0.00    +0.000 C 
ATOM      5  N   UNL     1       5.874   6.422  16.193  0.00  0.00    +0.000 NA
ATOM      6  C   UNL     1       4.712   6.516  16.864  0.00  0.00    +0.000 A 
ATOM      7  C   UNL     1       4.129   7.678  17.386  0.00  0.00    +0.000 A 
ATOM      8  C   UNL     1       2.933   7.344  18.005  0.00  0.00    +0.000 A 
ATOM      9  N   UNL     1       2.759   5.967  17.795  0.00  0.00    +0.000 N 
ATOM     10  C   UNL     1       3.893   5.438  17.177  0.00  0.00    +0.000 A 
ENDROOT
BRANCH   8  11
ATOM     11  C   UNL     1       1.991   8.292  18.637  0.00  0.00    +0.000 A 
ATOM     12  C   UNL     1       1.750   8.205  20.021  0.00  0.00    +0.000 A 
ATOM     13  C   UNL     1       0.891   9.099  20.667  0.00  0.00    +0.000 A 
ATOM     14  C   UNL     1       0.270  10.109  19.941  0.00  0.00    +0.000 A 
ATOM     15  C   UNL     1       0.471  10.192  18.566  0.00  0.00    +0.000 A 
ATOM     16  C   UNL     1       1.297   9.268  17.916  0.00  0.00    +0.000 A 
ENDBRANCH   8  11
BRANCH   1  17
ATOM     17  O   UNL     1       3.699   2.982  17.155  0.00  0.00    +0.000 OA
BRANCH  17  19
ATOM     18  C   UNL     1       3.667   1.063  18.672  0.00  0.00    +0.000 C 
ATOM     19  C   UNL     1       4.260   2.424  18.360  0.00  0.00    +0.000 C 
ENDBRANCH  17  19
ENDBRANCH   1  17
BRANCH   9  20
ATOM     20  C   UNL     1       1.550   5.197  18.124  0.00  0.00    +0.000 C 
BRANCH  20  21
ATOM     21  C   UNL     1       1.637   4.407  19.416  0.00  0.00    +0.000 A 
ATOM     22  C   UNL     1       0.890   3.236  19.615  0.00  0.00    +0.000 A 
ATOM     23  C   UNL     1       0.990   2.523  20.815  0.00  0.00    +0.000 A 
ATOM     24  C   UNL     1       1.852   2.952  21.821  0.00  0.00    +0.000 A 
ATOM     25  C   UNL     1       2.614   4.104  21.632  0.00  0.00    +0.000 A 
ATOM     26  C   UNL     1       2.513   4.822  20.435  0.00  0.00    +0.000 A 
ENDBRANCH  20  21
ENDBRANCH   9  20
TORSDOF 5
ENDMDL
MODEL 4
REMARK VINA RESULT:      -7.6      0.124      1.337
REMARK  Name = 
REMARK  7 active torsions:
REMARK  status: ('A' for Active; 'I' for Inactive)
REMARK    1  A    between atoms: C_1  and  C_2
REMARK    2  A    between atoms: C_2  and  O_3
REMARK    3  A    between atoms: O_3  and  C_4
REMARK    4  A    between atoms: C_6  and  C_7
REMARK    5  A    between atoms: C_11  and  C_12
REMARK    6  A    between atoms: N_18  and  C_19
REMARK    7  A    between atoms: C_19  and  C_20
REMARK                            x       y       z     vdW  Elec       q    Type
REMARK                         _______ _______ _______ _____ _____    ______ ____
ROOT
ATOM      1  C   UNL     1       6.122   6.018  16.057  0.00  0.00    +0.000 A 
ATOM      2  N   UNL     1       6.737   5.619  14.920  0.00  0.00    +0.000 NA
ATOM      3  C   UNL     1       6.511   4.393  14.426  0.00  0.00    +0.000 A 
ATOM      4  C   UNL     1       7.228   4.017  13.170  0.00  0.00    +0.000 C 
ATOM      5  N   UNL     1       5.684   3.488  14.951  0.00  0.00    +0.000 NA
ATOM      6  C   UNL     1       5.082   3.879  16.090  0.00  0.00    +0.000 A 
ATOM      7  C   UNL     1       4.145   3.158  16.841  0.00  0.00    +0.000 A 
ATOM      8  C   UNL     1       3.773   3.914  17.943  0.00  0.00    +0.000 A 
ATOM      9  N   UNL     1       4.549   5.082  17.893  0.00  0.00    +0.000 N 
ATOM     10  C   UNL     1       5.285   5.108  16.708  0.00  0.00    +0.000 A 
ENDROOT
BRANCH   8  11
ATOM     11  C   UNL     1       2.839   3.490  19.008  0.00  0.00    +0.000 A 
ATOM     12  C   UNL     1       1.455   3.479  18.749  0.00  0.00    +0.000 A 
ATOM     13  C   UNL     1       0.538   3.057  19.715  0.00  0.00    +0.000 A 
ATOM     14  C   UNL     1       0.990   2.621  20.956  0.00  0.00    +0.000 A 
ATOM     15  C   UNL     1       2.352   2.654  21.243  0.00  0.00    +0.000 A 
ATOM     16  C   UNL     1       3.264   3.119  20.287  0.00  0.00    +0.000 A 
ENDBRANCH   8  11
BRANCH   1  17
ATOM     17  O   UNL     1       6.346   7.320  16.491  0.00  0.00    +0.000 OA
BRANCH  17  19
ATOM     18  C   UNL     1       7.869   8.789  17.720  0.00  0.00    +0.000 C 
ATOM     19  C   UNL     1       7.485   7.362  17.374  0.00  0.00    +0.000 C 
ENDBRANCH  17  19
ENDBRANCH   1  17
BRANCH   9  20
ATOM     20  C   UNL     1       4.624   6.107  18.945  0.00  0.00    +0.000 C 
BRANCH  20  21
ATOM     21  C   UNL     1       3.462   7.083  18.959  0.00  0.00    +0.000 A 
ATOM     22  C   UNL     1       3.207   7.940  17.877  0.00  0.00    +0.000 A 
ATOM     23  C   UNL     1       2.127   8.828  17.912  0.00  0.00    +0.000 A 
ATOM     24  C   UNL     1       1.274   8.859  19.012  0.00  0.00    +0.000 A 
ATOM     25  C   UNL     1       1.503   8.002  20.087  0.00  0.00    +0.000 A 
ATOM     26  C   UNL     1       2.584   7.115  20.058  0.00  0.00    +0.000 A 
ENDBRANCH  20  21
ENDBRANCH   9  20
TORSDOF 5
ENDMDL
MODEL 5
REMARK VINA RESULT:      -7.5      1.877      5.029
REMARK  Name = 
REMARK  7 active torsions:
REMARK  status: ('A' for Active; 'I' for Inactive)
REMARK    1  A    between atoms: C_1  and  C_2
REMARK    2  A    between atoms: C_2  and  O_3
REMARK    3  A    between atoms: O_3  and  C_4
REMARK    4  A    between atoms: C_6  and  C_7
REMARK    5  A    between atoms: C_11  and  C_12
REMARK    6  A    between atoms: N_18  and  C_19
REMARK    7  A    between atoms: C_19  and  C_20
REMARK                            x       y       z     vdW  Elec       q    Type
REMARK                         _______ _______ _______ _____ _____    ______ ____
ROOT
ATOM      1  C   UNL     1       5.276   4.883  18.275  0.00  0.00    +0.000 A 
ATOM      2  N   UNL     1       6.102   4.626  17.235  0.00  0.00    +0.000 NA
ATOM      3  C   UNL     1       6.070   5.400  16.141  0.00  0.00    +0.000 A 
ATOM      4  C   UNL     1       7.008   5.054  15.028  0.00  0.00    +0.000 C 
ATOM      5  N   UNL     1       5.288   6.466  15.971  0.00  0.00    +0.000 NA
ATOM      6  C   UNL     1       4.455   6.715  16.998  0.00  0.00    +0.000 A 
ATOM      7  C   UNL     1       3.550   7.778  17.115  0.00  0.00    +0.000 A 
ATOM      8  C   UNL     1       2.882   7.670  18.326  0.00  0.00    +0.000 A 
ATOM      9  N   UNL     1       3.344   6.486  18.921  0.00  0.00    +0.000 N 
ATOM     10  C   UNL     1       4.377   5.946  18.154  0.00  0.00    +0.000 A 
ENDROOT
BRANCH   8  11
ATOM     11  C   UNL     1       1.811   8.569  18.806  0.00  0.00    +0.000 A 
ATOM     12  C   UNL     1       1.116   9.371  17.882  0.00  0.00    +0.000 A 
ATOM     13  C   UNL     1       0.076  10.213  18.286  0.00  0.00    +0.000 A 
ATOM     14  C   UNL     1      -0.301  10.254  19.624  0.00  0.00    +0.000 A 
ATOM     15  C   UNL     1       0.395   9.493  20.559  0.00  0.00    +0.000 A 
ATOM     16  C   UNL     1       1.464   8.684  20.156  0.00  0.00    +0.000 A 
ENDBRANCH   8  11
BRANCH   1  17
ATOM     17  O   UNL     1       5.393   4.085  19.407  0.00  0.00    +0.000 OA
BRANCH  17  19
ATOM     18  C   UNL     1       4.718   1.975  20.447  0.00  0.00    +0.000 C 
ATOM     19  C   UNL     1       4.791   2.795  19.173  0.00  0.00    +0.000 C 
ENDBRANCH  17  19
ENDBRANCH   1  17
BRANCH   9  20
ATOM     20  C   UNL     1       2.796   5.869  20.138  0.00  0.00    +0.000 C 
BRANCH  20  21
ATOM     21  C   UNL     1       2.018   4.588  19.901  0.00  0.00    +0.000 A 
ATOM     22  C   UNL     1       1.611   4.201  18.615  0.00  0.00    +0.000 A 
ATOM     23  C   UNL     1       0.898   3.013  18.422  0.00  0.00    +0.000 A 
ATOM     24  C   UNL     1       0.602   2.184  19.500  0.00  0.00    +0.000 A 
ATOM     25  C   UNL     1       1.014   2.546  20.781  0.00  0.00    +0.000 A 
ATOM     26  C   UNL     1       1.724   3.734  20.980  0.00  0.00    +0.000 A 
ENDBRANCH  20  21
ENDBRANCH   9  20
TORSDOF 5
ENDMDL
MODEL 6
REMARK VINA RESULT:      -7.3      1.871      4.838
REMARK  Name = 
REMARK  7 active torsions:
REMARK  status: ('A' for Active; 'I' for Inactive)
REMARK    1  A    between atoms: C_1  and  C_2
REMARK    2  A    between atoms: C_2  and  O_3
REMARK    3  A    between atoms: O_3  and  C_4
REMARK    4  A    between atoms: C_6  and  C_7
REMARK    5  A    between atoms: C_11  and  C_12
REMARK    6  A    between atoms: N_18  and  C_19
REMARK    7  A    between atoms: C_19  and  C_20
REMARK                            x       y       z     vdW  Elec       q    Type
REMARK                         _______ _______ _______ _____ _____    ______ ____
ROOT
ATOM      1  C   UNL     1       5.339   4.848  18.224  0.00  0.00    +0.000 A 
ATOM      2  N   UNL     1       6.162   4.579  17.184  0.00  0.00    +0.000 NA
ATOM      3  C   UNL     1       6.127   5.342  16.083  0.00  0.00    +0.000 A 
ATOM      4  C   UNL     1       7.060   4.984  14.970  0.00  0.00    +0.000 C 
ATOM      5  N   UNL     1       5.345   6.407  15.905  0.00  0.00    +0.000 NA
ATOM      6  C   UNL     1       4.516   6.667  16.932  0.00  0.00    +0.000 A 
ATOM      7  C   UNL     1       3.612   7.732  17.041  0.00  0.00    +0.000 A 
ATOM      8  C   UNL     1       2.948   7.637  18.255  0.00  0.00    +0.000 A 
ATOM      9  N   UNL     1       3.411   6.458  18.861  0.00  0.00    +0.000 N 
ATOM     10  C   UNL     1       4.441   5.910  18.096  0.00  0.00    +0.000 A 
ENDROOT
BRANCH   8  11
ATOM     11  C   UNL     1       1.879   8.542  18.730  0.00  0.00    +0.000 A 
ATOM     12  C   UNL     1       1.560   8.573  20.101  0.00  0.00    +0.000 A 
ATOM     13  C   UNL     1       0.578   9.434  20.600  0.00  0.00    +0.000 A 
ATOM     14  C   UNL     1      -0.091  10.295  19.736  0.00  0.00    +0.000 A 
ATOM     15  C   UNL     1       0.188  10.256  18.373  0.00  0.00    +0.000 A 
ATOM     16  C   UNL     1       1.140   9.361  17.872  0.00  0.00    +0.000 A 
ENDBRANCH   8  11
BRANCH   1  17
ATOM     17  O   UNL     1       5.460   4.061  19.364  0.00  0.00    +0.000 OA
BRANCH  17  19
ATOM     18  C   UNL     1       4.740   1.988  20.447  0.00  0.00    +0.000 C 
ATOM     19  C   UNL     1       4.824   2.783  19.158  0.00  0.00    +0.000 C 
ENDBRANCH  17  19
ENDBRANCH   1  17
BRANCH   9  20
ATOM     20  C   UNL     1       2.867   5.854  20.086  0.00  0.00    +0.000 C 
BRANCH  20  21
ATOM     21  C   UNL     1       2.073   4.581  19.863  0.00  0.00    +0.000 A 
ATOM     22  C   UNL     1       1.698   3.750  20.930  0.00  0.00    +0.000 A 
ATOM     23  C   UNL     1       0.963   2.583  20.699  0.00  0.00    +0.000 A 
ATOM     24  C   UNL     1       0.570   2.240  19.408  0.00  0.00    +0.000 A 
ATOM     25  C   UNL     1       0.919   3.064  18.340  0.00  0.00    +0.000 A 
ATOM     26  C   UNL     1       1.658   4.230  18.565  0.00  0.00    +0.000 A 
ENDBRANCH  20  21
ENDBRANCH   9  20
TORSDOF 5
ENDMDL
MODEL 7
REMARK VINA RESULT:      -7.3      3.185      6.698
REMARK  Name = 
REMARK  7 active torsions:
REMARK  status: ('A' for Active; 'I' for Inactive)
REMARK    1  A    between atoms: C_1  and  C_2
REMARK    2  A    between atoms: C_2  and  O_3
REMARK    3  A    between atoms: O_3  and  C_4
REMARK    4  A    between atoms: C_6  and  C_7
REMARK    5  A    between atoms: C_11  and  C_12
REMARK    6  A    between atoms: N_18  and  C_19
REMARK    7  A    between atoms: C_19  and  C_20
REMARK                            x       y       z     vdW  Elec       q    Type
REMARK                         _______ _______ _______ _____ _____    ______ ____
ROOT
ATOM      1  C   UNL     1       0.461   9.191  20.514  0.00  0.00    +0.000 A 
ATOM      2  N   UNL     1       0.055  10.420  20.121  0.00  0.00    +0.000 NA
ATOM      3  C   UNL     1       0.506  10.944  18.973  0.00  0.00    +0.000 A 
ATOM      4  C   UNL     1       0.021  12.309  18.604  0.00  0.00    +0.000 C 
ATOM      5  N   UNL     1       1.336  10.340  18.121  0.00  0.00    +0.000 NA
ATOM      6  C   UNL     1       1.752   9.123  18.517  0.00  0.00    +0.000 A 
ATOM      7  C   UNL     1       2.592   8.248  17.818  0.00  0.00    +0.000 A 
ATOM      8  C   UNL     1       2.776   7.099  18.573  0.00  0.00    +0.000 A 
ATOM      9  N   UNL     1       2.088   7.312  19.778  0.00  0.00    +0.000 N 
ATOM     10  C   UNL     1       1.381   8.513  19.711  0.00  0.00    +0.000 A 
ENDROOT
BRANCH   8  11
ATOM     11  C   UNL     1       3.634   5.951  18.210  0.00  0.00    +0.000 A 
ATOM     12  C   UNL     1       3.093   4.898  17.448  0.00  0.00    +0.000 A 
ATOM     13  C   UNL     1       3.874   3.808  17.055  0.00  0.00    +0.000 A 
ATOM     14  C   UNL     1       5.220   3.760  17.403  0.00  0.00    +0.000 A 
ATOM     15  C   UNL     1       5.766   4.776  18.182  0.00  0.00    +0.000 A 
ATOM     16  C   UNL     1       4.969   5.844  18.611  0.00  0.00    +0.000 A 
ENDBRANCH   8  11
BRANCH   1  17
ATOM     17  O   UNL     1      -0.084   8.673  21.684  0.00  0.00    +0.000 OA
BRANCH  17  19
ATOM     18  C   UNL     1      -0.958  10.344  23.243  0.00  0.00    +0.000 C 
ATOM     19  C   UNL     1       0.238   9.522  22.804  0.00  0.00    +0.000 C 
ENDBRANCH  17  19
ENDBRANCH   1  17
BRANCH   9  20
ATOM     20  C   UNL     1       2.138   6.437  20.960  0.00  0.00    +0.000 C 
BRANCH  20  21
ATOM     21  C   UNL     1       1.986   4.959  20.656  0.00  0.00    +0.000 A 
ATOM     22  C   UNL     1       2.981   4.030  20.999  0.00  0.00    +0.000 A 
ATOM     23  C   UNL     1       2.816   2.671  20.712  0.00  0.00    +0.000 A 
ATOM     24  C   UNL     1       1.650   2.215  20.102  0.00  0.00    +0.000 A 
ATOM     25  C   UNL     1       0.646   3.122  19.770  0.00  0.00    +0.000 A 
ATOM     26  C   UNL     1       0.808   4.483  20.052  0.00  0.00    +0.000 A 
ENDBRANCH  20  21
ENDBRANCH   9  20
TORSDOF 5
ENDMDL
MODEL 8
REMARK VINA RESULT:      -7.3      1.572      6.045
REMARK  Name = 
REMARK  7 active torsions:
REMARK  status: ('A' for Active; 'I' for Inactive)
REMARK    1  A    between atoms: C_1  and  C_2
REMARK    2  A    between atoms: C_2  and  O_3
REMARK    3  A    between atoms: O_3  and  C_4
REMARK    4  A    between atoms: C_6  and  C_7
REMARK    5  A    between atoms: C_11  and  C_12
REMARK    6  A    between atoms: N_18  and  C_19
REMARK    7  A    between atoms: C_19  and  C_20
REMARK                            x       y       z     vdW  Elec       q    Type
REMARK                         _______ _______ _______ _____ _____    ______ ____
ROOT
ATOM      1  C   UNL     1       3.153   5.345  18.911  0.00  0.00    +0.000 A 
ATOM      2  N   UNL     1       2.294   4.575  19.618  0.00  0.00    +0.000 NA
ATOM      3  C   UNL     1       2.013   3.329  19.212  0.00  0.00    +0.000 A 
ATOM      4  C   UNL     1       1.051   2.538  20.039  0.00  0.00    +0.000 C 
ATOM      5  N   UNL     1       2.537   2.728  18.143  0.00  0.00    +0.000 NA
ATOM      6  C   UNL     1       3.381   3.497  17.430  0.00  0.00    +0.000 A 
ATOM      7  C   UNL     1       4.101   3.127  16.287  0.00  0.00    +0.000 A 
ATOM      8  C   UNL     1       4.853   4.210  15.857  0.00  0.00    +0.000 A 
ATOM      9  N   UNL     1       4.531   5.272  16.717  0.00  0.00    +0.000 N 
ATOM     10  C   UNL     1       3.700   4.814  17.740  0.00  0.00    +0.000 A 
ENDROOT
BRANCH   8  11
ATOM     11  C   UNL     1       5.714   4.245  14.656  0.00  0.00    +0.000 A 
ATOM     12  C   UNL     1       5.293   3.584  13.486  0.00  0.00    +0.000 A 
ATOM     13  C   UNL     1       6.059   3.616  12.317  0.00  0.00    +0.000 A 
ATOM     14  C   UNL     1       7.255   4.325  12.292  0.00  0.00    +0.000 A 
ATOM     15  C   UNL     1       7.704   4.958  13.448  0.00  0.00    +0.000 A 
ATOM     16  C   UNL     1       6.955   4.888  14.628  0.00  0.00    +0.000 A 
ENDBRANCH   8  11
BRANCH   1  17
ATOM     17  O   UNL     1       3.453   6.607  19.410  0.00  0.00    +0.000 OA
BRANCH  17  19
ATOM     18  C   UNL     1       2.223   8.339  18.195  0.00  0.00    +0.000 C 
ATOM     19  C   UNL     1       2.272   7.436  19.413  0.00  0.00    +0.000 C 
ENDBRANCH  17  19
ENDBRANCH   1  17
BRANCH   9  20
ATOM     20  C   UNL     1       4.955   6.670  16.547  0.00  0.00    +0.000 C 
BRANCH  20  21
ATOM     21  C   UNL     1       6.223   7.040  17.294  0.00  0.00    +0.000 A 
ATOM     22  C   UNL     1       6.800   8.314  17.178  0.00  0.00    +0.000 A 
ATOM     23  C   UNL     1       7.968   8.632  17.881  0.00  0.00    +0.000 A 
ATOM     24  C   UNL     1       8.561   7.697  18.724  0.00  0.00    +0.000 A 
ATOM     25  C   UNL     1       7.990   6.433  18.863  0.00  0.00    +0.000 A 
ATOM     26  C   UNL     1       6.825   6.109  18.160  0.00  0.00    +0.000 A 
ENDBRANCH  20  21
ENDBRANCH   9  20
TORSDOF 5
ENDMDL
MODEL 9
REMARK VINA RESULT:      -7.3      1.605      4.136
REMARK  Name = 
REMARK  7 active torsions:
REMARK  status: ('A' for Active; 'I' for Inactive)
REMARK    1  A    between atoms: C_1  and  C_2
REMARK    2  A    between atoms: C_2  and  O_3
REMARK    3  A    between atoms: O_3  and  C_4
REMARK    4  A    between atoms: C_6  and  C_7
REMARK    5  A    between atoms: C_11  and  C_12
REMARK    6  A    between atoms: N_18  and  C_19
REMARK    7  A    between atoms: C_19  and  C_20
REMARK                            x       y       z     vdW  Elec       q    Type
REMARK                         _______ _______ _______ _____ _____    ______ ____
ROOT
ATOM      1  C   UNL     1       6.254   4.764  17.222  0.00  0.00    +0.000 A 
ATOM      2  N   UNL     1       6.855   4.546  16.029  0.00  0.00    +0.000 NA
ATOM      3  C   UNL     1       6.476   5.240  14.946  0.00  0.00    +0.000 A 
ATOM      4  C   UNL     1       7.180   4.943  13.661  0.00  0.00    +0.000 C 
ATOM      5  N   UNL     1       5.539   6.189  14.925  0.00  0.00    +0.000 NA
ATOM      6  C   UNL     1       4.931   6.397  16.107  0.00  0.00    +0.000 A 
ATOM      7  C   UNL     1       3.940   7.345  16.392  0.00  0.00    +0.000 A 
ATOM      8  C   UNL     1       3.579   7.233  17.727  0.00  0.00    +0.000 A 
ATOM      9  N   UNL     1       4.317   6.154  18.239  0.00  0.00    +0.000 N 
ATOM     10  C   UNL     1       5.216   5.698  17.274  0.00  0.00    +0.000 A 
ENDROOT
BRANCH   8  11
ATOM     11  C   UNL     1       2.531   8.021  18.410  0.00  0.00    +0.000 A 
ATOM     12  C   UNL     1       1.855   9.032  17.701  0.00  0.00    +0.000 A 
ATOM     13  C   UNL     1       0.837   9.781  18.296  0.00  0.00    +0.000 A 
ATOM     14  C   UNL     1       0.463   9.520  19.610  0.00  0.00    +0.000 A 
ATOM     15  C   UNL     1       1.141   8.547  20.338  0.00  0.00    +0.000 A 
ATOM     16  C   UNL     1       2.189   7.829  19.752  0.00  0.00    +0.000 A 
ENDBRANCH   8  11
BRANCH   1  17
ATOM     17  O   UNL     1       6.727   4.059  18.323  0.00  0.00    +0.000 OA
BRANCH  17  19
ATOM     18  C   UNL     1       7.921   5.889  19.426  0.00  0.00    +0.000 C 
ATOM     19  C   UNL     1       8.024   4.554  18.712  0.00  0.00    +0.000 C 
ENDBRANCH  17  19
ENDBRANCH   1  17
BRANCH   9  20
ATOM     20  C   UNL     1       4.142   5.552  19.570  0.00  0.00    +0.000 C 
BRANCH  20  21
ATOM     21  C   UNL     1       2.993   4.567  19.670  0.00  0.00    +0.000 A 
ATOM     22  C   UNL     1       2.310   4.353  20.878  0.00  0.00    +0.000 A 
ATOM     23  C   UNL     1       1.251   3.441  20.944  0.00  0.00    +0.000 A 
ATOM     24  C   UNL     1       0.842   2.751  19.807  0.00  0.00    +0.000 A 
ATOM     25  C   UNL     1       1.499   2.965  18.597  0.00  0.00    +0.000 A 
ATOM     26  C   UNL     1       2.561   3.872  18.526  0.00  0.00    +0.000 A 
ENDBRANCH  20  21
ENDBRANCH   9  20
TORSDOF 5
ENDMDL
