MODEL 1
REMARK VINA RESULT:      -8.4      0.000      0.000
REMARK  Name = 
REMARK  2 active torsions:
REMARK  status: ('A' for Active; 'I' for Inactive)
REMARK    1  A    between atoms: C_12  and  C_13
REMARK    2  A    between atoms: C_14  and  C_15
REMARK                            x       y       z     vdW  Elec       q    Type
REMARK                         _______ _______ _______ _____ _____    ______ ____
ROOT
ATOM      1  C   UNL     1       6.072   4.359  16.840  0.00  0.00    +0.000 A 
ATOM      2  C   UNL     1       6.622   4.899  15.674  0.00  0.00    +0.000 A 
ATOM      3  N   UNL     1       7.501   5.935  15.971  0.00  0.00    +0.000 NA
ATOM      4  C   UNL     1       7.420   6.053  17.266  0.00  0.00    +0.000 A 
ATOM      5  N   UNL     1       6.574   5.153  17.824  0.00  0.00    +0.000 N 
ATOM      6  C   UNL     1       6.415   5.179  19.259  0.00  0.00    +0.000 C 
ATOM      7  C   UNL     1       7.523   6.074  19.818  0.00  0.00    +0.000 C 
ATOM      8  S   UNL     1       8.182   7.067  18.419  0.00  0.00    +0.000 S 
ENDROOT
BRANCH   1  20
ATOM      9  O   UNL     1       3.607   1.106  18.137  0.00  0.00    +0.000 OA
ATOM     10  C   UNL     1       3.391   2.266  18.424  0.00  0.00    +0.000 C 
ATOM     11  N   UNL     1       2.527   2.749  19.391  0.00  0.00    +0.000 N 
ATOM     12  C   UNL     1       2.521   4.143  19.419  0.00  0.00    +0.000 A 
ATOM     13  C   UNL     1       1.759   4.923  20.271  0.00  0.00    +0.000 A 
ATOM     14  C   UNL     1       1.839   6.306  20.121  0.00  0.00    +0.000 A 
ATOM     15  C   UNL     1       2.594   6.858  19.079  0.00  0.00    +0.000 A 
ATOM     16  C   UNL     1       3.315   6.040  18.196  0.00  0.00    +0.000 A 
ATOM     17 CL   UNL     1       3.936   6.805  16.789  0.00  0.00    +0.000 Cl
ATOM     18  C   UNL     1       3.363   4.674  18.430  0.00  0.00    +0.000 A 
ATOM     19  C   UNL     1       4.045   3.502  17.854  0.00  0.00    +0.000 C 
ATOM     20  C   UNL     1       5.180   3.317  17.163  0.00  0.00    +0.000 C 
ATOM     21  H   UNL     1       1.966   2.143  19.973  0.00  0.00    +0.000 HD
ENDBRANCH   1  20
BRANCH   2  22
ATOM     22  C   UNL     1       6.328   4.497  14.304  0.00  0.00    +0.000 A 
ATOM     23  C   UNL     1       7.308   4.551  13.306  0.00  0.00    +0.000 A 
ATOM     24  C   UNL     1       7.036   4.097  12.012  0.00  0.00    +0.000 A 
ATOM     25  C   UNL     1       5.782   3.574  11.707  0.00  0.00    +0.000 A 
ATOM     26  C   UNL     1       4.795   3.516  12.691  0.00  0.00    +0.000 A 
ATOM     27  C   UNL     1       5.066   3.973  13.984  0.00  0.00    +0.000 A 
ENDBRANCH   2  22
TORSDOF 2
ENDMDL
MODEL 2
REMARK VINA RESULT:      -8.2      6.975      9.762
REMARK  Name = 
REMARK  2 active torsions:
REMARK  status: ('A' for Active; 'I' for Inactive)
REMARK    1  A    between atoms: C_12  and  C_13
REMARK    2  A    between atoms: C_14  and  C_15
REMARK                            x       y       z     vdW  Elec       q    Type
REMARK                         _______ _______ _______ _____ _____    ______ ____
ROOT
ATOM      1  C   UNL     1      -0.032  12.759  20.151  0.00  0.00    +0.000 A 
ATOM      2  C   UNL     1      -0.840  12.814  19.013  0.00  0.00    +0.000 A 
ATOM      3  N   UNL     1      -0.618  13.988  18.300  0.00  0.00    +0.000 NA
ATOM      4  C   UNL     1       0.242  14.639  19.031  0.00  0.00    +0.000 A 
ATOM      5  N   UNL     1       0.606  13.960  20.145  0.00  0.00    +0.000 N 
ATOM      6  C   UNL     1       1.568  14.579  21.026  0.00  0.00    +0.000 C 
ATOM      7  C   UNL     1       2.165  15.771  20.273  0.00  0.00    +0.000 C 
ATOM      8  S   UNL     1       1.044  16.145  18.865  0.00  0.00    +0.000 S 
ENDROOT
BRANCH   1  20
ATOM      9  O   UNL     1       0.279   9.866  23.293  0.00  0.00    +0.000 OA
ATOM     10  C   UNL     1       0.640   9.657  22.153  0.00  0.00    +0.000 C 
ATOM     11  N   UNL     1       0.956   8.439  21.578  0.00  0.00    +0.000 N 
ATOM     12  C   UNL     1       1.357   8.591  20.251  0.00  0.00    +0.000 A 
ATOM     13  C   UNL     1       1.741   7.562  19.408  0.00  0.00    +0.000 A 
ATOM     14  C   UNL     1       2.163   7.905  18.125  0.00  0.00    +0.000 A 
ATOM     15  C   UNL     1       2.280   9.252  17.760  0.00  0.00    +0.000 A 
ATOM     16  C   UNL     1       1.934  10.277  18.654  0.00  0.00    +0.000 A 
ATOM     17 CL   UNL     1       2.413  11.865  18.209  0.00  0.00    +0.000 Cl
ATOM     18  C   UNL     1       1.369   9.943  19.876  0.00  0.00    +0.000 A 
ATOM     19  C   UNL     1       0.788  10.653  21.027  0.00  0.00    +0.000 C 
ATOM     20  C   UNL     1       0.197  11.846  21.200  0.00  0.00    +0.000 C 
ATOM     21  H   UNL     1       0.915   7.568  22.087  0.00  0.00    +0.000 HD
ENDBRANCH   1  20
BRANCH   2  22
ATOM     22  C   UNL     1      -1.827  11.825  18.594  0.00  0.00    +0.000 A 
ATOM     23  C   UNL     1      -3.187  11.996  18.872  0.00  0.00    +0.000 A 
ATOM     24  C   UNL     1      -4.132  11.078  18.405  0.00  0.00    +0.000 A 
ATOM     25  C   UNL     1      -3.725   9.984  17.645  0.00  0.00    +0.000 A 
ATOM     26  C   UNL     1      -2.371   9.800  17.362  0.00  0.00    +0.000 A 
ATOM     27  C   UNL     1      -1.426  10.717  17.833  0.00  0.00    +0.000 A 
ENDBRANCH   2  22
TORSDOF 2
ENDMDL
MODEL 3
REMARK VINA RESULT:      -8.0      1.859      4.280
REMARK  Name = 
REMARK  2 active torsions:
REMARK  status: ('A' for Active; 'I' for Inactive)
REMARK    1  A    between atoms: C_12  and  C_13
REMARK    2  A    between atoms: C_14  and  C_15
REMARK                            x       y       z     vdW  Elec       q    Type
REMARK                         _______ _______ _______ _____ _____    ______ ____
ROOT
ATOM      1  C   UNL     1       6.090   4.115  15.422  0.00  0.00    +0.000 A 
ATOM      2  C   UNL     1       7.051   5.081  15.730  0.00  0.00    +0.000 A 
ATOM      3  N   UNL     1       7.699   5.524  14.582  0.00  0.00    +0.000 NA
ATOM      4  C   UNL     1       7.187   4.793  13.632  0.00  0.00    +0.000 A 
ATOM      5  N   UNL     1       6.243   3.932  14.082  0.00  0.00    +0.000 N 
ATOM      6  C   UNL     1       5.594   3.079  13.115  0.00  0.00    +0.000 C 
ATOM      7  C   UNL     1       5.963   3.610  11.728  0.00  0.00    +0.000 C 
ATOM      8  S   UNL     1       7.417   4.716  11.935  0.00  0.00    +0.000 S 
ENDROOT
BRANCH   1  20
ATOM      9  O   UNL     1       3.500   1.723  17.852  0.00  0.00    +0.000 OA
ATOM     10  C   UNL     1       3.538   2.935  17.907  0.00  0.00    +0.000 C 
ATOM     11  N   UNL     1       3.000   3.753  18.885  0.00  0.00    +0.000 N 
ATOM     12  C   UNL     1       3.219   5.100  18.600  0.00  0.00    +0.000 A 
ATOM     13  C   UNL     1       2.800   6.162  19.382  0.00  0.00    +0.000 A 
ATOM     14  C   UNL     1       3.061   7.449  18.914  0.00  0.00    +0.000 A 
ATOM     15  C   UNL     1       3.639   7.633  17.652  0.00  0.00    +0.000 A 
ATOM     16  C   UNL     1       4.007   6.537  16.857  0.00  0.00    +0.000 A 
ATOM     17 CL   UNL     1       4.408   6.887  15.224  0.00  0.00    +0.000 Cl
ATOM     18  C   UNL     1       3.891   5.257  17.378  0.00  0.00    +0.000 A 
ATOM     19  C   UNL     1       4.233   3.887  16.963  0.00  0.00    +0.000 C 
ATOM     20  C   UNL     1       5.141   3.352  16.132  0.00  0.00    +0.000 C 
ATOM     21  H   UNL     1       2.495   3.392  19.682  0.00  0.00    +0.000 HD
ENDBRANCH   1  20
BRANCH   2  22
ATOM     22  C   UNL     1       7.400   5.572  17.058  0.00  0.00    +0.000 A 
ATOM     23  C   UNL     1       7.631   4.690  18.119  0.00  0.00    +0.000 A 
ATOM     24  C   UNL     1       8.033   5.168  19.370  0.00  0.00    +0.000 A 
ATOM     25  C   UNL     1       8.219   6.534  19.568  0.00  0.00    +0.000 A 
ATOM     26  C   UNL     1       7.990   7.425  18.518  0.00  0.00    +0.000 A 
ATOM     27  C   UNL     1       7.584   6.947  17.269  0.00  0.00    +0.000 A 
ENDBRANCH   2  22
TORSDOF 2
ENDMDL
MODEL 4
REMARK VINA RESULT:      -7.7      8.358     11.452
REMARK  Name = 
REMARK  2 active torsions:
REMARK  status: ('A' for Active; 'I' for Inactive)
REMARK    1  A    between atoms: C_12  and  C_13
REMARK    2  A    between atoms: C_14  and  C_15
REMARK                            x       y       z     vdW  Elec       q    Type
REMARK                         _______ _______ _______ _____ _____    ______ ____
ROOT
ATOM      1  C   UNL     1      -2.215  13.138  20.880  0.00  0.00    +0.000 A 
ATOM      2  C   UNL     1      -1.055  13.760  21.351  0.00  0.00    +0.000 A 
ATOM      3  N   UNL     1      -1.195  14.134  22.683  0.00  0.00    +0.000 NA
ATOM      4  C   UNL     1      -2.423  13.808  22.972  0.00  0.00    +0.000 A 
ATOM      5  N   UNL     1      -3.073  13.231  21.932  0.00  0.00    +0.000 N 
ATOM      6  C   UNL     1      -4.439  12.813  22.141  0.00  0.00    +0.000 C 
ATOM      7  C   UNL     1      -4.704  12.877  23.646  0.00  0.00    +0.000 C 
ATOM      8  S   UNL     1      -3.379  13.910  24.392  0.00  0.00    +0.000 S 
ENDROOT
BRANCH   1  20
ATOM      9  O   UNL     1      -3.320  11.642  17.023  0.00  0.00    +0.000 OA
ATOM     10  C   UNL     1      -2.369  11.228  17.654  0.00  0.00    +0.000 C 
ATOM     11  N   UNL     1      -1.334  10.433  17.196  0.00  0.00    +0.000 N 
ATOM     12  C   UNL     1      -0.431  10.133  18.215  0.00  0.00    +0.000 A 
ATOM     13  C   UNL     1       0.705   9.356  18.076  0.00  0.00    +0.000 A 
ATOM     14  C   UNL     1       1.466   9.117  19.219  0.00  0.00    +0.000 A 
ATOM     15  C   UNL     1       1.024   9.574  20.466  0.00  0.00    +0.000 A 
ATOM     16  C   UNL     1      -0.162  10.316  20.586  0.00  0.00    +0.000 A 
ATOM     17 CL   UNL     1      -0.754  10.545  22.182  0.00  0.00    +0.000 Cl
ATOM     18  C   UNL     1      -0.843  10.688  19.437  0.00  0.00    +0.000 A 
ATOM     19  C   UNL     1      -2.015  11.512  19.095  0.00  0.00    +0.000 C 
ATOM     20  C   UNL     1      -2.642  12.547  19.675  0.00  0.00    +0.000 C 
ATOM     21  H   UNL     1      -1.278  10.105  16.242  0.00  0.00    +0.000 HD
ENDBRANCH   1  20
BRANCH   2  22
ATOM     22  C   UNL     1       0.155  14.040  20.588  0.00  0.00    +0.000 A 
ATOM     23  C   UNL     1       1.356  13.376  20.864  0.00  0.00    +0.000 A 
ATOM     24  C   UNL     1       2.492  13.600  20.081  0.00  0.00    +0.000 A 
ATOM     25  C   UNL     1       2.435  14.483  19.006  0.00  0.00    +0.000 A 
ATOM     26  C   UNL     1       1.244  15.153  18.720  0.00  0.00    +0.000 A 
ATOM     27  C   UNL     1       0.109  14.932  19.506  0.00  0.00    +0.000 A 
ENDBRANCH   2  22
TORSDOF 2
ENDMDL
MODEL 5
REMARK VINA RESULT:      -7.7      9.016     11.692
REMARK  Name = 
REMARK  2 active torsions:
REMARK  status: ('A' for Active; 'I' for Inactive)
REMARK    1  A    between atoms: C_12  and  C_13
REMARK    2  A    between atoms: C_14  and  C_15
REMARK                            x       y       z     vdW  Elec       q    Type
REMARK                         _______ _______ _______ _____ _____    ______ ____
ROOT
ATOM      1  C   UNL     1      -0.453  13.127  20.032  0.00  0.00    +0.000 A 
ATOM      2  C   UNL     1       0.467  12.395  20.786  0.00  0.00    +0.000 A 
ATOM      3  N   UNL     1       1.683  13.063  20.878  0.00  0.00    +0.000 NA
ATOM      4  C   UNL     1       1.512  14.124  20.141  0.00  0.00    +0.000 A 
ATOM      5  N   UNL     1       0.270  14.198  19.604  0.00  0.00    +0.000 N 
ATOM      6  C   UNL     1      -0.040  15.342  18.780  0.00  0.00    +0.000 C 
ATOM      7  C   UNL     1       1.085  16.359  18.980  0.00  0.00    +0.000 C 
ATOM      8  S   UNL     1       2.501  15.466  19.740  0.00  0.00    +0.000 S 
ENDROOT
BRANCH   1  20
ATOM      9  O   UNL     1      -4.483  12.284  18.854  0.00  0.00    +0.000 OA
ATOM     10  C   UNL     1      -4.165  12.579  19.988  0.00  0.00    +0.000 C 
ATOM     11  N   UNL     1      -4.924  12.453  21.137  0.00  0.00    +0.000 N 
ATOM     12  C   UNL     1      -4.237  12.920  22.257  0.00  0.00    +0.000 A 
ATOM     13  C   UNL     1      -4.728  12.933  23.551  0.00  0.00    +0.000 A 
ATOM     14  C   UNL     1      -3.920  13.488  24.541  0.00  0.00    +0.000 A 
ATOM     15  C   UNL     1      -2.704  14.092  24.198  0.00  0.00    +0.000 A 
ATOM     16  C   UNL     1      -2.254  14.112  22.869  0.00  0.00    +0.000 A 
ATOM     17 CL   UNL     1      -0.922  15.143  22.535  0.00  0.00    +0.000 Cl
ATOM     18  C   UNL     1      -2.978  13.429  21.903  0.00  0.00    +0.000 A 
ATOM     19  C   UNL     1      -2.836  13.109  20.473  0.00  0.00    +0.000 C 
ATOM     20  C   UNL     1      -1.797  12.982  19.633  0.00  0.00    +0.000 C 
ATOM     21  H   UNL     1      -5.865  12.086  21.132  0.00  0.00    +0.000 HD
ENDBRANCH   1  20
BRANCH   2  22
ATOM     22  C   UNL     1       0.252  11.086  21.392  0.00  0.00    +0.000 A 
ATOM     23  C   UNL     1      -0.449  10.950  22.596  0.00  0.00    +0.000 A 
ATOM     24  C   UNL     1      -0.710   9.686  23.131  0.00  0.00    +0.000 A 
ATOM     25  C   UNL     1      -0.282   8.543  22.461  0.00  0.00    +0.000 A 
ATOM     26  C   UNL     1       0.419   8.663  21.260  0.00  0.00    +0.000 A 
ATOM     27  C   UNL     1       0.684   9.928  20.727  0.00  0.00    +0.000 A 
ENDBRANCH   2  22
TORSDOF 2
ENDMDL
MODEL 6
REMARK VINA RESULT:      -7.6      9.530     11.550
REMARK  Name = 
REMARK  2 active torsions:
REMARK  status: ('A' for Active; 'I' for Inactive)
REMARK    1  A    between atoms: C_12  and  C_13
REMARK    2  A    between atoms: C_14  and  C_15
REMARK                            x       y       z     vdW  Elec       q    Type
REMARK                         _______ _______ _______ _____ _____    ______ ____
ROOT
ATOM      1  C   UNL     1       9.230  15.299  18.582  0.00  0.00    +0.000 A 
ATOM      2  C   UNL     1      10.170  14.267  18.638  0.00  0.00    +0.000 A 
ATOM      3  N   UNL     1      11.447  14.738  18.348  0.00  0.00    +0.000 NA
ATOM      4  C   UNL     1      11.258  15.995  18.060  0.00  0.00    +0.000 A 
ATOM      5  N   UNL     1       9.960  16.370  18.168  0.00  0.00    +0.000 N 
ATOM      6  C   UNL     1       9.633  17.748  17.886  0.00  0.00    +0.000 C 
ATOM      7  C   UNL     1      10.953  18.519  17.820  0.00  0.00    +0.000 C 
ATOM      8  S   UNL     1      12.299  17.283  17.619  0.00  0.00    +0.000 S 
ENDROOT
BRANCH   1  20
ATOM      9  O   UNL     1       4.981  15.322  19.114  0.00  0.00    +0.000 OA
ATOM     10  C   UNL     1       5.768  15.130  20.019  0.00  0.00    +0.000 C 
ATOM     11  N   UNL     1       5.497  14.635  21.282  0.00  0.00    +0.000 N 
ATOM     12  C   UNL     1       6.649  14.575  22.064  0.00  0.00    +0.000 A 
ATOM     13  C   UNL     1       6.706  14.130  23.374  0.00  0.00    +0.000 A 
ATOM     14  C   UNL     1       7.939  14.190  24.021  0.00  0.00    +0.000 A 
ATOM     15  C   UNL     1       9.040  14.773  23.383  0.00  0.00    +0.000 A 
ATOM     16  C   UNL     1       8.940  15.265  22.072  0.00  0.00    +0.000 A 
ATOM     17 CL   UNL     1      10.252  16.227  21.522  0.00  0.00    +0.000 Cl
ATOM     18  C   UNL     1       7.762  15.071  21.368  0.00  0.00    +0.000 A 
ATOM     19  C   UNL     1       7.267  15.316  20.003  0.00  0.00    +0.000 C 
ATOM     20  C   UNL     1       7.844  15.434  18.797  0.00  0.00    +0.000 C 
ATOM     21  H   UNL     1       4.566  14.381  21.580  0.00  0.00    +0.000 HD
ENDBRANCH   1  20
BRANCH   2  22
ATOM     22  C   UNL     1       9.906  12.861  18.921  0.00  0.00    +0.000 A 
ATOM     23  C   UNL     1      10.002  12.353  20.222  0.00  0.00    +0.000 A 
ATOM     24  C   UNL     1       9.679  11.020  20.493  0.00  0.00    +0.000 A 
ATOM     25  C   UNL     1       9.244  10.186  19.467  0.00  0.00    +0.000 A 
ATOM     26  C   UNL     1       9.145  10.679  18.165  0.00  0.00    +0.000 A 
ATOM     27  C   UNL     1       9.473  12.010  17.893  0.00  0.00    +0.000 A 
ENDBRANCH   2  22
TORSDOF 2
ENDMDL
MODEL 7
REMARK VINA RESULT:      -7.6      8.811     10.857
REMARK  Name = 
REMARK  2 active torsions:
REMARK  status: ('A' for Active; 'I' for Inactive)
REMARK    1  A    between atoms: C_12  and  C_13
REMARK    2  A    between atoms: C_14  and  C_15
REMARK                            x       y       z     vdW  Elec       q    Type
REMARK                         _______ _______ _______ _____ _____    ______ ____
ROOT
ATOM      1  C   UNL     1       0.767  12.659  19.483  0.00  0.00    +0.000 A 
ATOM      2  C   UNL     1       1.173  12.140  20.715  0.00  0.00    +0.000 A 
ATOM      3  N   UNL     1       2.234  12.870  21.240  0.00  0.00    +0.000 NA
ATOM      4  C   UNL     1       2.495  13.750  20.315  0.00  0.00    +0.000 A 
ATOM      5  N   UNL     1       1.665  13.654  19.248  0.00  0.00    +0.000 N 
ATOM      6  C   UNL     1       1.851  14.590  18.165  0.00  0.00    +0.000 C 
ATOM      7  C   UNL     1       2.799  15.680  18.669  0.00  0.00    +0.000 C 
ATOM      8  S   UNL     1       3.629  15.028  20.175  0.00  0.00    +0.000 S 
ENDROOT
BRANCH   1  20
ATOM      9  O   UNL     1      -2.224  11.396  16.690  0.00  0.00    +0.000 OA
ATOM     10  C   UNL     1      -2.480  11.832  17.794  0.00  0.00    +0.000 C 
ATOM     11  N   UNL     1      -3.688  11.771  18.466  0.00  0.00    +0.000 N 
ATOM     12  C   UNL     1      -3.614  12.404  19.706  0.00  0.00    +0.000 A 
ATOM     13  C   UNL     1      -4.655  12.516  20.611  0.00  0.00    +0.000 A 
ATOM     14  C   UNL     1      -4.416  13.232  21.782  0.00  0.00    +0.000 A 
ATOM     15  C   UNL     1      -3.192  13.887  21.968  0.00  0.00    +0.000 A 
ATOM     16  C   UNL     1      -2.172  13.800  21.009  0.00  0.00    +0.000 A 
ATOM     17 CL   UNL     1      -0.857  14.887  21.201  0.00  0.00    +0.000 Cl
ATOM     18  C   UNL     1      -2.346  12.966  19.914  0.00  0.00    +0.000 A 
ATOM     19  C   UNL     1      -1.543  12.508  18.767  0.00  0.00    +0.000 C 
ATOM     20  C   UNL     1      -0.230  12.372  18.529  0.00  0.00    +0.000 C 
ATOM     21  H   UNL     1      -4.510  11.336  18.072  0.00  0.00    +0.000 HD
ENDBRANCH   1  20
BRANCH   2  22
ATOM     22  C   UNL     1       0.622  10.973  21.393  0.00  0.00    +0.000 A 
ATOM     23  C   UNL     1      -0.270  11.110  22.463  0.00  0.00    +0.000 A 
ATOM     24  C   UNL     1      -0.847   9.985  23.061  0.00  0.00    +0.000 A 
ATOM     25  C   UNL     1      -0.545   8.712  22.585  0.00  0.00    +0.000 A 
ATOM     26  C   UNL     1       0.344   8.560  21.520  0.00  0.00    +0.000 A 
ATOM     27  C   UNL     1       0.923   9.685  20.926  0.00  0.00    +0.000 A 
ENDBRANCH   2  22
TORSDOF 2
ENDMDL
MODEL 8
REMARK VINA RESULT:      -7.4     10.372     13.503
REMARK  Name = 
REMARK  2 active torsions:
REMARK  status: ('A' for Active; 'I' for Inactive)
REMARK    1  A    between atoms: C_12  and  C_13
REMARK    2  A    between atoms: C_14  and  C_15
REMARK                            x       y       z     vdW  Elec       q    Type
REMARK                         _______ _______ _______ _____ _____    ______ ____
ROOT
ATOM      1  C   UNL     1      -3.539  13.515  23.076  0.00  0.00    +0.000 A 
ATOM      2  C   UNL     1      -4.605  13.731  22.199  0.00  0.00    +0.000 A 
ATOM      3  N   UNL     1      -5.241  14.937  22.474  0.00  0.00    +0.000 NA
ATOM      4  C   UNL     1      -4.615  15.387  23.525  0.00  0.00    +0.000 A 
ATOM      5  N   UNL     1      -3.611  14.572  23.929  0.00  0.00    +0.000 N 
ATOM      6  C   UNL     1      -2.837  14.977  25.078  0.00  0.00    +0.000 C 
ATOM      7  C   UNL     1      -3.194  16.437  25.369  0.00  0.00    +0.000 C 
ATOM      8  S   UNL     1      -4.759  16.805  24.478  0.00  0.00    +0.000 S 
ENDROOT
BRANCH   1  20
ATOM      9  O   UNL     1      -0.796  10.250  23.468  0.00  0.00    +0.000 OA
ATOM     10  C   UNL     1      -0.750  11.058  22.563  0.00  0.00    +0.000 C 
ATOM     11  N   UNL     1      -0.031  10.964  21.384  0.00  0.00    +0.000 N 
ATOM     12  C   UNL     1      -0.202  12.098  20.591  0.00  0.00    +0.000 A 
ATOM     13  C   UNL     1       0.388  12.309  19.357  0.00  0.00    +0.000 A 
ATOM     14  C   UNL     1       0.146  13.529  18.728  0.00  0.00    +0.000 A 
ATOM     15  C   UNL     1      -0.587  14.525  19.384  0.00  0.00    +0.000 A 
ATOM     16  C   UNL     1      -1.129  14.304  20.660  0.00  0.00    +0.000 A 
ATOM     17 CL   UNL     1      -1.728  15.688  21.480  0.00  0.00    +0.000 Cl
ATOM     18  C   UNL     1      -1.024  13.042  21.227  0.00  0.00    +0.000 A 
ATOM     19  C   UNL     1      -1.506  12.359  22.439  0.00  0.00    +0.000 C 
ATOM     20  C   UNL     1      -2.552  12.526  23.263  0.00  0.00    +0.000 C 
ATOM     21  H   UNL     1       0.554  10.171  21.163  0.00  0.00    +0.000 HD
ENDBRANCH   1  20
BRANCH   2  22
ATOM     22  C   UNL     1      -5.061  12.835  21.143  0.00  0.00    +0.000 A 
ATOM     23  C   UNL     1      -6.280  12.154  21.246  0.00  0.00    +0.000 A 
ATOM     24  C   UNL     1      -6.741  11.353  20.197  0.00  0.00    +0.000 A 
ATOM     25  C   UNL     1      -5.991  11.234  19.030  0.00  0.00    +0.000 A 
ATOM     26  C   UNL     1      -4.774  11.906  18.914  0.00  0.00    +0.000 A 
ATOM     27  C   UNL     1      -4.311  12.704  19.965  0.00  0.00    +0.000 A 
ENDBRANCH   2  22
TORSDOF 2
ENDMDL
MODEL 9
REMARK VINA RESULT:      -7.4      9.871     12.899
REMARK  Name = 
REMARK  2 active torsions:
REMARK  status: ('A' for Active; 'I' for Inactive)
REMARK    1  A    between atoms: C_12  and  C_13
REMARK    2  A    between atoms: C_14  and  C_15
REMARK                            x       y       z     vdW  Elec       q    Type
REMARK                         _______ _______ _______ _____ _____    ______ ____
ROOT
ATOM      1  C   UNL     1      -2.782  13.360  21.529  0.00  0.00    +0.000 A 
ATOM      2  C   UNL     1      -1.511  12.841  21.273  0.00  0.00    +0.000 A 
ATOM      3  N   UNL     1      -0.705  13.783  20.641  0.00  0.00    +0.000 NA
ATOM      4  C   UNL     1      -1.497  14.803  20.465  0.00  0.00    +0.000 A 
ATOM      5  N   UNL     1      -2.742  14.594  20.959  0.00  0.00    +0.000 N 
ATOM      6  C   UNL     1      -3.703  15.664  20.834  0.00  0.00    +0.000 C 
ATOM      7  C   UNL     1      -2.930  16.916  20.413  0.00  0.00    +0.000 C 
ATOM      8  S   UNL     1      -1.293  16.363  19.786  0.00  0.00    +0.000 S 
ENDROOT
BRANCH   1  20
ATOM      9  O   UNL     1      -6.482  12.379  23.451  0.00  0.00    +0.000 OA
ATOM     10  C   UNL     1      -6.345  12.423  22.245  0.00  0.00    +0.000 C 
ATOM     11  N   UNL     1      -7.339  12.439  21.283  0.00  0.00    +0.000 N 
ATOM     12  C   UNL     1      -6.803  12.466  19.997  0.00  0.00    +0.000 A 
ATOM     13  C   UNL     1      -7.537  12.482  18.823  0.00  0.00    +0.000 A 
ATOM     14  C   UNL     1      -6.831  12.454  17.622  0.00  0.00    +0.000 A 
ATOM     15  C   UNL     1      -5.438  12.316  17.628  0.00  0.00    +0.000 A 
ATOM     16  C   UNL     1      -4.723  12.248  18.834  0.00  0.00    +0.000 A 
ATOM     17 CL   UNL     1      -3.079  11.768  18.713  0.00  0.00    +0.000 Cl
ATOM     18  C   UNL     1      -5.400  12.428  20.030  0.00  0.00    +0.000 A 
ATOM     19  C   UNL     1      -5.060  12.534  21.459  0.00  0.00    +0.000 C 
ATOM     20  C   UNL     1      -3.968  12.908  22.143  0.00  0.00    +0.000 C 
ATOM     21  H   UNL     1      -8.322  12.409  21.514  0.00  0.00    +0.000 HD
ENDBRANCH   1  20
BRANCH   2  22
ATOM     22  C   UNL     1      -1.043  11.492  21.570  0.00  0.00    +0.000 A 
ATOM     23  C   UNL     1      -0.506  10.674  20.570  0.00  0.00    +0.000 A 
ATOM     24  C   UNL     1       0.004   9.409  20.879  0.00  0.00    +0.000 A 
ATOM     25  C   UNL     1      -0.008   8.956  22.195  0.00  0.00    +0.000 A 
ATOM     26  C   UNL     1      -0.542   9.761  23.203  0.00  0.00    +0.000 A 
ATOM     27  C   UNL     1      -1.055  11.024  22.893  0.00  0.00    +0.000 A 
ENDBRANCH   2  22
TORSDOF 2
ENDMDL
