MODEL 1
REMARK VINA RESULT:      -8.0      0.000      0.000
REMARK  Name = 
REMARK  8 active torsions:
REMARK  status: ('A' for Active; 'I' for Inactive)
REMARK    1  A    between atoms: C_1  and  C_2
REMARK    2  A    between atoms: C_2  and  C_3
REMARK    3  A    between atoms: C_3  and  C_4
REMARK    4  A    between atoms: C_3  and  C_18
REMARK    5  A    between atoms: N_6  and  C_7
REMARK    6  A    between atoms: C_12  and  N_13
REMARK    7  A    between atoms: C_22  and  O_23
REMARK    8  A    between atoms: O_23  and  C_24
REMARK                            x       y       z     vdW  Elec       q    Type
REMARK                         _______ _______ _______ _____ _____    ______ ____
ROOT
ATOM      1  C   UNL     1       1.895   8.727  18.436  0.00  0.00    +0.000 C 
ATOM      2  O   UNL     1       2.218   9.118  17.313  0.00  0.00    +0.000 OA
ATOM      3  N   UNL     1       2.266   7.507  18.970  0.00  0.00    +0.000 N 
ATOM      4  H   UNL     1       1.608   7.053  19.598  0.00  0.00    +0.000 HD
ENDROOT
BRANCH   3   5
ATOM      5  C   UNL     1       3.112   6.594  18.292  0.00  0.00    +0.000 A 
ATOM      6  C   UNL     1       4.085   7.047  17.393  0.00  0.00    +0.000 A 
ATOM      7  C   UNL     1       4.940   6.141  16.772  0.00  0.00    +0.000 A 
ATOM      8  C   UNL     1       4.817   4.780  17.037  0.00  0.00    +0.000 A 
ATOM      9  C   UNL     1       3.840   4.322  17.928  0.00  0.00    +0.000 A 
ATOM     10  C   UNL     1       2.973   5.214  18.584  0.00  0.00    +0.000 A 
BRANCH  10  11
ATOM     11  N   UNL     1       1.910   4.784  19.413  0.00  0.00    +0.000 N 
ATOM     12  C   UNL     1       2.098   4.749  20.875  0.00  0.00    +0.000 C 
ATOM     13  C   UNL     1       2.066   3.271  21.248  0.00  0.00    +0.000 C 
ATOM     14  C   UNL     1       1.091   2.692  20.243  0.00  0.00    +0.000 C 
ATOM     15  C   UNL     1       1.409   3.462  18.960  0.00  0.00    +0.000 C 
ENDBRANCH  10  11
ENDBRANCH   3   5
BRANCH   1  16
ATOM     16  C   UNL     1       1.083   9.646  19.356  0.00  0.00    +0.000 C 
BRANCH  16  17
ATOM     17  C   UNL     1      -0.099  10.330  18.669  0.00  0.00    +0.000 A 
ATOM     18  C   UNL     1      -0.395  11.667  18.982  0.00  0.00    +0.000 A 
ATOM     19  C   UNL     1      -1.500  12.303  18.413  0.00  0.00    +0.000 A 
ATOM     20  C   UNL     1      -2.313  11.617  17.513  0.00  0.00    +0.000 A 
ATOM     21  C   UNL     1      -2.028  10.297  17.168  0.00  0.00    +0.000 A 
ATOM     22  C   UNL     1      -0.926   9.660  17.747  0.00  0.00    +0.000 A 
BRANCH  21  23
ATOM     23  O   UNL     1      -2.897   9.740  16.270  0.00  0.00    +0.000 OA
ATOM     24  C   UNL     1      -3.266  10.535  15.149  0.00  0.00    +0.000 C 
ENDBRANCH  21  23
ENDBRANCH  16  17
BRANCH  16  26
ATOM     25  C   UNL     1       0.737   9.820  21.891  0.00  0.00    +0.000 C 
ATOM     26  C   UNL     1       0.702   8.918  20.663  0.00  0.00    +0.000 C 
ENDBRANCH  16  26
ENDBRANCH   1  16
TORSDOF 6
ENDMDL
MODEL 2
REMARK VINA RESULT:      -7.8      0.971      1.071
REMARK  Name = 
REMARK  8 active torsions:
REMARK  status: ('A' for Active; 'I' for Inactive)
REMARK    1  A    between atoms: C_1  and  C_2
REMARK    2  A    between atoms: C_2  and  C_3
REMARK    3  A    between atoms: C_3  and  C_4
REMARK    4  A    between atoms: C_3  and  C_18
REMARK    5  A    between atoms: N_6  and  C_7
REMARK    6  A    between atoms: C_12  and  N_13
REMARK    7  A    between atoms: C_22  and  O_23
REMARK    8  A    between atoms: O_23  and  C_24
REMARK                            x       y       z     vdW  Elec       q    Type
REMARK                         _______ _______ _______ _____ _____    ______ ____
ROOT
ATOM      1  C   UNL     1       2.085   8.513  18.499  0.00  0.00    +0.000 C 
ATOM      2  O   UNL     1       2.056   8.884  17.325  0.00  0.00    +0.000 OA
ATOM      3  N   UNL     1       2.690   7.348  18.932  0.00  0.00    +0.000 N 
ATOM      4  H   UNL     1       2.268   6.869  19.723  0.00  0.00    +0.000 HD
ENDROOT
BRANCH   3   5
ATOM      5  C   UNL     1       3.395   6.477  18.063  0.00  0.00    +0.000 A 
ATOM      6  C   UNL     1       4.398   6.964  17.217  0.00  0.00    +0.000 A 
ATOM      7  C   UNL     1       5.115   6.089  16.404  0.00  0.00    +0.000 A 
ATOM      8  C   UNL     1       4.822   4.728  16.426  0.00  0.00    +0.000 A 
ATOM      9  C   UNL     1       3.813   4.239  17.264  0.00  0.00    +0.000 A 
ATOM     10  C   UNL     1       3.084   5.095  18.109  0.00  0.00    +0.000 A 
BRANCH  10  11
ATOM     11  N   UNL     1       1.993   4.655  18.894  0.00  0.00    +0.000 N 
ATOM     12  C   UNL     1       2.227   4.222  20.284  0.00  0.00    +0.000 C 
ATOM     13  C   UNL     1       1.940   2.725  20.292  0.00  0.00    +0.000 C 
ATOM     14  C   UNL     1       0.839   2.589  19.262  0.00  0.00    +0.000 C 
ATOM     15  C   UNL     1       1.242   3.593  18.180  0.00  0.00    +0.000 C 
ENDBRANCH  10  11
ENDBRANCH   3   5
BRANCH   1  16
ATOM     16  C   UNL     1       1.478   9.402  19.591  0.00  0.00    +0.000 C 
BRANCH  16  17
ATOM     17  C   UNL     1       0.552  10.497  19.060  0.00  0.00    +0.000 A 
ATOM     18  C   UNL     1       0.998  11.829  19.056  0.00  0.00    +0.000 A 
ATOM     19  C   UNL     1       0.158  12.859  18.629  0.00  0.00    +0.000 A 
ATOM     20  C   UNL     1      -1.131  12.570  18.187  0.00  0.00    +0.000 A 
ATOM     21  C   UNL     1      -1.591  11.254  18.160  0.00  0.00    +0.000 A 
ATOM     22  C   UNL     1      -0.750  10.226  18.598  0.00  0.00    +0.000 A 
BRANCH  21  23
ATOM     23  O   UNL     1      -2.870  11.103  17.700  0.00  0.00    +0.000 OA
ATOM     24  C   UNL     1      -3.377   9.775  17.622  0.00  0.00    +0.000 C 
ENDBRANCH  21  23
ENDBRANCH  16  17
BRANCH  16  26
ATOM     25  C   UNL     1       0.563   9.327  21.985  0.00  0.00    +0.000 C 
ATOM     26  C   UNL     1       0.845   8.545  20.708  0.00  0.00    +0.000 C 
ENDBRANCH  16  26
ENDBRANCH   1  16
TORSDOF 6
ENDMDL
MODEL 3
REMARK VINA RESULT:      -7.7      1.391      2.075
REMARK  Name = 
REMARK  8 active torsions:
REMARK  status: ('A' for Active; 'I' for Inactive)
REMARK    1  A    between atoms: C_1  and  C_2
REMARK    2  A    between atoms: C_2  and  C_3
REMARK    3  A    between atoms: C_3  and  C_4
REMARK    4  A    between atoms: C_3  and  C_18
REMARK    5  A    between atoms: N_6  and  C_7
REMARK    6  A    between atoms: C_12  and  N_13
REMARK    7  A    between atoms: C_22  and  O_23
REMARK    8  A    between atoms: O_23  and  C_24
REMARK                            x       y       z     vdW  Elec       q    Type
REMARK                         _______ _______ _______ _____ _____    ______ ____
ROOT
ATOM      1  C   UNL     1       2.057   8.537  18.484  0.00  0.00    +0.000 C 
ATOM      2  O   UNL     1       2.104   8.939  17.320  0.00  0.00    +0.000 OA
ATOM      3  N   UNL     1       2.615   7.349  18.918  0.00  0.00    +0.000 N 
ATOM      4  H   UNL     1       2.139   6.857  19.670  0.00  0.00    +0.000 HD
ENDROOT
BRANCH   3   5
ATOM      5  C   UNL     1       3.356   6.489  18.068  0.00  0.00    +0.000 A 
ATOM      6  C   UNL     1       4.368   6.992  17.242  0.00  0.00    +0.000 A 
ATOM      7  C   UNL     1       5.118   6.128  16.448  0.00  0.00    +0.000 A 
ATOM      8  C   UNL     1       4.850   4.762  16.469  0.00  0.00    +0.000 A 
ATOM      9  C   UNL     1       3.834   4.256  17.287  0.00  0.00    +0.000 A 
ATOM     10  C   UNL     1       3.070   5.101  18.112  0.00  0.00    +0.000 A 
BRANCH  10  11
ATOM     11  N   UNL     1       1.971   4.643  18.876  0.00  0.00    +0.000 N 
ATOM     12  C   UNL     1       2.191   4.175  20.256  0.00  0.00    +0.000 C 
ATOM     13  C   UNL     1       1.902   2.679  20.224  0.00  0.00    +0.000 C 
ATOM     14  C   UNL     1       0.811   2.570  19.179  0.00  0.00    +0.000 C 
ATOM     15  C   UNL     1       1.226   3.601  18.128  0.00  0.00    +0.000 C 
ENDBRANCH  10  11
ENDBRANCH   3   5
BRANCH   1  16
ATOM     16  C   UNL     1       1.402   9.407  19.563  0.00  0.00    +0.000 C 
BRANCH  16  17
ATOM     17  C   UNL     1       0.331  10.358  19.030  0.00  0.00    +0.000 A 
ATOM     18  C   UNL     1      -0.855   9.827  18.495  0.00  0.00    +0.000 A 
ATOM     19  C   UNL     1      -1.828  10.666  17.950  0.00  0.00    +0.000 A 
ATOM     20  C   UNL     1      -1.637  12.046  17.947  0.00  0.00    +0.000 A 
ATOM     21  C   UNL     1      -0.480  12.601  18.491  0.00  0.00    +0.000 A 
ATOM     22  C   UNL     1       0.498  11.757  19.027  0.00  0.00    +0.000 A 
BRANCH  21  23
ATOM     23  O   UNL     1      -0.417  13.966  18.432  0.00  0.00    +0.000 OA
ATOM     24  C   UNL     1       0.781  14.578  18.896  0.00  0.00    +0.000 C 
ENDBRANCH  21  23
ENDBRANCH  16  17
BRANCH  16  26
ATOM     25  C   UNL     1       0.642   9.352  22.011  0.00  0.00    +0.000 C 
ATOM     26  C   UNL     1       0.927   8.544  20.751  0.00  0.00    +0.000 C 
ENDBRANCH  16  26
ENDBRANCH   1  16
TORSDOF 6
ENDMDL
MODEL 4
REMARK VINA RESULT:      -7.6      2.812      5.645
REMARK  Name = 
REMARK  8 active torsions:
REMARK  status: ('A' for Active; 'I' for Inactive)
REMARK    1  A    between atoms: C_1  and  C_2
REMARK    2  A    between atoms: C_2  and  C_3
REMARK    3  A    between atoms: C_3  and  C_4
REMARK    4  A    between atoms: C_3  and  C_18
REMARK    5  A    between atoms: N_6  and  C_7
REMARK    6  A    between atoms: C_12  and  N_13
REMARK    7  A    between atoms: C_22  and  O_23
REMARK    8  A    between atoms: O_23  and  C_24
REMARK                            x       y       z     vdW  Elec       q    Type
REMARK                         _______ _______ _______ _____ _____    ______ ____
ROOT
ATOM      1  C   UNL     1       3.862   4.117  17.949  0.00  0.00    +0.000 C 
ATOM      2  O   UNL     1       4.599   3.170  18.229  0.00  0.00    +0.000 OA
ATOM      3  N   UNL     1       4.077   4.981  16.892  0.00  0.00    +0.000 N 
ATOM      4  H   UNL     1       3.788   5.948  17.013  0.00  0.00    +0.000 HD
ENDROOT
BRANCH   3   5
ATOM      5  C   UNL     1       5.150   4.829  15.977  0.00  0.00    +0.000 A 
ATOM      6  C   UNL     1       5.025   4.007  14.852  0.00  0.00    +0.000 A 
ATOM      7  C   UNL     1       6.071   3.906  13.939  0.00  0.00    +0.000 A 
ATOM      8  C   UNL     1       7.249   4.616  14.155  0.00  0.00    +0.000 A 
ATOM      9  C   UNL     1       7.382   5.432  15.283  0.00  0.00    +0.000 A 
ATOM     10  C   UNL     1       6.336   5.568  16.215  0.00  0.00    +0.000 A 
BRANCH  10  11
ATOM     11  N   UNL     1       6.467   6.303  17.417  0.00  0.00    +0.000 N 
ATOM     12  C   UNL     1       6.656   7.764  17.357  0.00  0.00    +0.000 C 
ATOM     13  C   UNL     1       8.071   8.008  17.868  0.00  0.00    +0.000 C 
ATOM     14  C   UNL     1       8.251   6.910  18.895  0.00  0.00    +0.000 C 
ATOM     15  C   UNL     1       7.535   5.715  18.263  0.00  0.00    +0.000 C 
ENDBRANCH  10  11
ENDBRANCH   3   5
BRANCH   1  16
ATOM     16  C   UNL     1       2.583   4.351  18.761  0.00  0.00    +0.000 C 
BRANCH  16  17
ATOM     17  C   UNL     1       2.303   5.821  19.073  0.00  0.00    +0.000 A 
ATOM     18  C   UNL     1       1.895   6.181  20.369  0.00  0.00    +0.000 A 
ATOM     19  C   UNL     1       1.579   7.506  20.672  0.00  0.00    +0.000 A 
ATOM     20  C   UNL     1       1.681   8.490  19.691  0.00  0.00    +0.000 A 
ATOM     21  C   UNL     1       2.105   8.164  18.404  0.00  0.00    +0.000 A 
ATOM     22  C   UNL     1       2.412   6.833  18.101  0.00  0.00    +0.000 A 
BRANCH  21  23
ATOM     23  O   UNL     1       2.170   9.220  17.537  0.00  0.00    +0.000 OA
ATOM     24  C   UNL     1       2.029  10.522  18.094  0.00  0.00    +0.000 C 
ENDBRANCH  21  23
ENDBRANCH  16  17
BRANCH  16  26
ATOM     25  C   UNL     1       0.861   2.463  18.971  0.00  0.00    +0.000 C 
ATOM     26  C   UNL     1       1.385   3.615  18.123  0.00  0.00    +0.000 C 
ENDBRANCH  16  26
ENDBRANCH   1  16
TORSDOF 6
ENDMDL
MODEL 5
REMARK VINA RESULT:      -7.6      3.386      7.570
REMARK  Name = 
REMARK  8 active torsions:
REMARK  status: ('A' for Active; 'I' for Inactive)
REMARK    1  A    between atoms: C_1  and  C_2
REMARK    2  A    between atoms: C_2  and  C_3
REMARK    3  A    between atoms: C_3  and  C_4
REMARK    4  A    between atoms: C_3  and  C_18
REMARK    5  A    between atoms: N_6  and  C_7
REMARK    6  A    between atoms: C_12  and  N_13
REMARK    7  A    between atoms: C_22  and  O_23
REMARK    8  A    between atoms: O_23  and  C_24
REMARK                            x       y       z     vdW  Elec       q    Type
REMARK                         _______ _______ _______ _____ _____    ______ ____
ROOT
ATOM      1  C   UNL     1       4.431   4.197  16.919  0.00  0.00    +0.000 C 
ATOM      2  O   UNL     1       4.179   3.003  16.749  0.00  0.00    +0.000 OA
ATOM      3  N   UNL     1       3.759   5.014  17.809  0.00  0.00    +0.000 N 
ATOM      4  H   UNL     1       3.646   5.991  17.553  0.00  0.00    +0.000 HD
ENDROOT
BRANCH   3   5
ATOM      5  C   UNL     1       2.735   4.539  18.668  0.00  0.00    +0.000 A 
ATOM      6  C   UNL     1       2.305   3.209  18.607  0.00  0.00    +0.000 A 
ATOM      7  C   UNL     1       1.332   2.747  19.490  0.00  0.00    +0.000 A 
ATOM      8  C   UNL     1       0.779   3.616  20.427  0.00  0.00    +0.000 A 
ATOM      9  C   UNL     1       1.201   4.949  20.485  0.00  0.00    +0.000 A 
ATOM     10  C   UNL     1       2.193   5.441  19.619  0.00  0.00    +0.000 A 
BRANCH  10  11
ATOM     11  N   UNL     1       2.574   6.803  19.579  0.00  0.00    +0.000 N 
ATOM     12  C   UNL     1       1.960   7.756  20.522  0.00  0.00    +0.000 C 
ATOM     13  C   UNL     1       1.114   8.685  19.660  0.00  0.00    +0.000 C 
ATOM     14  C   UNL     1       1.904   8.759  18.370  0.00  0.00    +0.000 C 
ATOM     15  C   UNL     1       2.435   7.334  18.200  0.00  0.00    +0.000 C 
ENDBRANCH  10  11
ENDBRANCH   3   5
BRANCH   1  16
ATOM     16  C   UNL     1       5.596   4.844  16.160  0.00  0.00    +0.000 C 
BRANCH  16  17
ATOM     17  C   UNL     1       6.541   5.657  17.045  0.00  0.00    +0.000 A 
ATOM     18  C   UNL     1       7.215   5.016  18.099  0.00  0.00    +0.000 A 
ATOM     19  C   UNL     1       8.042   5.741  18.959  0.00  0.00    +0.000 A 
ATOM     20  C   UNL     1       8.218   7.110  18.769  0.00  0.00    +0.000 A 
ATOM     21  C   UNL     1       7.579   7.766  17.718  0.00  0.00    +0.000 A 
ATOM     22  C   UNL     1       6.743   7.038  16.864  0.00  0.00    +0.000 A 
BRANCH  21  23
ATOM     23  O   UNL     1       7.839   9.106  17.636  0.00  0.00    +0.000 OA
ATOM     24  C   UNL     1       8.770   9.641  18.570  0.00  0.00    +0.000 C 
ENDBRANCH  21  23
ENDBRANCH  16  17
BRANCH  16  26
ATOM     25  C   UNL     1       6.032   3.977  13.787  0.00  0.00    +0.000 C 
ATOM     26  C   UNL     1       6.318   3.806  15.274  0.00  0.00    +0.000 C 
ENDBRANCH  16  26
ENDBRANCH   1  16
TORSDOF 6
ENDMDL
MODEL 6
REMARK VINA RESULT:      -7.6      1.289      1.837
REMARK  Name = 
REMARK  8 active torsions:
REMARK  status: ('A' for Active; 'I' for Inactive)
REMARK    1  A    between atoms: C_1  and  C_2
REMARK    2  A    between atoms: C_2  and  C_3
REMARK    3  A    between atoms: C_3  and  C_4
REMARK    4  A    between atoms: C_3  and  C_18
REMARK    5  A    between atoms: N_6  and  C_7
REMARK    6  A    between atoms: C_12  and  N_13
REMARK    7  A    between atoms: C_22  and  O_23
REMARK    8  A    between atoms: O_23  and  C_24
REMARK                            x       y       z     vdW  Elec       q    Type
REMARK                         _______ _______ _______ _____ _____    ______ ____
ROOT
ATOM      1  C   UNL     1       1.858   8.715  18.534  0.00  0.00    +0.000 C 
ATOM      2  O   UNL     1       2.040   9.229  17.430  0.00  0.00    +0.000 OA
ATOM      3  N   UNL     1       2.365   7.486  18.912  0.00  0.00    +0.000 N 
ATOM      4  H   UNL     1       1.807   6.926  19.550  0.00  0.00    +0.000 HD
ENDROOT
BRANCH   3   5
ATOM      5  C   UNL     1       3.204   6.708  18.074  0.00  0.00    +0.000 A 
ATOM      6  C   UNL     1       4.204   7.309  17.300  0.00  0.00    +0.000 A 
ATOM      7  C   UNL     1       5.050   6.526  16.519  0.00  0.00    +0.000 A 
ATOM      8  C   UNL     1       4.891   5.143  16.499  0.00  0.00    +0.000 A 
ATOM      9  C   UNL     1       3.886   4.539  17.264  0.00  0.00    +0.000 A 
ATOM     10  C   UNL     1       3.027   5.301  18.076  0.00  0.00    +0.000 A 
BRANCH  10  11
ATOM     11  N   UNL     1       1.939   4.740  18.784  0.00  0.00    +0.000 N 
ATOM     12  C   UNL     1       2.142   4.254  20.161  0.00  0.00    +0.000 C 
ATOM     13  C   UNL     1       1.973   2.742  20.083  0.00  0.00    +0.000 C 
ATOM     14  C   UNL     1       0.934   2.577  18.994  0.00  0.00    +0.000 C 
ATOM     15  C   UNL     1       1.307   3.663  17.983  0.00  0.00    +0.000 C 
ENDBRANCH  10  11
ENDBRANCH   3   5
BRANCH   1  16
ATOM     16  C   UNL     1       1.077   9.480  19.610  0.00  0.00    +0.000 C 
BRANCH  16  17
ATOM     17  C   UNL     1      -0.202  10.142  19.098  0.00  0.00    +0.000 A 
ATOM     18  C   UNL     1      -0.758   9.711  17.882  0.00  0.00    +0.000 A 
ATOM     19  C   UNL     1      -1.895  10.331  17.359  0.00  0.00    +0.000 A 
ATOM     20  C   UNL     1      -2.498  11.379  18.052  0.00  0.00    +0.000 A 
ATOM     21  C   UNL     1      -1.980  11.811  19.272  0.00  0.00    +0.000 A 
ATOM     22  C   UNL     1      -0.836  11.194  19.787  0.00  0.00    +0.000 A 
BRANCH  21  23
ATOM     23  O   UNL     1      -2.667  12.841  19.853  0.00  0.00    +0.000 OA
ATOM     24  C   UNL     1      -4.047  12.624  20.126  0.00  0.00    +0.000 C 
ENDBRANCH  21  23
ENDBRANCH  16  17
BRANCH  16  26
ATOM     25  C   UNL     1       1.250   9.297  22.161  0.00  0.00    +0.000 C 
ATOM     26  C   UNL     1       0.862   8.603  20.861  0.00  0.00    +0.000 C 
ENDBRANCH  16  26
ENDBRANCH   1  16
TORSDOF 6
ENDMDL
MODEL 7
REMARK VINA RESULT:      -7.5      3.435      7.500
REMARK  Name = 
REMARK  8 active torsions:
REMARK  status: ('A' for Active; 'I' for Inactive)
REMARK    1  A    between atoms: C_1  and  C_2
REMARK    2  A    between atoms: C_2  and  C_3
REMARK    3  A    between atoms: C_3  and  C_4
REMARK    4  A    between atoms: C_3  and  C_18
REMARK    5  A    between atoms: N_6  and  C_7
REMARK    6  A    between atoms: C_12  and  N_13
REMARK    7  A    between atoms: C_22  and  O_23
REMARK    8  A    between atoms: O_23  and  C_24
REMARK                            x       y       z     vdW  Elec       q    Type
REMARK                         _______ _______ _______ _____ _____    ______ ____
ROOT
ATOM      1  C   UNL     1       5.272   5.687  16.499  0.00  0.00    +0.000 C 
ATOM      2  O   UNL     1       5.128   6.617  15.704  0.00  0.00    +0.000 OA
ATOM      3  N   UNL     1       4.584   5.571  17.692  0.00  0.00    +0.000 N 
ATOM      4  H   UNL     1       5.070   5.136  18.471  0.00  0.00    +0.000 HD
ENDROOT
BRANCH   3   5
ATOM      5  C   UNL     1       3.589   6.495  18.100  0.00  0.00    +0.000 A 
ATOM      6  C   UNL     1       3.575   7.804  17.603  0.00  0.00    +0.000 A 
ATOM      7  C   UNL     1       2.563   8.684  17.977  0.00  0.00    +0.000 A 
ATOM      8  C   UNL     1       1.570   8.263  18.858  0.00  0.00    +0.000 A 
ATOM      9  C   UNL     1       1.586   6.959  19.365  0.00  0.00    +0.000 A 
ATOM     10  C   UNL     1       2.585   6.041  18.992  0.00  0.00    +0.000 A 
BRANCH  10  11
ATOM     11  N   UNL     1       2.692   4.749  19.558  0.00  0.00    +0.000 N 
ATOM     12  C   UNL     1       2.022   3.611  18.901  0.00  0.00    +0.000 C 
ATOM     13  C   UNL     1       0.920   3.184  19.863  0.00  0.00    +0.000 C 
ATOM     14  C   UNL     1       1.527   3.478  21.220  0.00  0.00    +0.000 C 
ATOM     15  C   UNL     1       2.295   4.780  20.987  0.00  0.00    +0.000 C 
ENDBRANCH  10  11
ENDBRANCH   3   5
BRANCH   1  16
ATOM     16  C   UNL     1       6.220   4.532  16.154  0.00  0.00    +0.000 C 
BRANCH  16  17
ATOM     17  C   UNL     1       6.493   4.377  14.658  0.00  0.00    +0.000 A 
ATOM     18  C   UNL     1       7.531   5.119  14.069  0.00  0.00    +0.000 A 
ATOM     19  C   UNL     1       7.771   5.042  12.696  0.00  0.00    +0.000 A 
ATOM     20  C   UNL     1       6.988   4.211  11.897  0.00  0.00    +0.000 A 
ATOM     21  C   UNL     1       5.966   3.447  12.459  0.00  0.00    +0.000 A 
ATOM     22  C   UNL     1       5.723   3.535  13.833  0.00  0.00    +0.000 A 
BRANCH  21  23
ATOM     23  O   UNL     1       5.278   2.670  11.569  0.00  0.00    +0.000 OA
ATOM     24  C   UNL     1       3.994   3.133  11.165  0.00  0.00    +0.000 C 
ENDBRANCH  21  23
ENDBRANCH  16  17
BRANCH  16  26
ATOM     25  C   UNL     1       7.556   5.814  17.927  0.00  0.00    +0.000 C 
ATOM     26  C   UNL     1       7.500   4.596  17.013  0.00  0.00    +0.000 C 
ENDBRANCH  16  26
ENDBRANCH   1  16
TORSDOF 6
ENDMDL
MODEL 8
REMARK VINA RESULT:      -7.4      3.278      5.762
REMARK  Name = 
REMARK  8 active torsions:
REMARK  status: ('A' for Active; 'I' for Inactive)
REMARK    1  A    between atoms: C_1  and  C_2
REMARK    2  A    between atoms: C_2  and  C_3
REMARK    3  A    between atoms: C_3  and  C_4
REMARK    4  A    between atoms: C_3  and  C_18
REMARK    5  A    between atoms: N_6  and  C_7
REMARK    6  A    between atoms: C_12  and  N_13
REMARK    7  A    between atoms: C_22  and  O_23
REMARK    8  A    between atoms: O_23  and  C_24
REMARK                            x       y       z     vdW  Elec       q    Type
REMARK                         _______ _______ _______ _____ _____    ______ ____
ROOT
ATOM      1  C   UNL     1       3.849   4.222  17.999  0.00  0.00    +0.000 C 
ATOM      2  O   UNL     1       4.624   3.334  18.356  0.00  0.00    +0.000 OA
ATOM      3  N   UNL     1       4.028   5.004  16.873  0.00  0.00    +0.000 N 
ATOM      4  H   UNL     1       3.697   5.964  16.914  0.00  0.00    +0.000 HD
ENDROOT
BRANCH   3   5
ATOM      5  C   UNL     1       5.108   4.822  15.973  0.00  0.00    +0.000 A 
ATOM      6  C   UNL     1       4.972   4.006  14.843  0.00  0.00    +0.000 A 
ATOM      7  C   UNL     1       6.027   3.876  13.943  0.00  0.00    +0.000 A 
ATOM      8  C   UNL     1       7.223   4.550  14.177  0.00  0.00    +0.000 A 
ATOM      9  C   UNL     1       7.365   5.359  15.310  0.00  0.00    +0.000 A 
ATOM     10  C   UNL     1       6.312   5.524  16.228  0.00  0.00    +0.000 A 
BRANCH  10  11
ATOM     11  N   UNL     1       6.449   6.251  17.434  0.00  0.00    +0.000 N 
ATOM     12  C   UNL     1       6.576   7.719  17.385  0.00  0.00    +0.000 C 
ATOM     13  C   UNL     1       7.995   8.016  17.856  0.00  0.00    +0.000 C 
ATOM     14  C   UNL     1       8.250   6.916  18.865  0.00  0.00    +0.000 C 
ATOM     15  C   UNL     1       7.565   5.699  18.241  0.00  0.00    +0.000 C 
ENDBRANCH  10  11
ENDBRANCH   3   5
BRANCH   1  16
ATOM     16  C   UNL     1       2.559   4.468  18.791  0.00  0.00    +0.000 C 
BRANCH  16  17
ATOM     17  C   UNL     1       2.256   5.944  19.046  0.00  0.00    +0.000 A 
ATOM     18  C   UNL     1       2.388   6.863  17.991  0.00  0.00    +0.000 A 
ATOM     19  C   UNL     1       2.172   8.226  18.204  0.00  0.00    +0.000 A 
ATOM     20  C   UNL     1       1.808   8.686  19.468  0.00  0.00    +0.000 A 
ATOM     21  C   UNL     1       1.649   7.793  20.527  0.00  0.00    +0.000 A 
ATOM     22  C   UNL     1       1.875   6.429  20.312  0.00  0.00    +0.000 A 
BRANCH  21  23
ATOM     23  O   UNL     1       1.283   8.369  21.712  0.00  0.00    +0.000 OA
ATOM     24  C   UNL     1       0.866   9.729  21.668  0.00  0.00    +0.000 C 
ENDBRANCH  21  23
ENDBRANCH  16  17
BRANCH  16  26
ATOM     25  C   UNL     1       0.889   2.539  19.041  0.00  0.00    +0.000 C 
ATOM     26  C   UNL     1       1.378   3.692  18.172  0.00  0.00    +0.000 C 
ENDBRANCH  16  26
ENDBRANCH   1  16
TORSDOF 6
ENDMDL
MODEL 9
REMARK VINA RESULT:      -7.3      2.588      5.070
REMARK  Name = 
REMARK  8 active torsions:
REMARK  status: ('A' for Active; 'I' for Inactive)
REMARK    1  A    between atoms: C_1  and  C_2
REMARK    2  A    between atoms: C_2  and  C_3
REMARK    3  A    between atoms: C_3  and  C_4
REMARK    4  A    between atoms: C_3  and  C_18
REMARK    5  A    between atoms: N_6  and  C_7
REMARK    6  A    between atoms: C_12  and  N_13
REMARK    7  A    between atoms: C_22  and  O_23
REMARK    8  A    between atoms: O_23  and  C_24
REMARK                            x       y       z     vdW  Elec       q    Type
REMARK                         _______ _______ _______ _____ _____    ______ ____
ROOT
ATOM      1  C   UNL     1       2.961   5.115  18.701  0.00  0.00    +0.000 C 
ATOM      2  O   UNL     1       2.236   4.956  17.717  0.00  0.00    +0.000 OA
ATOM      3  N   UNL     1       4.336   4.980  18.682  0.00  0.00    +0.000 N 
ATOM      4  H   UNL     1       4.782   4.625  19.524  0.00  0.00    +0.000 HD
ENDROOT
BRANCH   3   5
ATOM      5  C   UNL     1       5.067   4.696  17.500  0.00  0.00    +0.000 A 
ATOM      6  C   UNL     1       4.753   3.584  16.711  0.00  0.00    +0.000 A 
ATOM      7  C   UNL     1       5.449   3.346  15.528  0.00  0.00    +0.000 A 
ATOM      8  C   UNL     1       6.468   4.211  15.139  0.00  0.00    +0.000 A 
ATOM      9  C   UNL     1       6.790   5.320  15.930  0.00  0.00    +0.000 A 
ATOM     10  C   UNL     1       6.094   5.596  17.121  0.00  0.00    +0.000 A 
BRANCH  10  11
ATOM     11  N   UNL     1       6.455   6.646  17.997  0.00  0.00    +0.000 N 
ATOM     12  C   UNL     1       6.517   8.028  17.487  0.00  0.00    +0.000 C 
ATOM     13  C   UNL     1       7.991   8.410  17.538  0.00  0.00    +0.000 C 
ATOM     14  C   UNL     1       8.492   7.656  18.752  0.00  0.00    +0.000 C 
ATOM     15  C   UNL     1       7.735   6.329  18.679  0.00  0.00    +0.000 C 
ENDBRANCH  10  11
ENDBRANCH   3   5
BRANCH   1  16
ATOM     16  C   UNL     1       2.345   5.550  20.035  0.00  0.00    +0.000 C 
BRANCH  16  17
ATOM     17  C   UNL     1       1.874   7.004  20.059  0.00  0.00    +0.000 A 
ATOM     18  C   UNL     1       1.151   7.473  21.169  0.00  0.00    +0.000 A 
ATOM     19  C   UNL     1       0.660   8.780  21.197  0.00  0.00    +0.000 A 
ATOM     20  C   UNL     1       0.896   9.638  20.126  0.00  0.00    +0.000 A 
ATOM     21  C   UNL     1       1.628   9.204  19.021  0.00  0.00    +0.000 A 
ATOM     22  C   UNL     1       2.111   7.892  18.992  0.00  0.00    +0.000 A 
BRANCH  21  23
ATOM     23  O   UNL     1       1.795  10.143  18.041  0.00  0.00    +0.000 OA
ATOM     24  C   UNL     1       1.788  11.508  18.445  0.00  0.00    +0.000 C 
ENDBRANCH  21  23
ENDBRANCH  16  17
BRANCH  16  26
ATOM     25  C   UNL     1       1.847   3.333  21.222  0.00  0.00    +0.000 C 
ATOM     26  C   UNL     1       1.271   4.544  20.499  0.00  0.00    +0.000 C 
ENDBRANCH  16  26
ENDBRANCH   1  16
TORSDOF 6
ENDMDL
