MODEL 1
REMARK VINA RESULT:      -8.0      0.000      0.000
REMARK  Name = 
REMARK  5 active torsions:
REMARK  status: ('A' for Active; 'I' for Inactive)
REMARK    1  A    between atoms: C_1  and  C_2
REMARK    2  A    between atoms: C_2  and  C_3
REMARK    3  A    between atoms: C_7  and  C_8
REMARK    4  A    between atoms: C_17  and  C_18
REMARK    5  A    between atoms: C_18  and  O_20
REMARK                            x       y       z     vdW  Elec       q    Type
REMARK                         _______ _______ _______ _____ _____    ______ ____
ROOT
ATOM      1  C   UNL     1       2.227   3.498  17.469  0.00  0.00    +0.000 C 
ATOM      2  C   UNL     1       3.110   4.084  18.615  0.00  0.00    +0.000 C 
ATOM      3  C   UNL     1       2.339   5.358  19.110  0.00  0.00    +0.000 C 
ATOM      4  C   UNL     1       1.811   5.427  20.539  0.00  0.00    +0.000 C 
ATOM      5  C   UNL     1       2.034   4.245  21.464  0.00  0.00    +0.000 C 
ATOM      6  C   UNL     1       2.764   3.069  20.913  0.00  0.00    +0.000 C 
ATOM      7  C   UNL     1       3.275   2.978  19.672  0.00  0.00    +0.000 C 
ENDROOT
BRANCH   2   8
ATOM      8  C   UNL     1       4.493   4.589  18.126  0.00  0.00    +0.000 A 
ATOM      9  C   UNL     1       5.416   5.193  18.994  0.00  0.00    +0.000 A 
ATOM     10  C   UNL     1       6.661   5.634  18.537  0.00  0.00    +0.000 A 
ATOM     11  C   UNL     1       7.013   5.484  17.198  0.00  0.00    +0.000 A 
ATOM     12  C   UNL     1       6.131   4.867  16.305  0.00  0.00    +0.000 A 
ATOM     13  C   UNL     1       4.890   4.405  16.784  0.00  0.00    +0.000 A 
BRANCH  12  14
ATOM     14  C   UNL     1       6.483   4.704  14.847  0.00  0.00    +0.000 C 
ATOM     15  F   UNL     1       7.748   5.104  14.537  0.00  0.00    +0.000 F 
ATOM     16  F   UNL     1       6.390   3.409  14.432  0.00  0.00    +0.000 F 
ATOM     17  F   UNL     1       5.656   5.412  14.028  0.00  0.00    +0.000 F 
ENDBRANCH  12  14
ENDBRANCH   2   8
BRANCH   7  18
ATOM     18  C   UNL     1       4.030   1.744  19.258  0.00  0.00    +0.000 C 
ATOM     19  O   UNL     1       3.666   0.980  18.376  0.00  0.00    +0.000 OA
BRANCH  18  20
ATOM     20  O   UNL     1       5.190   1.540  19.915  0.00  0.00    +0.000 OA
ATOM     21  H   UNL     1       5.736   2.328  20.052  0.00  0.00    +0.000 HD
ENDBRANCH  18  20
ENDBRANCH   7  18
TORSDOF 4
ENDMDL
MODEL 2
REMARK VINA RESULT:      -8.0      1.459      1.829
REMARK  Name = 
REMARK  5 active torsions:
REMARK  status: ('A' for Active; 'I' for Inactive)
REMARK    1  A    between atoms: C_1  and  C_2
REMARK    2  A    between atoms: C_2  and  C_3
REMARK    3  A    between atoms: C_7  and  C_8
REMARK    4  A    between atoms: C_17  and  C_18
REMARK    5  A    between atoms: C_18  and  O_20
REMARK                            x       y       z     vdW  Elec       q    Type
REMARK                         _______ _______ _______ _____ _____    ______ ____
ROOT
ATOM      1  C   UNL     1       2.730   1.800  17.828  0.00  0.00    +0.000 C 
ATOM      2  C   UNL     1       2.765   3.182  18.552  0.00  0.00    +0.000 C 
ATOM      3  C   UNL     1       1.272   3.661  18.583  0.00  0.00    +0.000 C 
ATOM      4  C   UNL     1       0.558   3.857  19.917  0.00  0.00    +0.000 C 
ATOM      5  C   UNL     1       1.310   3.572  21.203  0.00  0.00    +0.000 C 
ATOM      6  C   UNL     1       2.720   3.108  21.086  0.00  0.00    +0.000 C 
ATOM      7  C   UNL     1       3.399   2.953  19.936  0.00  0.00    +0.000 C 
ENDROOT
BRANCH   2   8
ATOM      8  C   UNL     1       3.543   4.268  17.763  0.00  0.00    +0.000 A 
ATOM      9  C   UNL     1       3.558   5.613  18.164  0.00  0.00    +0.000 A 
ATOM     10  C   UNL     1       4.272   6.576  17.445  0.00  0.00    +0.000 A 
ATOM     11  C   UNL     1       4.986   6.217  16.304  0.00  0.00    +0.000 A 
ATOM     12  C   UNL     1       5.014   4.884  15.884  0.00  0.00    +0.000 A 
ATOM     13  C   UNL     1       4.312   3.920  16.632  0.00  0.00    +0.000 A 
BRANCH  12  14
ATOM     14  C   UNL     1       5.770   4.471  14.645  0.00  0.00    +0.000 C 
ATOM     15  F   UNL     1       4.972   4.221  13.569  0.00  0.00    +0.000 F 
ATOM     16  F   UNL     1       6.657   5.422  14.237  0.00  0.00    +0.000 F 
ATOM     17  F   UNL     1       6.506   3.341  14.835  0.00  0.00    +0.000 F 
ENDBRANCH  12  14
ENDBRANCH   2   8
BRANCH   7  18
ATOM     18  C   UNL     1       4.839   2.517  19.965  0.00  0.00    +0.000 C 
ATOM     19  O   UNL     1       5.216   1.419  20.348  0.00  0.00    +0.000 OA
BRANCH  18  20
ATOM     20  O   UNL     1       5.718   3.425  19.494  0.00  0.00    +0.000 OA
ATOM     21  H   UNL     1       6.311   3.813  20.154  0.00  0.00    +0.000 HD
ENDBRANCH  18  20
ENDBRANCH   7  18
TORSDOF 4
ENDMDL
MODEL 3
REMARK VINA RESULT:      -7.9      1.499      1.756
REMARK  Name = 
REMARK  5 active torsions:
REMARK  status: ('A' for Active; 'I' for Inactive)
REMARK    1  A    between atoms: C_1  and  C_2
REMARK    2  A    between atoms: C_2  and  C_3
REMARK    3  A    between atoms: C_7  and  C_8
REMARK    4  A    between atoms: C_17  and  C_18
REMARK    5  A    between atoms: C_18  and  O_20
REMARK                            x       y       z     vdW  Elec       q    Type
REMARK                         _______ _______ _______ _____ _____    ______ ____
ROOT
ATOM      1  C   UNL     1       2.950   1.814  17.770  0.00  0.00    +0.000 C 
ATOM      2  C   UNL     1       2.865   3.224  18.434  0.00  0.00    +0.000 C 
ATOM      3  C   UNL     1       1.343   3.603  18.388  0.00  0.00    +0.000 C 
ATOM      4  C   UNL     1       0.565   3.806  19.684  0.00  0.00    +0.000 C 
ATOM      5  C   UNL     1       1.283   3.626  21.009  0.00  0.00    +0.000 C 
ATOM      6  C   UNL     1       2.724   3.253  20.966  0.00  0.00    +0.000 C 
ATOM      7  C   UNL     1       3.457   3.096  19.849  0.00  0.00    +0.000 C 
ENDROOT
BRANCH   2   8
ATOM      8  C   UNL     1       3.601   4.326  17.627  0.00  0.00    +0.000 A 
ATOM      9  C   UNL     1       3.531   5.683  17.983  0.00  0.00    +0.000 A 
ATOM     10  C   UNL     1       4.208   6.660  17.248  0.00  0.00    +0.000 A 
ATOM     11  C   UNL     1       4.970   6.306  16.138  0.00  0.00    +0.000 A 
ATOM     12  C   UNL     1       5.083   4.963  15.764  0.00  0.00    +0.000 A 
ATOM     13  C   UNL     1       4.417   3.986  16.527  0.00  0.00    +0.000 A 
BRANCH  12  14
ATOM     14  C   UNL     1       5.892   4.554  14.557  0.00  0.00    +0.000 C 
ATOM     15  F   UNL     1       6.696   3.476  14.771  0.00  0.00    +0.000 F 
ATOM     16  F   UNL     1       5.107   4.228  13.492  0.00  0.00    +0.000 F 
ATOM     17  F   UNL     1       6.712   5.550  14.118  0.00  0.00    +0.000 F 
ENDBRANCH  12  14
ENDBRANCH   2   8
BRANCH   7  18
ATOM     18  C   UNL     1       4.920   2.760  19.951  0.00  0.00    +0.000 C 
ATOM     19  O   UNL     1       5.823   3.545  19.704  0.00  0.00    +0.000 OA
BRANCH  18  20
ATOM     20  O   UNL     1       5.188   1.509  20.379  0.00  0.00    +0.000 OA
ATOM     21  H   UNL     1       5.236   0.832  19.688  0.00  0.00    +0.000 HD
ENDBRANCH  18  20
ENDBRANCH   7  18
TORSDOF 4
ENDMDL
MODEL 4
REMARK VINA RESULT:      -7.9      2.102      2.705
REMARK  Name = 
REMARK  5 active torsions:
REMARK  status: ('A' for Active; 'I' for Inactive)
REMARK    1  A    between atoms: C_1  and  C_2
REMARK    2  A    between atoms: C_2  and  C_3
REMARK    3  A    between atoms: C_7  and  C_8
REMARK    4  A    between atoms: C_17  and  C_18
REMARK    5  A    between atoms: C_18  and  O_20
REMARK                            x       y       z     vdW  Elec       q    Type
REMARK                         _______ _______ _______ _____ _____    ______ ____
ROOT
ATOM      1  C   UNL     1       2.156   3.427  17.319  0.00  0.00    +0.000 C 
ATOM      2  C   UNL     1       3.090   4.115  18.364  0.00  0.00    +0.000 C 
ATOM      3  C   UNL     1       2.362   5.452  18.740  0.00  0.00    +0.000 C 
ATOM      4  C   UNL     1       1.886   5.689  20.170  0.00  0.00    +0.000 C 
ATOM      5  C   UNL     1       2.120   4.611  21.212  0.00  0.00    +0.000 C 
ATOM      6  C   UNL     1       2.806   3.366  20.770  0.00  0.00    +0.000 C 
ATOM      7  C   UNL     1       3.271   3.127  19.530  0.00  0.00    +0.000 C 
ENDROOT
BRANCH   2   8
ATOM      8  C   UNL     1       4.464   4.531  17.776  0.00  0.00    +0.000 A 
ATOM      9  C   UNL     1       4.712   4.543  16.395  0.00  0.00    +0.000 A 
ATOM     10  C   UNL     1       5.955   4.929  15.884  0.00  0.00    +0.000 A 
ATOM     11  C   UNL     1       6.982   5.309  16.744  0.00  0.00    +0.000 A 
ATOM     12  C   UNL     1       6.769   5.332  18.126  0.00  0.00    +0.000 A 
ATOM     13  C   UNL     1       5.505   4.966  18.626  0.00  0.00    +0.000 A 
BRANCH  12  14
ATOM     14  C   UNL     1       7.870   5.728  19.079  0.00  0.00    +0.000 C 
ATOM     15  F   UNL     1       8.430   6.939  18.802  0.00  0.00    +0.000 F 
ATOM     16  F   UNL     1       7.437   5.804  20.369  0.00  0.00    +0.000 F 
ATOM     17  F   UNL     1       8.898   4.835  19.089  0.00  0.00    +0.000 F 
ENDBRANCH  12  14
ENDBRANCH   2   8
BRANCH   7  18
ATOM     18  C   UNL     1       3.987   1.838  19.231  0.00  0.00    +0.000 C 
ATOM     19  O   UNL     1       3.612   1.022  18.402  0.00  0.00    +0.000 OA
BRANCH  18  20
ATOM     20  O   UNL     1       5.126   1.645  19.927  0.00  0.00    +0.000 OA
ATOM     21  H   UNL     1       5.607   2.449  20.171  0.00  0.00    +0.000 HD
ENDBRANCH  18  20
ENDBRANCH   7  18
TORSDOF 4
ENDMDL
MODEL 5
REMARK VINA RESULT:      -7.9      0.646      1.250
REMARK  Name = 
REMARK  5 active torsions:
REMARK  status: ('A' for Active; 'I' for Inactive)
REMARK    1  A    between atoms: C_1  and  C_2
REMARK    2  A    between atoms: C_2  and  C_3
REMARK    3  A    between atoms: C_7  and  C_8
REMARK    4  A    between atoms: C_17  and  C_18
REMARK    5  A    between atoms: C_18  and  O_20
REMARK                            x       y       z     vdW  Elec       q    Type
REMARK                         _______ _______ _______ _____ _____    ______ ____
ROOT
ATOM      1  C   UNL     1       2.480   2.385  17.668  0.00  0.00    +0.000 C 
ATOM      2  C   UNL     1       3.057   3.368  18.735  0.00  0.00    +0.000 C 
ATOM      3  C   UNL     1       1.934   4.442  18.946  0.00  0.00    +0.000 C 
ATOM      4  C   UNL     1       1.263   4.591  20.308  0.00  0.00    +0.000 C 
ATOM      5  C   UNL     1       1.692   3.681  21.443  0.00  0.00    +0.000 C 
ATOM      6  C   UNL     1       2.755   2.679  21.156  0.00  0.00    +0.000 C 
ATOM      7  C   UNL     1       3.396   2.534  19.983  0.00  0.00    +0.000 C 
ENDROOT
BRANCH   2   8
ATOM      8  C   UNL     1       4.303   4.148  18.239  0.00  0.00    +0.000 A 
ATOM      9  C   UNL     1       5.070   4.951  19.098  0.00  0.00    +0.000 A 
ATOM     10  C   UNL     1       6.194   5.640  18.634  0.00  0.00    +0.000 A 
ATOM     11  C   UNL     1       6.577   5.546  17.299  0.00  0.00    +0.000 A 
ATOM     12  C   UNL     1       5.852   4.740  16.416  0.00  0.00    +0.000 A 
ATOM     13  C   UNL     1       4.737   4.031  16.901  0.00  0.00    +0.000 A 
BRANCH  12  14
ATOM     14  C   UNL     1       6.239   4.631  14.961  0.00  0.00    +0.000 C 
ATOM     15  F   UNL     1       6.302   3.350  14.501  0.00  0.00    +0.000 F 
ATOM     16  F   UNL     1       5.365   5.279  14.142  0.00  0.00    +0.000 F 
ATOM     17  F   UNL     1       7.459   5.180  14.704  0.00  0.00    +0.000 F 
ENDBRANCH  12  14
ENDBRANCH   2   8
BRANCH   7  18
ATOM     18  C   UNL     1       4.486   1.505  19.843  0.00  0.00    +0.000 C 
ATOM     19  O   UNL     1       5.393   1.353  20.647  0.00  0.00    +0.000 OA
BRANCH  18  20
ATOM     20  O   UNL     1       4.381   0.709  18.760  0.00  0.00    +0.000 OA
ATOM     21  H   UNL     1       5.220   0.429  18.364  0.00  0.00    +0.000 HD
ENDBRANCH  18  20
ENDBRANCH   7  18
TORSDOF 4
ENDMDL
MODEL 6
REMARK VINA RESULT:      -7.8      0.757      1.090
REMARK  Name = 
REMARK  5 active torsions:
REMARK  status: ('A' for Active; 'I' for Inactive)
REMARK    1  A    between atoms: C_1  and  C_2
REMARK    2  A    between atoms: C_2  and  C_3
REMARK    3  A    between atoms: C_7  and  C_8
REMARK    4  A    between atoms: C_17  and  C_18
REMARK    5  A    between atoms: C_18  and  O_20
REMARK                            x       y       z     vdW  Elec       q    Type
REMARK                         _______ _______ _______ _____ _____    ______ ____
ROOT
ATOM      1  C   UNL     1       1.750   4.529  17.619  0.00  0.00    +0.000 C 
ATOM      2  C   UNL     1       2.813   4.344  18.746  0.00  0.00    +0.000 C 
ATOM      3  C   UNL     1       2.498   5.471  19.791  0.00  0.00    +0.000 C 
ATOM      4  C   UNL     1       2.070   5.104  21.208  0.00  0.00    +0.000 C 
ATOM      5  C   UNL     1       1.948   3.639  21.584  0.00  0.00    +0.000 C 
ATOM      6  C   UNL     1       2.253   2.632  20.531  0.00  0.00    +0.000 C 
ATOM      7  C   UNL     1       2.664   2.908  19.280  0.00  0.00    +0.000 C 
ENDROOT
BRANCH   2   8
ATOM      8  C   UNL     1       4.266   4.605  18.268  0.00  0.00    +0.000 A 
ATOM      9  C   UNL     1       5.295   4.946  19.159  0.00  0.00    +0.000 A 
ATOM     10  C   UNL     1       6.600   5.169  18.710  0.00  0.00    +0.000 A 
ATOM     11  C   UNL     1       6.907   5.059  17.357  0.00  0.00    +0.000 A 
ATOM     12  C   UNL     1       5.915   4.698  16.439  0.00  0.00    +0.000 A 
ATOM     13  C   UNL     1       4.611   4.452  16.907  0.00  0.00    +0.000 A 
BRANCH  12  14
ATOM     14  C   UNL     1       6.220   4.584  14.965  0.00  0.00    +0.000 C 
ATOM     15  F   UNL     1       7.420   5.119  14.606  0.00  0.00    +0.000 F 
ATOM     16  F   UNL     1       6.247   3.290  14.540  0.00  0.00    +0.000 F 
ATOM     17  F   UNL     1       5.288   5.206  14.190  0.00  0.00    +0.000 F 
ENDBRANCH  12  14
ENDBRANCH   2   8
BRANCH   7  18
ATOM     18  C   UNL     1       2.980   1.788  18.327  0.00  0.00    +0.000 C 
ATOM     19  O   UNL     1       3.934   1.033  18.448  0.00  0.00    +0.000 OA
BRANCH  18  20
ATOM     20  O   UNL     1       2.101   1.635  17.316  0.00  0.00    +0.000 OA
ATOM     21  H   UNL     1       1.314   2.199  17.359  0.00  0.00    +0.000 HD
ENDBRANCH  18  20
ENDBRANCH   7  18
TORSDOF 4
ENDMDL
MODEL 7
REMARK VINA RESULT:      -7.7      1.843      2.431
REMARK  Name = 
REMARK  5 active torsions:
REMARK  status: ('A' for Active; 'I' for Inactive)
REMARK    1  A    between atoms: C_1  and  C_2
REMARK    2  A    between atoms: C_2  and  C_3
REMARK    3  A    between atoms: C_7  and  C_8
REMARK    4  A    between atoms: C_17  and  C_18
REMARK    5  A    between atoms: C_18  and  O_20
REMARK                            x       y       z     vdW  Elec       q    Type
REMARK                         _______ _______ _______ _____ _____    ______ ____
ROOT
ATOM      1  C   UNL     1       2.094   3.592  17.173  0.00  0.00    +0.000 C 
ATOM      2  C   UNL     1       3.104   4.381  18.065  0.00  0.00    +0.000 C 
ATOM      3  C   UNL     1       2.452   5.794  18.264  0.00  0.00    +0.000 C 
ATOM      4  C   UNL     1       2.053   6.264  19.659  0.00  0.00    +0.000 C 
ATOM      5  C   UNL     1       2.288   5.342  20.841  0.00  0.00    +0.000 C 
ATOM      6  C   UNL     1       2.900   4.013  20.565  0.00  0.00    +0.000 C 
ATOM      7  C   UNL     1       3.296   3.570  19.359  0.00  0.00    +0.000 C 
ENDROOT
BRANCH   2   8
ATOM      8  C   UNL     1       4.466   4.637  17.368  0.00  0.00    +0.000 A 
ATOM      9  C   UNL     1       4.937   3.820  16.328  0.00  0.00    +0.000 A 
ATOM     10  C   UNL     1       6.164   4.071  15.707  0.00  0.00    +0.000 A 
ATOM     11  C   UNL     1       6.952   5.144  16.113  0.00  0.00    +0.000 A 
ATOM     12  C   UNL     1       6.509   5.995  17.131  0.00  0.00    +0.000 A 
ATOM     13  C   UNL     1       5.260   5.746  17.731  0.00  0.00    +0.000 A 
BRANCH  12  14
ATOM     14  C   UNL     1       7.350   7.158  17.598  0.00  0.00    +0.000 C 
ATOM     15  F   UNL     1       8.077   6.897  18.721  0.00  0.00    +0.000 F 
ATOM     16  F   UNL     1       8.250   7.558  16.657  0.00  0.00    +0.000 F 
ATOM     17  F   UNL     1       6.603   8.260  17.884  0.00  0.00    +0.000 F 
ENDBRANCH  12  14
ENDBRANCH   2   8
BRANCH   7  18
ATOM     18  C   UNL     1       3.941   2.217  19.228  0.00  0.00    +0.000 C 
ATOM     19  O   UNL     1       3.459   1.284  18.603  0.00  0.00    +0.000 OA
BRANCH  18  20
ATOM     20  O   UNL     1       5.142   2.099  19.832  0.00  0.00    +0.000 OA
ATOM     21  H   UNL     1       5.377   1.205  20.121  0.00  0.00    +0.000 HD
ENDBRANCH  18  20
ENDBRANCH   7  18
TORSDOF 4
ENDMDL
MODEL 8
REMARK VINA RESULT:      -7.7      3.093      5.429
REMARK  Name = 
REMARK  5 active torsions:
REMARK  status: ('A' for Active; 'I' for Inactive)
REMARK    1  A    between atoms: C_1  and  C_2
REMARK    2  A    between atoms: C_2  and  C_3
REMARK    3  A    between atoms: C_7  and  C_8
REMARK    4  A    between atoms: C_17  and  C_18
REMARK    5  A    between atoms: C_18  and  O_20
REMARK                            x       y       z     vdW  Elec       q    Type
REMARK                         _______ _______ _______ _____ _____    ______ ____
ROOT
ATOM      1  C   UNL     1       5.627   7.565  17.104  0.00  0.00    +0.000 C 
ATOM      2  C   UNL     1       5.340   6.031  17.060  0.00  0.00    +0.000 C 
ATOM      3  C   UNL     1       4.938   5.736  15.573  0.00  0.00    +0.000 C 
ATOM      4  C   UNL     1       5.795   4.809  14.717  0.00  0.00    +0.000 C 
ATOM      5  C   UNL     1       7.041   4.191  15.323  0.00  0.00    +0.000 C 
ATOM      6  C   UNL     1       7.360   4.532  16.736  0.00  0.00    +0.000 C 
ATOM      7  C   UNL     1       6.617   5.317  17.538  0.00  0.00    +0.000 C 
ENDROOT
BRANCH   2   8
ATOM      8  C   UNL     1       4.120   5.611  17.921  0.00  0.00    +0.000 A 
ATOM      9  C   UNL     1       3.502   6.495  18.819  0.00  0.00    +0.000 A 
ATOM     10  C   UNL     1       2.398   6.101  19.581  0.00  0.00    +0.000 A 
ATOM     11  C   UNL     1       1.887   4.811  19.465  0.00  0.00    +0.000 A 
ATOM     12  C   UNL     1       2.460   3.907  18.565  0.00  0.00    +0.000 A 
ATOM     13  C   UNL     1       3.555   4.324  17.786  0.00  0.00    +0.000 A 
BRANCH  12  14
ATOM     14  C   UNL     1       1.932   2.500  18.430  0.00  0.00    +0.000 C 
ATOM     15  F   UNL     1       0.573   2.416  18.439  0.00  0.00    +0.000 F 
ATOM     16  F   UNL     1       2.334   1.904  17.272  0.00  0.00    +0.000 F 
ATOM     17  F   UNL     1       2.363   1.683  19.432  0.00  0.00    +0.000 F 
ENDBRANCH  12  14
ENDBRANCH   2   8
BRANCH   7  18
ATOM     18  C   UNL     1       7.035   5.544  18.965  0.00  0.00    +0.000 C 
ATOM     19  O   UNL     1       6.477   5.044  19.931  0.00  0.00    +0.000 OA
BRANCH  18  20
ATOM     20  O   UNL     1       8.119   6.330  19.122  0.00  0.00    +0.000 OA
ATOM     21  H   UNL     1       8.348   6.548  20.038  0.00  0.00    +0.000 HD
ENDBRANCH  18  20
ENDBRANCH   7  18
TORSDOF 4
ENDMDL
MODEL 9
REMARK VINA RESULT:      -7.7      0.808      1.261
REMARK  Name = 
REMARK  5 active torsions:
REMARK  status: ('A' for Active; 'I' for Inactive)
REMARK    1  A    between atoms: C_1  and  C_2
REMARK    2  A    between atoms: C_2  and  C_3
REMARK    3  A    between atoms: C_7  and  C_8
REMARK    4  A    between atoms: C_17  and  C_18
REMARK    5  A    between atoms: C_18  and  O_20
REMARK                            x       y       z     vdW  Elec       q    Type
REMARK                         _______ _______ _______ _____ _____    ______ ____
ROOT
ATOM      1  C   UNL     1       1.770   4.751  17.693  0.00  0.00    +0.000 C 
ATOM      2  C   UNL     1       2.839   4.445  18.788  0.00  0.00    +0.000 C 
ATOM      3  C   UNL     1       2.552   5.476  19.935  0.00  0.00    +0.000 C 
ATOM      4  C   UNL     1       2.131   4.987  21.317  0.00  0.00    +0.000 C 
ATOM      5  C   UNL     1       1.986   3.495  21.558  0.00  0.00    +0.000 C 
ATOM      6  C   UNL     1       2.264   2.585  20.413  0.00  0.00    +0.000 C 
ATOM      7  C   UNL     1       2.669   2.969  19.189  0.00  0.00    +0.000 C 
ENDROOT
BRANCH   2   8
ATOM      8  C   UNL     1       4.292   4.724  18.321  0.00  0.00    +0.000 A 
ATOM      9  C   UNL     1       5.303   5.110  19.215  0.00  0.00    +0.000 A 
ATOM     10  C   UNL     1       6.608   5.349  18.776  0.00  0.00    +0.000 A 
ATOM     11  C   UNL     1       6.934   5.212  17.430  0.00  0.00    +0.000 A 
ATOM     12  C   UNL     1       5.961   4.808  16.509  0.00  0.00    +0.000 A 
ATOM     13  C   UNL     1       4.657   4.545  16.969  0.00  0.00    +0.000 A 
BRANCH  12  14
ATOM     14  C   UNL     1       6.286   4.663  15.043  0.00  0.00    +0.000 C 
ATOM     15  F   UNL     1       5.407   5.296  14.217  0.00  0.00    +0.000 F 
ATOM     16  F   UNL     1       7.515   5.163  14.732  0.00  0.00    +0.000 F 
ATOM     17  F   UNL     1       6.307   3.362  14.639  0.00  0.00    +0.000 F 
ENDBRANCH  12  14
ENDBRANCH   2   8
BRANCH   7  18
ATOM     18  C   UNL     1       2.957   1.936  18.133  0.00  0.00    +0.000 C 
ATOM     19  O   UNL     1       2.309   1.807  17.105  0.00  0.00    +0.000 OA
BRANCH  18  20
ATOM     20  O   UNL     1       4.031   1.157  18.377  0.00  0.00    +0.000 OA
ATOM     21  H   UNL     1       4.820   1.358  17.853  0.00  0.00    +0.000 HD
ENDBRANCH  18  20
ENDBRANCH   7  18
TORSDOF 4
ENDMDL
