MODEL 1
REMARK VINA RESULT:      -7.6      0.000      0.000
REMARK  Name = 
REMARK  6 active torsions:
REMARK  status: ('A' for Active; 'I' for Inactive)
REMARK    1  A    between atoms: C_2  and  C_3
REMARK    2  A    between atoms: C_7  and  C_8
REMARK    3  A    between atoms: C_8  and  N_9
REMARK    4  A    between atoms: N_9  and  C_10
REMARK    5  A    between atoms: C_10  and  C_11
REMARK    6  A    between atoms: C_11  and  C_12
REMARK                            x       y       z     vdW  Elec       q    Type
REMARK                         _______ _______ _______ _____ _____    ______ ____
ROOT
ATOM      1  C   UNL     1       7.357   7.480  17.372  0.00  0.00    +0.000 C 
ENDROOT
BRANCH   1   2
ATOM      2  N   UNL     1       8.142   8.349  18.258  0.00  0.00    +0.000 NA
ATOM      3  H   UNL     1       7.718   8.363  19.186  0.00  0.00    +0.000 HD
BRANCH   2   4
ATOM      4  C   UNL     1       8.173   9.719  17.746  0.00  0.00    +0.000 C 
BRANCH   4   9
ATOM      5  C   UNL     1      10.870  12.303  18.551  0.00  0.00    +0.000 A 
ATOM      6  C   UNL     1      11.023  12.126  19.929  0.00  0.00    +0.000 A 
ATOM      7  C   UNL     1      10.257  11.172  20.601  0.00  0.00    +0.000 A 
ATOM      8  C   UNL     1       9.340  10.389  19.895  0.00  0.00    +0.000 A 
ATOM      9  C   UNL     1       9.171  10.558  18.513  0.00  0.00    +0.000 A 
ATOM     10  C   UNL     1       9.941  11.527  17.849  0.00  0.00    +0.000 A 
BRANCH   5  12
ATOM     11  N   UNL     1      12.324  14.049  17.297  0.00  0.00    +0.000 NA
ATOM     12  C   UNL     1      11.675  13.262  17.854  0.00  0.00    +0.000 C 
ENDBRANCH   5  12
ENDBRANCH   4   9
ENDBRANCH   2   4
ENDBRANCH   1   2
BRANCH   1  13
ATOM     13  C   UNL     1       7.614   6.003  17.692  0.00  0.00    +0.000 C 
BRANCH  13  14
ATOM     14  C   UNL     1       6.747   5.557  18.855  0.00  0.00    +0.000 C 
ATOM     15  O   UNL     1       7.188   5.562  20.006  0.00  0.00    +0.000 OA
ATOM     16  N   UNL     1       5.442   5.173  18.579  0.00  0.00    +0.000 N 
ATOM     17  C   UNL     1       4.836   5.068  17.238  0.00  0.00    +0.000 C 
ATOM     18  C   UNL     1       4.089   3.731  17.053  0.00  0.00    +0.000 C 
ATOM     19  C   UNL     1       3.274   3.444  18.274  0.00  0.00    +0.000 A 
ATOM     20  S   UNL     1       2.024   2.296  18.307  0.00  0.00    +0.000 S 
ATOM     21  C   UNL     1       1.708   2.613  19.961  0.00  0.00    +0.000 A 
ATOM     22  C   UNL     1       2.556   3.572  20.475  0.00  0.00    +0.000 A 
ATOM     23  C   UNL     1       3.476   4.056  19.496  0.00  0.00    +0.000 A 
ATOM     24  C   UNL     1       4.519   5.103  19.719  0.00  0.00    +0.000 C 
ENDBRANCH  13  14
ENDBRANCH   1  13
TORSDOF 6
ENDMDL
MODEL 2
REMARK VINA RESULT:      -7.2      1.572      2.125
REMARK  Name = 
REMARK  6 active torsions:
REMARK  status: ('A' for Active; 'I' for Inactive)
REMARK    1  A    between atoms: C_2  and  C_3
REMARK    2  A    between atoms: C_7  and  C_8
REMARK    3  A    between atoms: C_8  and  N_9
REMARK    4  A    between atoms: N_9  and  C_10
REMARK    5  A    between atoms: C_10  and  C_11
REMARK    6  A    between atoms: C_11  and  C_12
REMARK                            x       y       z     vdW  Elec       q    Type
REMARK                         _______ _______ _______ _____ _____    ______ ____
ROOT
ATOM      1  C   UNL     1       7.419   7.922  17.666  0.00  0.00    +0.000 C 
ENDROOT
BRANCH   1   2
ATOM      2  N   UNL     1       8.459   8.622  18.430  0.00  0.00    +0.000 NA
ATOM      3  H   UNL     1       8.149   8.748  19.393  0.00  0.00    +0.000 HD
BRANCH   2   4
ATOM      4  C   UNL     1       8.724   9.942  17.856  0.00  0.00    +0.000 C 
BRANCH   4   9
ATOM      5  C   UNL     1       9.732  11.900  20.979  0.00  0.00    +0.000 A 
ATOM      6  C   UNL     1      10.995  12.374  20.615  0.00  0.00    +0.000 A 
ATOM      7  C   UNL     1      11.524  12.065  19.360  0.00  0.00    +0.000 A 
ATOM      8  C   UNL     1      10.787  11.284  18.465  0.00  0.00    +0.000 A 
ATOM      9  C   UNL     1       9.521  10.796  18.818  0.00  0.00    +0.000 A 
ATOM     10  C   UNL     1       9.003  11.106  20.086  0.00  0.00    +0.000 A 
BRANCH   5  12
ATOM     11  N   UNL     1       8.713  12.506  23.288  0.00  0.00    +0.000 NA
ATOM     12  C   UNL     1       9.175  12.239  22.255  0.00  0.00    +0.000 C 
ENDBRANCH   5  12
ENDBRANCH   4   9
ENDBRANCH   2   4
ENDBRANCH   1   2
BRANCH   1  13
ATOM     13  C   UNL     1       7.659   6.409  17.682  0.00  0.00    +0.000 C 
BRANCH  13  14
ATOM     14  C   UNL     1       6.840   5.756  18.780  0.00  0.00    +0.000 C 
ATOM     15  O   UNL     1       7.291   5.648  19.922  0.00  0.00    +0.000 OA
ATOM     16  N   UNL     1       5.563   5.316  18.459  0.00  0.00    +0.000 N 
ATOM     17  C   UNL     1       4.951   5.338  17.117  0.00  0.00    +0.000 C 
ATOM     18  C   UNL     1       4.302   3.983  16.765  0.00  0.00    +0.000 C 
ATOM     19  C   UNL     1       3.523   3.485  17.941  0.00  0.00    +0.000 A 
ATOM     20  S   UNL     1       2.359   2.254  17.830  0.00  0.00    +0.000 S 
ATOM     21  C   UNL     1       2.039   2.335  19.511  0.00  0.00    +0.000 A 
ATOM     22  C   UNL     1       2.820   3.282  20.141  0.00  0.00    +0.000 A 
ATOM     23  C   UNL     1       3.693   3.951  19.230  0.00  0.00    +0.000 A 
ATOM     24  C   UNL     1       4.660   5.035  19.582  0.00  0.00    +0.000 C 
ENDBRANCH  13  14
ENDBRANCH   1  13
TORSDOF 6
ENDMDL
MODEL 3
REMARK VINA RESULT:      -7.2      6.869      9.397
REMARK  Name = 
REMARK  6 active torsions:
REMARK  status: ('A' for Active; 'I' for Inactive)
REMARK    1  A    between atoms: C_2  and  C_3
REMARK    2  A    between atoms: C_7  and  C_8
REMARK    3  A    between atoms: C_8  and  N_9
REMARK    4  A    between atoms: N_9  and  C_10
REMARK    5  A    between atoms: C_10  and  C_11
REMARK    6  A    between atoms: C_11  and  C_12
REMARK                            x       y       z     vdW  Elec       q    Type
REMARK                         _______ _______ _______ _____ _____    ______ ____
ROOT
ATOM      1  C   UNL     1       1.449  10.470  19.145  0.00  0.00    +0.000 C 
ENDROOT
BRANCH   1   2
ATOM      2  N   UNL     1       0.279  10.932  18.387  0.00  0.00    +0.000 NA
ATOM      3  H   UNL     1       0.256  11.952  18.383  0.00  0.00    +0.000 HD
BRANCH   2   4
ATOM      4  C   UNL     1      -0.959  10.445  18.997  0.00  0.00    +0.000 C 
BRANCH   4   9
ATOM      5  C   UNL     1      -3.238  10.596  15.934  0.00  0.00    +0.000 A 
ATOM      6  C   UNL     1      -4.352  11.267  16.448  0.00  0.00    +0.000 A 
ATOM      7  C   UNL     1      -4.368  11.674  17.783  0.00  0.00    +0.000 A 
ATOM      8  C   UNL     1      -3.269  11.414  18.606  0.00  0.00    +0.000 A 
ATOM      9  C   UNL     1      -2.147  10.738  18.107  0.00  0.00    +0.000 A 
ATOM     10  C   UNL     1      -2.145  10.325  16.764  0.00  0.00    +0.000 A 
BRANCH   5  12
ATOM     11  N   UNL     1      -3.180   9.870  13.443  0.00  0.00    +0.000 NA
ATOM     12  C   UNL     1      -3.207  10.202  14.556  0.00  0.00    +0.000 C 
ENDBRANCH   5  12
ENDBRANCH   4   9
ENDBRANCH   2   4
ENDBRANCH   1   2
BRANCH   1  13
ATOM     13  C   UNL     1       1.310   8.987  19.508  0.00  0.00    +0.000 C 
BRANCH  13  14
ATOM     14  C   UNL     1       2.050   8.126  18.501  0.00  0.00    +0.000 C 
ATOM     15  O   UNL     1       2.287   8.546  17.367  0.00  0.00    +0.000 OA
ATOM     16  N   UNL     1       2.473   6.870  18.913  0.00  0.00    +0.000 N 
ATOM     17  C   UNL     1       2.190   6.246  20.220  0.00  0.00    +0.000 C 
ATOM     18  C   UNL     1       1.681   4.798  20.061  0.00  0.00    +0.000 C 
ATOM     19  C   UNL     1       2.520   4.083  19.051  0.00  0.00    +0.000 A 
ATOM     20  S   UNL     1       2.539   2.393  18.887  0.00  0.00    +0.000 S 
ATOM     21  C   UNL     1       3.662   2.481  17.596  0.00  0.00    +0.000 A 
ATOM     22  C   UNL     1       4.004   3.783  17.294  0.00  0.00    +0.000 A 
ATOM     23  C   UNL     1       3.334   4.723  18.136  0.00  0.00    +0.000 A 
ATOM     24  C   UNL     1       3.487   6.209  18.082  0.00  0.00    +0.000 C 
ENDBRANCH  13  14
ENDBRANCH   1  13
TORSDOF 6
ENDMDL
MODEL 4
REMARK VINA RESULT:      -7.1      1.352      1.805
REMARK  Name = 
REMARK  6 active torsions:
REMARK  status: ('A' for Active; 'I' for Inactive)
REMARK    1  A    between atoms: C_2  and  C_3
REMARK    2  A    between atoms: C_7  and  C_8
REMARK    3  A    between atoms: C_8  and  N_9
REMARK    4  A    between atoms: N_9  and  C_10
REMARK    5  A    between atoms: C_10  and  C_11
REMARK    6  A    between atoms: C_11  and  C_12
REMARK                            x       y       z     vdW  Elec       q    Type
REMARK                         _______ _______ _______ _____ _____    ______ ____
ROOT
ATOM      1  C   UNL     1       7.036   8.237  17.470  0.00  0.00    +0.000 C 
ENDROOT
BRANCH   1   2
ATOM      2  N   UNL     1       8.125   9.216  17.582  0.00  0.00    +0.000 NA
ATOM      3  H   UNL     1       8.798   9.065  16.831  0.00  0.00    +0.000 HD
BRANCH   2   4
ATOM      4  C   UNL     1       8.822   9.071  18.861  0.00  0.00    +0.000 C 
BRANCH   4   9
ATOM      5  C   UNL     1      10.823  12.322  18.696  0.00  0.00    +0.000 A 
ATOM      6  C   UNL     1      10.693  12.796  20.004  0.00  0.00    +0.000 A 
ATOM      7  C   UNL     1       9.961  12.066  20.943  0.00  0.00    +0.000 A 
ATOM      8  C   UNL     1       9.361  10.859  20.576  0.00  0.00    +0.000 A 
ATOM      9  C   UNL     1       9.478  10.373  19.266  0.00  0.00    +0.000 A 
ATOM     10  C   UNL     1      10.209  11.119  18.327  0.00  0.00    +0.000 A 
BRANCH   5  12
ATOM     11  N   UNL     1      12.226  13.638  16.953  0.00  0.00    +0.000 NA
ATOM     12  C   UNL     1      11.597  13.054  17.737  0.00  0.00    +0.000 C 
ENDBRANCH   5  12
ENDBRANCH   4   9
ENDBRANCH   2   4
ENDBRANCH   1   2
BRANCH   1  13
ATOM     13  C   UNL     1       7.560   6.814  17.687  0.00  0.00    +0.000 C 
BRANCH  13  14
ATOM     14  C   UNL     1       6.646   5.806  17.016  0.00  0.00    +0.000 C 
ATOM     15  O   UNL     1       6.694   5.627  15.797  0.00  0.00    +0.000 OA
ATOM     16  N   UNL     1       5.781   5.080  17.823  0.00  0.00    +0.000 N 
ATOM     17  C   UNL     1       5.597   5.258  19.276  0.00  0.00    +0.000 C 
ATOM     18  C   UNL     1       4.104   5.339  19.655  0.00  0.00    +0.000 C 
ATOM     19  C   UNL     1       3.347   4.276  18.924  0.00  0.00    +0.000 A 
ATOM     20  S   UNL     1       1.782   3.783  19.360  0.00  0.00    +0.000 S 
ATOM     21  C   UNL     1       1.725   2.652  18.074  0.00  0.00    +0.000 A 
ATOM     22  C   UNL     1       2.882   2.664  17.322  0.00  0.00    +0.000 A 
ATOM     23  C   UNL     1       3.829   3.616  17.810  0.00  0.00    +0.000 A 
ATOM     24  C   UNL     1       5.183   3.875  17.233  0.00  0.00    +0.000 C 
ENDBRANCH  13  14
ENDBRANCH   1  13
TORSDOF 6
ENDMDL
MODEL 5
REMARK VINA RESULT:      -7.1      5.228      6.987
REMARK  Name = 
REMARK  6 active torsions:
REMARK  status: ('A' for Active; 'I' for Inactive)
REMARK    1  A    between atoms: C_2  and  C_3
REMARK    2  A    between atoms: C_7  and  C_8
REMARK    3  A    between atoms: C_8  and  N_9
REMARK    4  A    between atoms: N_9  and  C_10
REMARK    5  A    between atoms: C_10  and  C_11
REMARK    6  A    between atoms: C_11  and  C_12
REMARK                            x       y       z     vdW  Elec       q    Type
REMARK                         _______ _______ _______ _____ _____    ______ ____
ROOT
ATOM      1  C   UNL     1       3.441   2.826  19.648  0.00  0.00    +0.000 C 
ENDROOT
BRANCH   1   2
ATOM      2  N   UNL     1       4.809   2.851  19.115  0.00  0.00    +0.000 NA
ATOM      3  H   UNL     1       5.347   2.083  19.519  0.00  0.00    +0.000 HD
BRANCH   2   4
ATOM      4  C   UNL     1       5.475   4.108  19.456  0.00  0.00    +0.000 C 
BRANCH   4   9
ATOM      5  C   UNL     1       6.342   4.812  15.803  0.00  0.00    +0.000 A 
ATOM      6  C   UNL     1       7.086   5.990  15.914  0.00  0.00    +0.000 A 
ATOM      7  C   UNL     1       7.312   6.558  17.169  0.00  0.00    +0.000 A 
ATOM      8  C   UNL     1       6.797   5.947  18.316  0.00  0.00    +0.000 A 
ATOM      9  C   UNL     1       6.043   4.768  18.219  0.00  0.00    +0.000 A 
ATOM     10  C   UNL     1       5.815   4.210  16.950  0.00  0.00    +0.000 A 
BRANCH   5  12
ATOM     11  N   UNL     1       5.976   3.727  13.473  0.00  0.00    +0.000 NA
ATOM     12  C   UNL     1       6.133   4.211  14.518  0.00  0.00    +0.000 C 
ENDBRANCH   5  12
ENDBRANCH   4   9
ENDBRANCH   2   4
ENDBRANCH   1   2
BRANCH   1  13
ATOM     13  C   UNL     1       2.526   3.751  18.839  0.00  0.00    +0.000 C 
BRANCH  13  14
ATOM     14  C   UNL     1       1.816   4.728  19.759  0.00  0.00    +0.000 C 
ATOM     15  O   UNL     1       1.022   4.326  20.611  0.00  0.00    +0.000 OA
ATOM     16  N   UNL     1       2.116   6.076  19.624  0.00  0.00    +0.000 N 
ATOM     17  C   UNL     1       2.999   6.670  18.602  0.00  0.00    +0.000 C 
ATOM     18  C   UNL     1       2.342   7.889  17.921  0.00  0.00    +0.000 C 
ATOM     19  C   UNL     1       1.703   8.754  18.960  0.00  0.00    +0.000 A 
ATOM     20  S   UNL     1       1.233  10.360  18.669  0.00  0.00    +0.000 S 
ATOM     21  C   UNL     1       0.639  10.528  20.268  0.00  0.00    +0.000 A 
ATOM     22  C   UNL     1       0.790   9.369  21.001  0.00  0.00    +0.000 A 
ATOM     23  C   UNL     1       1.405   8.328  20.239  0.00  0.00    +0.000 A 
ATOM     24  C   UNL     1       1.722   6.954  20.734  0.00  0.00    +0.000 C 
ENDBRANCH  13  14
ENDBRANCH   1  13
TORSDOF 6
ENDMDL
MODEL 6
REMARK VINA RESULT:      -7.1      7.182      9.728
REMARK  Name = 
REMARK  6 active torsions:
REMARK  status: ('A' for Active; 'I' for Inactive)
REMARK    1  A    between atoms: C_2  and  C_3
REMARK    2  A    between atoms: C_7  and  C_8
REMARK    3  A    between atoms: C_8  and  N_9
REMARK    4  A    between atoms: N_9  and  C_10
REMARK    5  A    between atoms: C_10  and  C_11
REMARK    6  A    between atoms: C_11  and  C_12
REMARK                            x       y       z     vdW  Elec       q    Type
REMARK                         _______ _______ _______ _____ _____    ______ ____
ROOT
ATOM      1  C   UNL     1      -0.017   9.337  20.453  0.00  0.00    +0.000 C 
ENDROOT
BRANCH   1   2
ATOM      2  N   UNL     1       0.013  10.393  19.434  0.00  0.00    +0.000 NA
ATOM      3  H   UNL     1       0.835  10.982  19.575  0.00  0.00    +0.000 HD
BRANCH   2   4
ATOM      4  C   UNL     1      -1.178  11.238  19.526  0.00  0.00    +0.000 C 
BRANCH   4   9
ATOM      5  C   UNL     1      -4.187  11.452  17.181  0.00  0.00    +0.000 A 
ATOM      6  C   UNL     1      -3.795  10.599  16.145  0.00  0.00    +0.000 A 
ATOM      7  C   UNL     1      -2.559   9.952  16.203  0.00  0.00    +0.000 A 
ATOM      8  C   UNL     1      -1.715  10.153  17.298  0.00  0.00    +0.000 A 
ATOM      9  C   UNL     1      -2.093  11.009  18.343  0.00  0.00    +0.000 A 
ATOM     10  C   UNL     1      -3.335  11.662  18.271  0.00  0.00    +0.000 A 
BRANCH   5  12
ATOM     11  N   UNL     1      -6.501  12.624  17.095  0.00  0.00    +0.000 NA
ATOM     12  C   UNL     1      -5.468  12.095  17.139  0.00  0.00    +0.000 C 
ENDBRANCH   5  12
ENDBRANCH   4   9
ENDBRANCH   2   4
ENDBRANCH   1   2
BRANCH   1  13
ATOM     13  C   UNL     1       1.389   8.777  20.697  0.00  0.00    +0.000 C 
BRANCH  13  14
ATOM     14  C   UNL     1       1.874   8.019  19.475  0.00  0.00    +0.000 C 
ATOM     15  O   UNL     1       2.039   8.597  18.400  0.00  0.00    +0.000 OA
ATOM     16  N   UNL     1       2.150   6.666  19.623  0.00  0.00    +0.000 N 
ATOM     17  C   UNL     1       1.928   5.864  20.841  0.00  0.00    +0.000 C 
ATOM     18  C   UNL     1       1.196   4.543  20.528  0.00  0.00    +0.000 C 
ATOM     19  C   UNL     1       1.800   3.916  19.312  0.00  0.00    +0.000 A 
ATOM     20  S   UNL     1       1.549   2.292  18.883  0.00  0.00    +0.000 S 
ATOM     21  C   UNL     1       2.519   2.461  17.480  0.00  0.00    +0.000 A 
ATOM     22  C   UNL     1       3.012   3.742  17.343  0.00  0.00    +0.000 A 
ATOM     23  C   UNL     1       2.590   4.597  18.406  0.00  0.00    +0.000 A 
ATOM     24  C   UNL     1       2.954   6.038  18.566  0.00  0.00    +0.000 C 
ENDBRANCH  13  14
ENDBRANCH   1  13
TORSDOF 6
ENDMDL
MODEL 7
REMARK VINA RESULT:      -7.0      5.411      7.681
REMARK  Name = 
REMARK  6 active torsions:
REMARK  status: ('A' for Active; 'I' for Inactive)
REMARK    1  A    between atoms: C_2  and  C_3
REMARK    2  A    between atoms: C_7  and  C_8
REMARK    3  A    between atoms: C_8  and  N_9
REMARK    4  A    between atoms: N_9  and  C_10
REMARK    5  A    between atoms: C_10  and  C_11
REMARK    6  A    between atoms: C_11  and  C_12
REMARK                            x       y       z     vdW  Elec       q    Type
REMARK                         _______ _______ _______ _____ _____    ______ ____
ROOT
ATOM      1  C   UNL     1       1.872   5.163  17.986  0.00  0.00    +0.000 C 
ENDROOT
BRANCH   1   2
ATOM      2  N   UNL     1       2.702   3.996  18.311  0.00  0.00    +0.000 NA
ATOM      3  H   UNL     1       3.473   4.282  18.914  0.00  0.00    +0.000 HD
BRANCH   2   4
ATOM      4  C   UNL     1       3.262   3.404  17.096  0.00  0.00    +0.000 C 
BRANCH   4   9
ATOM      5  C   UNL     1       6.780   4.755  17.727  0.00  0.00    +0.000 A 
ATOM      6  C   UNL     1       7.293   4.814  16.428  0.00  0.00    +0.000 A 
ATOM      7  C   UNL     1       6.505   4.419  15.346  0.00  0.00    +0.000 A 
ATOM      8  C   UNL     1       5.199   3.970  15.560  0.00  0.00    +0.000 A 
ATOM      9  C   UNL     1       4.672   3.900  16.857  0.00  0.00    +0.000 A 
ATOM     10  C   UNL     1       5.477   4.291  17.940  0.00  0.00    +0.000 A 
BRANCH   5  12
ATOM     11  N   UNL     1       8.215   5.532  19.745  0.00  0.00    +0.000 NA
ATOM     12  C   UNL     1       7.578   5.186  18.837  0.00  0.00    +0.000 C 
ENDBRANCH   5  12
ENDBRANCH   4   9
ENDBRANCH   2   4
ENDBRANCH   1   2
BRANCH   1  13
ATOM     13  C   UNL     1       2.496   6.445  18.547  0.00  0.00    +0.000 C 
BRANCH  13  14
ATOM     14  C   UNL     1       1.935   6.747  19.925  0.00  0.00    +0.000 C 
ATOM     15  O   UNL     1       1.816   5.853  20.765  0.00  0.00    +0.000 OA
ATOM     16  N   UNL     1       1.590   8.061  20.209  0.00  0.00    +0.000 N 
ATOM     17  C   UNL     1       1.631   9.191  19.261  0.00  0.00    +0.000 C 
ATOM     18  C   UNL     1       0.325  10.012  19.297  0.00  0.00    +0.000 C 
ATOM     19  C   UNL     1      -0.083  10.234  20.718  0.00  0.00    +0.000 A 
ATOM     20  S   UNL     1      -1.221  11.406  21.185  0.00  0.00    +0.000 S 
ATOM     21  C   UNL     1      -1.077  10.960  22.834  0.00  0.00    +0.000 A 
ATOM     22  C   UNL     1      -0.182   9.926  23.014  0.00  0.00    +0.000 A 
ATOM     23  C   UNL     1       0.396   9.494  21.782  0.00  0.00    +0.000 A 
ATOM     24  C   UNL     1       1.407   8.404  21.624  0.00  0.00    +0.000 C 
ENDBRANCH  13  14
ENDBRANCH   1  13
TORSDOF 6
ENDMDL
MODEL 8
REMARK VINA RESULT:      -6.9      7.290      9.849
REMARK  Name = 
REMARK  6 active torsions:
REMARK  status: ('A' for Active; 'I' for Inactive)
REMARK    1  A    between atoms: C_2  and  C_3
REMARK    2  A    between atoms: C_7  and  C_8
REMARK    3  A    between atoms: C_8  and  N_9
REMARK    4  A    between atoms: N_9  and  C_10
REMARK    5  A    between atoms: C_10  and  C_11
REMARK    6  A    between atoms: C_11  and  C_12
REMARK                            x       y       z     vdW  Elec       q    Type
REMARK                         _______ _______ _______ _____ _____    ______ ____
ROOT
ATOM      1  C   UNL     1       1.044  10.529  19.911  0.00  0.00    +0.000 C 
ENDROOT
BRANCH   1   2
ATOM      2  N   UNL     1       0.316  11.374  18.957  0.00  0.00    +0.000 NA
ATOM      3  H   UNL     1       0.781  12.279  18.877  0.00  0.00    +0.000 HD
BRANCH   2   4
ATOM      4  C   UNL     1      -1.058  11.602  19.409  0.00  0.00    +0.000 C 
BRANCH   4   9
ATOM      5  C   UNL     1      -4.286  11.324  17.386  0.00  0.00    +0.000 A 
ATOM      6  C   UNL     1      -3.898  10.461  16.357  0.00  0.00    +0.000 A 
ATOM      7  C   UNL     1      -2.593   9.966  16.315  0.00  0.00    +0.000 A 
ATOM      8  C   UNL     1      -1.676  10.329  17.305  0.00  0.00    +0.000 A 
ATOM      9  C   UNL     1      -2.049  11.198  18.340  0.00  0.00    +0.000 A 
ATOM     10  C   UNL     1      -3.362  11.697  18.368  0.00  0.00    +0.000 A 
BRANCH   5  12
ATOM     11  N   UNL     1      -6.722  12.215  17.488  0.00  0.00    +0.000 NA
ATOM     12  C   UNL     1      -5.633  11.811  17.447  0.00  0.00    +0.000 C 
ENDBRANCH   5  12
ENDBRANCH   4   9
ENDBRANCH   2   4
ENDBRANCH   1   2
BRANCH   1  13
ATOM     13  C   UNL     1       0.931   9.051  19.524  0.00  0.00    +0.000 C 
BRANCH  13  14
ATOM     14  C   UNL     1       1.891   8.725  18.395  0.00  0.00    +0.000 C 
ATOM     15  O   UNL     1       2.007   9.481  17.429  0.00  0.00    +0.000 OA
ATOM     16  N   UNL     1       2.649   7.567  18.506  0.00  0.00    +0.000 N 
ATOM     17  C   UNL     1       2.545   6.563  19.582  0.00  0.00    +0.000 C 
ATOM     18  C   UNL     1       2.468   5.130  19.018  0.00  0.00    +0.000 C 
ATOM     19  C   UNL     1       3.483   4.968  17.931  0.00  0.00    +0.000 A 
ATOM     20  S   UNL     1       3.980   3.454  17.343  0.00  0.00    +0.000 S 
ATOM     21  C   UNL     1       5.041   4.186  16.214  0.00  0.00    +0.000 A 
ATOM     22  C   UNL     1       5.002   5.563  16.284  0.00  0.00    +0.000 A 
ATOM     23  C   UNL     1       4.089   6.025  17.280  0.00  0.00    +0.000 A 
ATOM     24  C   UNL     1       3.815   7.454  17.620  0.00  0.00    +0.000 C 
ENDBRANCH  13  14
ENDBRANCH   1  13
TORSDOF 6
ENDMDL
MODEL 9
REMARK VINA RESULT:      -6.8      1.843      2.340
REMARK  Name = 
REMARK  6 active torsions:
REMARK  status: ('A' for Active; 'I' for Inactive)
REMARK    1  A    between atoms: C_2  and  C_3
REMARK    2  A    between atoms: C_7  and  C_8
REMARK    3  A    between atoms: C_8  and  N_9
REMARK    4  A    between atoms: N_9  and  C_10
REMARK    5  A    between atoms: C_10  and  C_11
REMARK    6  A    between atoms: C_11  and  C_12
REMARK                            x       y       z     vdW  Elec       q    Type
REMARK                         _______ _______ _______ _____ _____    ______ ____
ROOT
ATOM      1  C   UNL     1       6.831   6.574  17.143  0.00  0.00    +0.000 C 
ENDROOT
BRANCH   1   2
ATOM      2  N   UNL     1       7.067   8.015  17.301  0.00  0.00    +0.000 NA
ATOM      3  H   UNL     1       7.304   8.423  16.396  0.00  0.00    +0.000 HD
BRANCH   2   4
ATOM      4  C   UNL     1       8.179   8.260  18.220  0.00  0.00    +0.000 C 
BRANCH   4   9
ATOM      5  C   UNL     1      10.163  11.474  18.795  0.00  0.00    +0.000 A 
ATOM      6  C   UNL     1       9.368  12.415  18.136  0.00  0.00    +0.000 A 
ATOM      7  C   UNL     1       8.188  12.014  17.506  0.00  0.00    +0.000 A 
ATOM      8  C   UNL     1       7.800  10.672  17.538  0.00  0.00    +0.000 A 
ATOM      9  C   UNL     1       8.590   9.716  18.191  0.00  0.00    +0.000 A 
ATOM     10  C   UNL     1       9.780  10.128  18.814  0.00  0.00    +0.000 A 
BRANCH   5  12
ATOM     11  N   UNL     1      12.333  12.230  20.002  0.00  0.00    +0.000 NA
ATOM     12  C   UNL     1      11.360  11.887  19.467  0.00  0.00    +0.000 C 
ENDBRANCH   5  12
ENDBRANCH   4   9
ENDBRANCH   2   4
ENDBRANCH   1   2
BRANCH   1  13
ATOM     13  C   UNL     1       5.574   6.319  16.304  0.00  0.00    +0.000 C 
BRANCH  13  14
ATOM     14  C   UNL     1       4.331   6.427  17.168  0.00  0.00    +0.000 C 
ATOM     15  O   UNL     1       3.774   7.513  17.335  0.00  0.00    +0.000 OA
ATOM     16  N   UNL     1       3.835   5.261  17.735  0.00  0.00    +0.000 N 
ATOM     17  C   UNL     1       4.457   3.925  17.653  0.00  0.00    +0.000 C 
ATOM     18  C   UNL     1       4.531   3.246  19.037  0.00  0.00    +0.000 C 
ATOM     19  C   UNL     1       3.230   3.430  19.751  0.00  0.00    +0.000 A 
ATOM     20  S   UNL     1       2.776   2.512  21.105  0.00  0.00    +0.000 S 
ATOM     21  C   UNL     1       1.290   3.354  21.242  0.00  0.00    +0.000 A 
ATOM     22  C   UNL     1       1.156   4.327  20.272  0.00  0.00    +0.000 A 
ATOM     23  C   UNL     1       2.289   4.380  19.404  0.00  0.00    +0.000 A 
ATOM     24  C   UNL     1       2.459   5.309  18.246  0.00  0.00    +0.000 C 
ENDBRANCH  13  14
ENDBRANCH   1  13
TORSDOF 6
ENDMDL
