MODEL 1
REMARK VINA RESULT:      -8.2      0.000      0.000
REMARK  Name = 
REMARK  6 active torsions:
REMARK  status: ('A' for Active; 'I' for Inactive)
REMARK    1  A    between atoms: N_10  and  C_11
REMARK    2  A    between atoms: C_11  and  C_12
REMARK    3  A    between atoms: C_12  and  C_13
REMARK    4  A    between atoms: C_13  and  C_14
REMARK    5  A    between atoms: C_14  and  N_15
REMARK    6  A    between atoms: N_18  and  C_19
REMARK                            x       y       z     vdW  Elec       q    Type
REMARK                         _______ _______ _______ _____ _____    ______ ____
ROOT
ATOM      1  C   UNL     1       8.169   8.840  17.518  0.00  0.00    +0.000 C 
ENDROOT
BRANCH   1   2
ATOM      2  C   UNL     1       8.317  10.117  18.336  0.00  0.00    +0.000 C 
BRANCH   2   3
ATOM      3  C   UNL     1       9.392  10.001  19.429  0.00  0.00    +0.000 C 
BRANCH   3  13
ATOM      4  O   UNL     1       8.792  11.555  21.835  0.00  0.00    +0.000 OA
ATOM      5  C   UNL     1       9.521  12.003  20.967  0.00  0.00    +0.000 A 
ATOM      6  N   UNL     1      10.104  13.229  21.045  0.00  0.00    +0.000 N 
ATOM      7  C   UNL     1      10.835  13.316  19.922  0.00  0.00    +0.000 A 
ATOM      8  C   UNL     1      11.641  14.371  19.516  0.00  0.00    +0.000 A 
ATOM      9  C   UNL     1      12.332  14.230  18.300  0.00  0.00    +0.000 A 
ATOM     10  C   UNL     1      12.199  13.053  17.528  0.00  0.00    +0.000 A 
ATOM     11  C   UNL     1      11.365  12.002  17.961  0.00  0.00    +0.000 A 
ATOM     12  C   UNL     1      10.692  12.172  19.178  0.00  0.00    +0.000 A 
ATOM     13  N   UNL     1       9.852  11.334  19.820  0.00  0.00    +0.000 N 
ATOM     14  H   UNL     1      10.011  13.932  21.811  0.00  0.00    +0.000 HD
ENDBRANCH   3  13
ENDBRANCH   2   3
ENDBRANCH   1   2
BRANCH   1  15
ATOM     15  C   UNL     1       8.153   7.565  18.393  0.00  0.00    +0.000 C 
BRANCH  15  16
ATOM     16  N   UNL     1       7.239   6.543  17.861  0.00  0.00    +0.000 NA
ATOM     17  C   UNL     1       5.926   7.121  17.496  0.00  0.00    +0.000 C 
ATOM     18  C   UNL     1       5.150   6.082  16.671  0.00  0.00    +0.000 C 
ATOM     19  N   UNL     1       5.077   4.839  17.436  0.00  0.00    +0.000 N 
ATOM     20  C   UNL     1       6.339   4.311  17.930  0.00  0.00    +0.000 C 
ATOM     21  C   UNL     1       7.033   5.380  18.748  0.00  0.00    +0.000 C 
BRANCH  19  22
ATOM     22  C   UNL     1       3.840   4.166  17.694  0.00  0.00    +0.000 A 
ATOM     23  C   UNL     1       3.771   2.761  17.663  0.00  0.00    +0.000 A 
ATOM     24  C   UNL     1       2.578   2.100  17.967  0.00  0.00    +0.000 A 
ATOM     25  C   UNL     1       1.433   2.832  18.284  0.00  0.00    +0.000 A 
ATOM     26  F   UNL     1       0.275   2.190  18.577  0.00  0.00    +0.000 F 
ATOM     27  C   UNL     1       1.479   4.225  18.304  0.00  0.00    +0.000 A 
ATOM     28  C   UNL     1       2.674   4.891  18.020  0.00  0.00    +0.000 A 
ENDBRANCH  19  22
ENDBRANCH  15  16
ENDBRANCH   1  15
TORSDOF 6
ENDMDL
MODEL 2
REMARK VINA RESULT:      -7.9      1.336      2.180
REMARK  Name = 
REMARK  6 active torsions:
REMARK  status: ('A' for Active; 'I' for Inactive)
REMARK    1  A    between atoms: N_10  and  C_11
REMARK    2  A    between atoms: C_11  and  C_12
REMARK    3  A    between atoms: C_12  and  C_13
REMARK    4  A    between atoms: C_13  and  C_14
REMARK    5  A    between atoms: C_14  and  N_15
REMARK    6  A    between atoms: N_18  and  C_19
REMARK                            x       y       z     vdW  Elec       q    Type
REMARK                         _______ _______ _______ _____ _____    ______ ____
ROOT
ATOM      1  C   UNL     1       7.831   9.099  17.834  0.00  0.00    +0.000 C 
ENDROOT
BRANCH   1   2
ATOM      2  C   UNL     1       8.841  10.216  18.066  0.00  0.00    +0.000 C 
BRANCH   2   3
ATOM      3  C   UNL     1       9.455  10.178  19.475  0.00  0.00    +0.000 C 
BRANCH   3  13
ATOM      4  O   UNL     1      11.757  11.523  18.268  0.00  0.00    +0.000 OA
ATOM      5  C   UNL     1      11.141  12.039  19.185  0.00  0.00    +0.000 A 
ATOM      6  N   UNL     1      11.463  13.252  19.706  0.00  0.00    +0.000 N 
ATOM      7  C   UNL     1      10.535  13.458  20.655  0.00  0.00    +0.000 A 
ATOM      8  C   UNL     1      10.402  14.563  21.485  0.00  0.00    +0.000 A 
ATOM      9  C   UNL     1       9.332  14.565  22.398  0.00  0.00    +0.000 A 
ATOM     10  C   UNL     1       8.436  13.473  22.460  0.00  0.00    +0.000 A 
ATOM     11  C   UNL     1       8.602  12.360  21.611  0.00  0.00    +0.000 A 
ATOM     12  C   UNL     1       9.675  12.389  20.711  0.00  0.00    +0.000 A 
ATOM     13  N   UNL     1      10.053  11.474  19.794  0.00  0.00    +0.000 N 
ATOM     14  H   UNL     1      12.245  13.882  19.422  0.00  0.00    +0.000 HD
ENDBRANCH   3  13
ENDBRANCH   2   3
ENDBRANCH   1   2
BRANCH   1  15
ATOM     15  C   UNL     1       8.321   7.728  18.355  0.00  0.00    +0.000 C 
BRANCH  15  16
ATOM     16  N   UNL     1       7.451   6.628  17.915  0.00  0.00    +0.000 NA
ATOM     17  C   UNL     1       6.215   7.131  17.273  0.00  0.00    +0.000 C 
ATOM     18  C   UNL     1       5.518   5.956  16.570  0.00  0.00    +0.000 C 
ATOM     19  N   UNL     1       5.307   4.888  17.544  0.00  0.00    +0.000 N 
ATOM     20  C   UNL     1       6.477   4.458  18.294  0.00  0.00    +0.000 C 
ATOM     21  C   UNL     1       7.093   5.662  18.975  0.00  0.00    +0.000 C 
BRANCH  19  22
ATOM     22  C   UNL     1       4.026   4.286  17.760  0.00  0.00    +0.000 A 
ATOM     23  C   UNL     1       3.829   2.916  17.509  0.00  0.00    +0.000 A 
ATOM     24  C   UNL     1       2.593   2.316  17.770  0.00  0.00    +0.000 A 
ATOM     25  C   UNL     1       1.535   3.078  18.264  0.00  0.00    +0.000 A 
ATOM     26  F   UNL     1       0.337   2.494  18.516  0.00  0.00    +0.000 F 
ATOM     27  C   UNL     1       1.707   4.440  18.504  0.00  0.00    +0.000 A 
ATOM     28  C   UNL     1       2.946   5.042  18.263  0.00  0.00    +0.000 A 
ENDBRANCH  19  22
ENDBRANCH  15  16
ENDBRANCH   1  15
TORSDOF 6
ENDMDL
MODEL 3
REMARK VINA RESULT:      -7.8      6.470      9.225
REMARK  Name = 
REMARK  6 active torsions:
REMARK  status: ('A' for Active; 'I' for Inactive)
REMARK    1  A    between atoms: N_10  and  C_11
REMARK    2  A    between atoms: C_11  and  C_12
REMARK    3  A    between atoms: C_12  and  C_13
REMARK    4  A    between atoms: C_13  and  C_14
REMARK    5  A    between atoms: C_14  and  N_15
REMARK    6  A    between atoms: N_18  and  C_19
REMARK                            x       y       z     vdW  Elec       q    Type
REMARK                         _______ _______ _______ _____ _____    ______ ____
ROOT
ATOM      1  C   UNL     1       1.782   4.927  19.434  0.00  0.00    +0.000 C 
ENDROOT
BRANCH   1   2
ATOM      2  C   UNL     1       1.906   4.539  17.965  0.00  0.00    +0.000 C 
BRANCH   2   3
ATOM      3  C   UNL     1       2.766   3.283  17.752  0.00  0.00    +0.000 C 
BRANCH   3  13
ATOM      4  O   UNL     1       4.621   3.087  20.007  0.00  0.00    +0.000 OA
ATOM      5  C   UNL     1       4.992   3.516  18.927  0.00  0.00    +0.000 A 
ATOM      6  N   UNL     1       6.266   3.923  18.687  0.00  0.00    +0.000 N 
ATOM      7  C   UNL     1       6.257   4.284  17.394  0.00  0.00    +0.000 A 
ATOM      8  C   UNL     1       7.318   4.767  16.641  0.00  0.00    +0.000 A 
ATOM      9  C   UNL     1       7.074   5.063  15.288  0.00  0.00    +0.000 A 
ATOM     10  C   UNL     1       5.789   4.876  14.731  0.00  0.00    +0.000 A 
ATOM     11  C   UNL     1       4.727   4.393  15.522  0.00  0.00    +0.000 A 
ATOM     12  C   UNL     1       5.002   4.105  16.865  0.00  0.00    +0.000 A 
ATOM     13  N   UNL     1       4.185   3.630  17.828  0.00  0.00    +0.000 N 
ATOM     14  H   UNL     1       7.067   3.939  19.355  0.00  0.00    +0.000 HD
ENDBRANCH   3  13
ENDBRANCH   2   3
ENDBRANCH   1   2
BRANCH   1  15
ATOM     15  C   UNL     1       2.587   6.198  19.789  0.00  0.00    +0.000 C 
BRANCH  15  16
ATOM     16  N   UNL     1       1.853   7.427  19.453  0.00  0.00    +0.000 NA
ATOM     17  C   UNL     1       2.472   8.141  18.313  0.00  0.00    +0.000 C 
ATOM     18  C   UNL     1       1.494   9.220  17.825  0.00  0.00    +0.000 C 
ATOM     19  N   UNL     1       1.138  10.073  18.956  0.00  0.00    +0.000 N 
ATOM     20  C   UNL     1       0.651   9.394  20.148  0.00  0.00    +0.000 C 
ATOM     21  C   UNL     1       1.675   8.366  20.580  0.00  0.00    +0.000 C 
BRANCH  19  22
ATOM     22  C   UNL     1       1.256  11.500  18.911  0.00  0.00    +0.000 A 
ATOM     23  C   UNL     1       2.330  12.106  18.234  0.00  0.00    +0.000 A 
ATOM     24  C   UNL     1       2.418  13.498  18.144  0.00  0.00    +0.000 A 
ATOM     25  C   UNL     1       1.449  14.302  18.745  0.00  0.00    +0.000 A 
ATOM     26  F   UNL     1       1.537  15.652  18.657  0.00  0.00    +0.000 F 
ATOM     27  C   UNL     1       0.387  13.719  19.433  0.00  0.00    +0.000 A 
ATOM     28  C   UNL     1       0.282  12.327  19.511  0.00  0.00    +0.000 A 
ENDBRANCH  19  22
ENDBRANCH  15  16
ENDBRANCH   1  15
TORSDOF 6
ENDMDL
MODEL 4
REMARK VINA RESULT:      -7.7      6.637     10.288
REMARK  Name = 
REMARK  6 active torsions:
REMARK  status: ('A' for Active; 'I' for Inactive)
REMARK    1  A    between atoms: N_10  and  C_11
REMARK    2  A    between atoms: C_11  and  C_12
REMARK    3  A    between atoms: C_12  and  C_13
REMARK    4  A    between atoms: C_13  and  C_14
REMARK    5  A    between atoms: C_14  and  N_15
REMARK    6  A    between atoms: N_18  and  C_19
REMARK                            x       y       z     vdW  Elec       q    Type
REMARK                         _______ _______ _______ _____ _____    ______ ____
ROOT
ATOM      1  C   UNL     1       3.047   7.949  17.793  0.00  0.00    +0.000 C 
ENDROOT
BRANCH   1   2
ATOM      2  C   UNL     1       4.211   6.969  17.715  0.00  0.00    +0.000 C 
BRANCH   2   3
ATOM      3  C   UNL     1       3.787   5.579  17.213  0.00  0.00    +0.000 C 
BRANCH   3  13
ATOM      4  O   UNL     1       6.248   4.229  18.041  0.00  0.00    +0.000 OA
ATOM      5  C   UNL     1       5.187   3.988  18.591  0.00  0.00    +0.000 A 
ATOM      6  N   UNL     1       5.064   3.098  19.611  0.00  0.00    +0.000 N 
ATOM      7  C   UNL     1       3.763   3.155  19.941  0.00  0.00    +0.000 A 
ATOM      8  C   UNL     1       3.110   2.446  20.939  0.00  0.00    +0.000 A 
ATOM      9  C   UNL     1       1.736   2.686  21.115  0.00  0.00    +0.000 A 
ATOM     10  C   UNL     1       1.057   3.616  20.295  0.00  0.00    +0.000 A 
ATOM     11  C   UNL     1       1.744   4.315  19.282  0.00  0.00    +0.000 A 
ATOM     12  C   UNL     1       3.113   4.056  19.133  0.00  0.00    +0.000 A 
ATOM     13  N   UNL     1       3.999   4.583  18.263  0.00  0.00    +0.000 N 
ATOM     14  H   UNL     1       5.813   2.515  20.043  0.00  0.00    +0.000 HD
ENDBRANCH   3  13
ENDBRANCH   2   3
ENDBRANCH   1   2
BRANCH   1  15
ATOM     15  C   UNL     1       2.088   7.649  18.969  0.00  0.00    +0.000 C 
BRANCH  15  16
ATOM     16  N   UNL     1       1.637   8.877  19.638  0.00  0.00    +0.000 NA
ATOM     17  C   UNL     1       1.074   8.596  20.979  0.00  0.00    +0.000 C 
ATOM     18  C   UNL     1       0.918   9.927  21.731  0.00  0.00    +0.000 C 
ATOM     19  N   UNL     1       0.117  10.834  20.913  0.00  0.00    +0.000 N 
ATOM     20  C   UNL     1       0.564  11.031  19.542  0.00  0.00    +0.000 C 
ATOM     21  C   UNL     1       0.671   9.683  18.862  0.00  0.00    +0.000 C 
BRANCH  19  22
ATOM     22  C   UNL     1      -1.046  11.500  21.417  0.00  0.00    +0.000 A 
ATOM     23  C   UNL     1      -1.880  12.232  20.551  0.00  0.00    +0.000 A 
ATOM     24  C   UNL     1      -3.045  12.839  21.031  0.00  0.00    +0.000 A 
ATOM     25  C   UNL     1      -3.380  12.741  22.382  0.00  0.00    +0.000 A 
ATOM     26  F   UNL     1      -4.509  13.331  22.846  0.00  0.00    +0.000 F 
ATOM     27  C   UNL     1      -2.557  12.033  23.256  0.00  0.00    +0.000 A 
ATOM     28  C   UNL     1      -1.402  11.408  22.779  0.00  0.00    +0.000 A 
ENDBRANCH  19  22
ENDBRANCH  15  16
ENDBRANCH   1  15
TORSDOF 6
ENDMDL
MODEL 5
REMARK VINA RESULT:      -7.7      1.592      1.594
REMARK  Name = 
REMARK  6 active torsions:
REMARK  status: ('A' for Active; 'I' for Inactive)
REMARK    1  A    between atoms: N_10  and  C_11
REMARK    2  A    between atoms: C_11  and  C_12
REMARK    3  A    between atoms: C_12  and  C_13
REMARK    4  A    between atoms: C_13  and  C_14
REMARK    5  A    between atoms: C_14  and  N_15
REMARK    6  A    between atoms: N_18  and  C_19
REMARK                            x       y       z     vdW  Elec       q    Type
REMARK                         _______ _______ _______ _____ _____    ______ ____
ROOT
ATOM      1  C   UNL     1       8.048   8.579  18.461  0.00  0.00    +0.000 C 
ENDROOT
BRANCH   1   2
ATOM      2  C   UNL     1       8.765   9.896  18.191  0.00  0.00    +0.000 C 
BRANCH   2   3
ATOM      3  C   UNL     1       9.619  10.363  19.381  0.00  0.00    +0.000 C 
BRANCH   3  13
ATOM      4  O   UNL     1       8.569  12.268  21.340  0.00  0.00    +0.000 OA
ATOM      5  C   UNL     1       9.172  12.654  20.352  0.00  0.00    +0.000 A 
ATOM      6  N   UNL     1       9.403  13.967  20.089  0.00  0.00    +0.000 N 
ATOM      7  C   UNL     1      10.109  13.953  18.947  0.00  0.00    +0.000 A 
ATOM      8  C   UNL     1      10.612  15.041  18.248  0.00  0.00    +0.000 A 
ATOM      9  C   UNL     1      11.344  14.780  17.075  0.00  0.00    +0.000 A 
ATOM     10  C   UNL     1      11.548  13.453  16.635  0.00  0.00    +0.000 A 
ATOM     11  C   UNL     1      11.016  12.367  17.361  0.00  0.00    +0.000 A 
ATOM     12  C   UNL     1      10.295  12.659  18.525  0.00  0.00    +0.000 A 
ATOM     13  N   UNL     1       9.696  11.824  19.399  0.00  0.00    +0.000 N 
ATOM     14  H   UNL     1       9.108  14.793  20.654  0.00  0.00    +0.000 HD
ENDBRANCH   3  13
ENDBRANCH   2   3
ENDBRANCH   1   2
BRANCH   1  15
ATOM     15  C   UNL     1       7.808   7.752  17.176  0.00  0.00    +0.000 C 
BRANCH  15  16
ATOM     16  N   UNL     1       6.932   6.598  17.419  0.00  0.00    +0.000 NA
ATOM     17  C   UNL     1       5.501   6.967  17.328  0.00  0.00    +0.000 C 
ATOM     18  C   UNL     1       4.667   5.678  17.280  0.00  0.00    +0.000 C 
ATOM     19  N   UNL     1       5.010   4.857  18.439  0.00  0.00    +0.000 N 
ATOM     20  C   UNL     1       6.425   4.584  18.639  0.00  0.00    +0.000 C 
ATOM     21  C   UNL     1       7.175   5.898  18.698  0.00  0.00    +0.000 C 
BRANCH  19  22
ATOM     22  C   UNL     1       4.021   4.342  19.337  0.00  0.00    +0.000 A 
ATOM     23  C   UNL     1       4.056   2.994  19.740  0.00  0.00    +0.000 A 
ATOM     24  C   UNL     1       3.123   2.502  20.657  0.00  0.00    +0.000 A 
ATOM     25  C   UNL     1       2.133   3.342  21.168  0.00  0.00    +0.000 A 
ATOM     26  F   UNL     1       1.228   2.862  22.057  0.00  0.00    +0.000 F 
ATOM     27  C   UNL     1       2.074   4.675  20.768  0.00  0.00    +0.000 A 
ATOM     28  C   UNL     1       3.015   5.178  19.865  0.00  0.00    +0.000 A 
ENDBRANCH  19  22
ENDBRANCH  15  16
ENDBRANCH   1  15
TORSDOF 6
ENDMDL
MODEL 6
REMARK VINA RESULT:      -7.7      4.399     11.038
REMARK  Name = 
REMARK  6 active torsions:
REMARK  status: ('A' for Active; 'I' for Inactive)
REMARK    1  A    between atoms: N_10  and  C_11
REMARK    2  A    between atoms: C_11  and  C_12
REMARK    3  A    between atoms: C_12  and  C_13
REMARK    4  A    between atoms: C_13  and  C_14
REMARK    5  A    between atoms: C_14  and  N_15
REMARK    6  A    between atoms: N_18  and  C_19
REMARK                            x       y       z     vdW  Elec       q    Type
REMARK                         _______ _______ _______ _____ _____    ______ ____
ROOT
ATOM      1  C   UNL     1       8.444   8.540  18.333  0.00  0.00    +0.000 C 
ENDROOT
BRANCH   1   2
ATOM      2  C   UNL     1       7.588   7.488  17.639  0.00  0.00    +0.000 C 
BRANCH   2   3
ATOM      3  C   UNL     1       7.394   6.223  18.491  0.00  0.00    +0.000 C 
BRANCH   3  13
ATOM      4  O   UNL     1       7.906   4.376  16.280  0.00  0.00    +0.000 OA
ATOM      5  C   UNL     1       6.796   4.465  16.776  0.00  0.00    +0.000 A 
ATOM      6  N   UNL     1       5.733   3.729  16.357  0.00  0.00    +0.000 N 
ATOM      7  C   UNL     1       4.733   4.104  17.171  0.00  0.00    +0.000 A 
ATOM      8  C   UNL     1       3.425   3.641  17.175  0.00  0.00    +0.000 A 
ATOM      9  C   UNL     1       2.551   4.169  18.141  0.00  0.00    +0.000 A 
ATOM     10  C   UNL     1       3.001   5.138  19.066  0.00  0.00    +0.000 A 
ATOM     11  C   UNL     1       4.334   5.597  19.032  0.00  0.00    +0.000 A 
ATOM     12  C   UNL     1       5.180   5.050  18.060  0.00  0.00    +0.000 A 
ATOM     13  N   UNL     1       6.484   5.300  17.815  0.00  0.00    +0.000 N 
ATOM     14  H   UNL     1       5.708   3.027  15.586  0.00  0.00    +0.000 HD
ENDBRANCH   3  13
ENDBRANCH   2   3
ENDBRANCH   1   2
BRANCH   1  15
ATOM     15  C   UNL     1       8.218   9.964  17.772  0.00  0.00    +0.000 C 
BRANCH  15  16
ATOM     16  N   UNL     1       9.203  10.924  18.292  0.00  0.00    +0.000 NA
ATOM     17  C   UNL     1       9.311  10.853  19.767  0.00  0.00    +0.000 C 
ATOM     18  C   UNL     1      10.556  11.640  20.202  0.00  0.00    +0.000 C 
ATOM     19  N   UNL     1      10.464  12.995  19.663  0.00  0.00    +0.000 N 
ATOM     20  C   UNL     1      10.222  13.105  18.233  0.00  0.00    +0.000 C 
ATOM     21  C   UNL     1       8.971  12.325  17.885  0.00  0.00    +0.000 C 
BRANCH  19  22
ATOM     22  C   UNL     1      10.601  14.161  20.484  0.00  0.00    +0.000 A 
ATOM     23  C   UNL     1       9.878  14.277  21.686  0.00  0.00    +0.000 A 
ATOM     24  C   UNL     1      10.051  15.389  22.514  0.00  0.00    +0.000 A 
ATOM     25  C   UNL     1      10.929  16.408  22.144  0.00  0.00    +0.000 A 
ATOM     26  F   UNL     1      11.095  17.488  22.949  0.00  0.00    +0.000 F 
ATOM     27  C   UNL     1      11.641  16.317  20.950  0.00  0.00    +0.000 A 
ATOM     28  C   UNL     1      11.488  15.198  20.126  0.00  0.00    +0.000 A 
ENDBRANCH  19  22
ENDBRANCH  15  16
ENDBRANCH   1  15
TORSDOF 6
ENDMDL
MODEL 7
REMARK VINA RESULT:      -7.7      6.600      9.077
REMARK  Name = 
REMARK  6 active torsions:
REMARK  status: ('A' for Active; 'I' for Inactive)
REMARK    1  A    between atoms: N_10  and  C_11
REMARK    2  A    between atoms: C_11  and  C_12
REMARK    3  A    between atoms: C_12  and  C_13
REMARK    4  A    between atoms: C_13  and  C_14
REMARK    5  A    between atoms: C_14  and  N_15
REMARK    6  A    between atoms: N_18  and  C_19
REMARK                            x       y       z     vdW  Elec       q    Type
REMARK                         _______ _______ _______ _____ _____    ______ ____
ROOT
ATOM      1  C   UNL     1       2.264   5.548  18.853  0.00  0.00    +0.000 C 
ENDROOT
BRANCH   1   2
ATOM      2  C   UNL     1       1.786   4.643  17.724  0.00  0.00    +0.000 C 
BRANCH   2   3
ATOM      3  C   UNL     1       2.600   3.343  17.619  0.00  0.00    +0.000 C 
BRANCH   3  13
ATOM      4  O   UNL     1       4.273   3.019  19.998  0.00  0.00    +0.000 OA
ATOM      5  C   UNL     1       4.740   3.455  18.960  0.00  0.00    +0.000 A 
ATOM      6  N   UNL     1       6.044   3.814  18.825  0.00  0.00    +0.000 N 
ATOM      7  C   UNL     1       6.146   4.204  17.544  0.00  0.00    +0.000 A 
ATOM      8  C   UNL     1       7.279   4.658  16.883  0.00  0.00    +0.000 A 
ATOM      9  C   UNL     1       7.149   4.994  15.524  0.00  0.00    +0.000 A 
ATOM     10  C   UNL     1       5.902   4.874  14.869  0.00  0.00    +0.000 A 
ATOM     11  C   UNL     1       4.765   4.419  15.568  0.00  0.00    +0.000 A 
ATOM     12  C   UNL     1       4.928   4.089  16.919  0.00  0.00    +0.000 A 
ATOM     13  N   UNL     1       4.023   3.628  17.808  0.00  0.00    +0.000 N 
ATOM     14  H   UNL     1       6.793   3.781  19.550  0.00  0.00    +0.000 HD
ENDBRANCH   3  13
ENDBRANCH   2   3
ENDBRANCH   1   2
BRANCH   1  15
ATOM     15  C   UNL     1       3.060   6.772  18.344  0.00  0.00    +0.000 C 
BRANCH  15  16
ATOM     16  N   UNL     1       2.466   8.040  18.792  0.00  0.00    +0.000 NA
ATOM     17  C   UNL     1       1.461   7.827  19.858  0.00  0.00    +0.000 C 
ATOM     18  C   UNL     1       1.120   9.188  20.485  0.00  0.00    +0.000 C 
ATOM     19  N   UNL     1       0.698  10.099  19.423  0.00  0.00    +0.000 N 
ATOM     20  C   UNL     1       1.602  10.231  18.291  0.00  0.00    +0.000 C 
ATOM     21  C   UNL     1       1.871   8.857  17.714  0.00  0.00    +0.000 C 
BRANCH  19  22
ATOM     22  C   UNL     1      -0.533  10.828  19.479  0.00  0.00    +0.000 A 
ATOM     23  C   UNL     1      -1.463  10.740  18.426  0.00  0.00    +0.000 A 
ATOM     24  C   UNL     1      -2.687  11.409  18.502  0.00  0.00    +0.000 A 
ATOM     25  C   UNL     1      -2.991  12.190  19.618  0.00  0.00    +0.000 A 
ATOM     26  F   UNL     1      -4.180  12.839  19.690  0.00  0.00    +0.000 F 
ATOM     27  C   UNL     1      -2.076  12.301  20.663  0.00  0.00    +0.000 A 
ATOM     28  C   UNL     1      -0.857  11.619  20.602  0.00  0.00    +0.000 A 
ENDBRANCH  19  22
ENDBRANCH  15  16
ENDBRANCH   1  15
TORSDOF 6
ENDMDL
MODEL 8
REMARK VINA RESULT:      -7.6      6.024      8.479
REMARK  Name = 
REMARK  6 active torsions:
REMARK  status: ('A' for Active; 'I' for Inactive)
REMARK    1  A    between atoms: N_10  and  C_11
REMARK    2  A    between atoms: C_11  and  C_12
REMARK    3  A    between atoms: C_12  and  C_13
REMARK    4  A    between atoms: C_13  and  C_14
REMARK    5  A    between atoms: C_14  and  N_15
REMARK    6  A    between atoms: N_18  and  C_19
REMARK                            x       y       z     vdW  Elec       q    Type
REMARK                         _______ _______ _______ _____ _____    ______ ____
ROOT
ATOM      1  C   UNL     1       2.649   5.383  18.186  0.00  0.00    +0.000 C 
ENDROOT
BRANCH   1   2
ATOM      2  C   UNL     1       3.289   4.000  18.224  0.00  0.00    +0.000 C 
BRANCH   2   3
ATOM      3  C   UNL     1       4.601   3.974  19.025  0.00  0.00    +0.000 C 
BRANCH   3  13
ATOM      4  O   UNL     1       7.018   5.406  19.847  0.00  0.00    +0.000 OA
ATOM      5  C   UNL     1       6.795   5.178  18.670  0.00  0.00    +0.000 A 
ATOM      6  N   UNL     1       7.633   5.557  17.669  0.00  0.00    +0.000 N 
ATOM      7  C   UNL     1       7.043   5.094  16.555  0.00  0.00    +0.000 A 
ATOM      8  C   UNL     1       7.496   5.204  15.248  0.00  0.00    +0.000 A 
ATOM      9  C   UNL     1       6.712   4.620  14.236  0.00  0.00    +0.000 A 
ATOM     10  C   UNL     1       5.508   3.952  14.555  0.00  0.00    +0.000 A 
ATOM     11  C   UNL     1       5.067   3.866  15.891  0.00  0.00    +0.000 A 
ATOM     12  C   UNL     1       5.870   4.455  16.875  0.00  0.00    +0.000 A 
ATOM     13  N   UNL     1       5.693   4.510  18.212  0.00  0.00    +0.000 N 
ATOM     14  H   UNL     1       8.533   6.078  17.753  0.00  0.00    +0.000 HD
ENDBRANCH   3  13
ENDBRANCH   2   3
ENDBRANCH   1   2
BRANCH   1  15
ATOM     15  C   UNL     1       3.140   6.303  19.328  0.00  0.00    +0.000 C 
BRANCH  15  16
ATOM     16  N   UNL     1       2.500   7.625  19.283  0.00  0.00    +0.000 NA
ATOM     17  C   UNL     1       1.446   7.759  20.314  0.00  0.00    +0.000 C 
ATOM     18  C   UNL     1       1.048   9.240  20.414  0.00  0.00    +0.000 C 
ATOM     19  N   UNL     1       0.663   9.711  19.086  0.00  0.00    +0.000 N 
ATOM     20  C   UNL     1       1.620   9.475  18.016  0.00  0.00    +0.000 C 
ATOM     21  C   UNL     1       1.944   7.996  17.965  0.00  0.00    +0.000 C 
BRANCH  19  22
ATOM     22  C   UNL     1      -0.583  10.370  18.835  0.00  0.00    +0.000 A 
ATOM     23  C   UNL     1      -1.377  10.000  17.733  0.00  0.00    +0.000 A 
ATOM     24  C   UNL     1      -2.618  10.606  17.516  0.00  0.00    +0.000 A 
ATOM     25  C   UNL     1      -3.073  11.600  18.382  0.00  0.00    +0.000 A 
ATOM     26  F   UNL     1      -4.277  12.187  18.169  0.00  0.00    +0.000 F 
ATOM     27  C   UNL     1      -2.294  11.989  19.470  0.00  0.00    +0.000 A 
ATOM     28  C   UNL     1      -1.060  11.375  19.703  0.00  0.00    +0.000 A 
ENDBRANCH  19  22
ENDBRANCH  15  16
ENDBRANCH   1  15
TORSDOF 6
ENDMDL
MODEL 9
REMARK VINA RESULT:      -7.6      6.375      9.604
REMARK  Name = 
REMARK  6 active torsions:
REMARK  status: ('A' for Active; 'I' for Inactive)
REMARK    1  A    between atoms: N_10  and  C_11
REMARK    2  A    between atoms: C_11  and  C_12
REMARK    3  A    between atoms: C_12  and  C_13
REMARK    4  A    between atoms: C_13  and  C_14
REMARK    5  A    between atoms: C_14  and  N_15
REMARK    6  A    between atoms: N_18  and  C_19
REMARK                            x       y       z     vdW  Elec       q    Type
REMARK                         _______ _______ _______ _____ _____    ______ ____
ROOT
ATOM      1  C   UNL     1       2.139   5.922  20.485  0.00  0.00    +0.000 C 
ENDROOT
BRANCH   1   2
ATOM      2  C   UNL     1       1.802   4.621  19.767  0.00  0.00    +0.000 C 
BRANCH   2   3
ATOM      3  C   UNL     1       2.999   3.660  19.685  0.00  0.00    +0.000 C 
BRANCH   3  13
ATOM      4  O   UNL     1       2.406   3.179  16.859  0.00  0.00    +0.000 OA
ATOM      5  C   UNL     1       3.456   3.699  17.199  0.00  0.00    +0.000 A 
ATOM      6  N   UNL     1       4.410   4.091  16.315  0.00  0.00    +0.000 N 
ATOM      7  C   UNL     1       5.369   4.630  17.085  0.00  0.00    +0.000 A 
ATOM      8  C   UNL     1       6.568   5.197  16.674  0.00  0.00    +0.000 A 
ATOM      9  C   UNL     1       7.414   5.719  17.667  0.00  0.00    +0.000 A 
ATOM     10  C   UNL     1       7.047   5.659  19.031  0.00  0.00    +0.000 A 
ATOM     11  C   UNL     1       5.827   5.069  19.420  0.00  0.00    +0.000 A 
ATOM     12  C   UNL     1       5.005   4.560  18.407  0.00  0.00    +0.000 A 
ATOM     13  N   UNL     1       3.799   3.960  18.497  0.00  0.00    +0.000 N 
ATOM     14  H   UNL     1       4.393   4.002  15.275  0.00  0.00    +0.000 HD
ENDBRANCH   3  13
ENDBRANCH   2   3
ENDBRANCH   1   2
BRANCH   1  15
ATOM     15  C   UNL     1       2.214   7.134  19.526  0.00  0.00    +0.000 C 
BRANCH  15  16
ATOM     16  N   UNL     1       1.779   8.378  20.177  0.00  0.00    +0.000 NA
ATOM     17  C   UNL     1       0.951   8.110  21.374  0.00  0.00    +0.000 C 
ATOM     18  C   UNL     1       0.801   9.418  22.166  0.00  0.00    +0.000 C 
ATOM     19  N   UNL     1       0.266  10.444  21.274  0.00  0.00    +0.000 N 
ATOM     20  C   UNL     1       0.978  10.644  20.021  0.00  0.00    +0.000 C 
ATOM     21  C   UNL     1       1.066   9.320  19.290  0.00  0.00    +0.000 C 
BRANCH  19  22
ATOM     22  C   UNL     1      -0.893  11.220  21.600  0.00  0.00    +0.000 A 
ATOM     23  C   UNL     1      -1.369  11.270  22.924  0.00  0.00    +0.000 A 
ATOM     24  C   UNL     1      -2.468  12.068  23.254  0.00  0.00    +0.000 A 
ATOM     25  C   UNL     1      -3.118  12.808  22.266  0.00  0.00    +0.000 A 
ATOM     26  F   UNL     1      -4.185  13.580  22.588  0.00  0.00    +0.000 F 
ATOM     27  C   UNL     1      -2.670  12.757  20.948  0.00  0.00    +0.000 A 
ATOM     28  C   UNL     1      -1.560  11.977  20.614  0.00  0.00    +0.000 A 
ENDBRANCH  19  22
ENDBRANCH  15  16
ENDBRANCH   1  15
TORSDOF 6
ENDMDL
