MODEL 1
REMARK VINA RESULT:      -7.2      0.000      0.000
REMARK  Name = 
REMARK  14 active torsions:
REMARK  status: ('A' for Active; 'I' for Inactive)
REMARK    1  A    between atoms: C_1  and  C_2
REMARK    2  A    between atoms: C_2  and  N_3
REMARK    3  A    between atoms: N_3  and  C_4
REMARK    4  A    between atoms: N_3  and  S_6
REMARK    5  A    between atoms: C_4  and  C_5
REMARK    6  A    between atoms: S_6  and  C_9
REMARK    7  A    between atoms: C_11  and  N_12
REMARK    8  A    between atoms: C_13  and  C_15
REMARK    9  A    between atoms: C_15  and  O_16
REMARK   10  A    between atoms: O_16  and  C_17
REMARK   11  A    between atoms: C_17  and  C_19
REMARK   12  A    between atoms: C_20  and  C_21
REMARK   13  A    between atoms: C_24  and  C_25
REMARK   14  A    between atoms: C_28  and  C_29
REMARK                            x       y       z     vdW  Elec       q    Type
REMARK                         _______ _______ _______ _____ _____    ______ ____
ROOT
ATOM      1  C   UNL     1       3.607   5.047  19.134  0.00  0.00    +0.000 A 
ATOM      2  C   UNL     1       3.366   6.429  19.001  0.00  0.00    +0.000 A 
ATOM      3  C   UNL     1       2.327   7.050  19.693  0.00  0.00    +0.000 A 
ATOM      4  C   UNL     1       1.506   6.261  20.506  0.00  0.00    +0.000 A 
ATOM      5  C   UNL     1       1.737   4.886  20.640  0.00  0.00    +0.000 A 
ATOM      6  C   UNL     1       2.797   4.255  19.965  0.00  0.00    +0.000 A 
ATOM      7  C   UNL     1       2.997   2.781  20.178  0.00  0.00    +0.000 C 
ENDROOT
BRANCH   3   8
ATOM      8  N   UNL     1       2.048   8.436  19.626  0.00  0.00    +0.000 N 
ATOM      9  C   UNL     1       1.741   9.168  18.491  0.00  0.00    +0.000 C 
ATOM     10  O   UNL     1       1.671   8.730  17.344  0.00  0.00    +0.000 OA
ATOM     11  H   UNL     1       2.171   8.954  20.491  0.00  0.00    +0.000 HD
BRANCH   9  12
ATOM     12  C   UNL     1       1.509  10.658  18.744  0.00  0.00    +0.000 C 
BRANCH  12  13
ATOM     13  O   UNL     1       0.183  11.043  18.360  0.00  0.00    +0.000 OA
BRANCH  13  14
ATOM     14  C   UNL     1      -0.780  10.665  19.249  0.00  0.00    +0.000 C 
ATOM     15  O   UNL     1      -1.732   9.959  18.933  0.00  0.00    +0.000 OA
BRANCH  14  16
ATOM     16  C   UNL     1      -0.579  11.185  20.587  0.00  0.00    +0.000 A 
ATOM     17  C   UNL     1      -0.522  12.545  21.012  0.00  0.00    +0.000 A 
ATOM     18  C   UNL     1      -0.648  13.795  20.225  0.00  0.00    +0.000 C 
ATOM     19  N   UNL     1      -0.316  12.639  22.331  0.00  0.00    +0.000 NA
ATOM     20  O   UNL     1      -0.254  11.345  22.796  0.00  0.00    +0.000 OA
ATOM     21  C   UNL     1      -0.409  10.477  21.762  0.00  0.00    +0.000 A 
ATOM     22  C   UNL     1      -0.373   9.046  22.130  0.00  0.00    +0.000 C 
ENDBRANCH  14  16
ENDBRANCH  13  14
ENDBRANCH  12  13
ENDBRANCH   9  12
ENDBRANCH   3   8
BRANCH   1  23
ATOM     23  S   UNL     1       4.952   4.399  18.146  0.00  0.00    +0.000 S 
ATOM     24  O   UNL     1       4.359   3.560  17.125  0.00  0.00    +0.000 OA
ATOM     25  O   UNL     1       5.988   3.874  19.008  0.00  0.00    +0.000 OA
BRANCH  23  26
ATOM     26  N   UNL     1       5.604   5.799  17.383  0.00  0.00    +0.000 NA
BRANCH  26  28
ATOM     27  C   UNL     1       7.376   7.584  17.511  0.00  0.00    +0.000 C 
ATOM     28  C   UNL     1       6.988   6.146  17.822  0.00  0.00    +0.000 C 
ENDBRANCH  26  28
BRANCH  26  29
ATOM     29  C   UNL     1       5.371   5.835  15.906  0.00  0.00    +0.000 C 
ATOM     30  C   UNL     1       6.425   5.087  15.106  0.00  0.00    +0.000 C 
ENDBRANCH  26  29
ENDBRANCH  23  26
ENDBRANCH   1  23
TORSDOF 9
ENDMDL
MODEL 2
REMARK VINA RESULT:      -7.2      0.983      1.815
REMARK  Name = 
REMARK  14 active torsions:
REMARK  status: ('A' for Active; 'I' for Inactive)
REMARK    1  A    between atoms: C_1  and  C_2
REMARK    2  A    between atoms: C_2  and  N_3
REMARK    3  A    between atoms: N_3  and  C_4
REMARK    4  A    between atoms: N_3  and  S_6
REMARK    5  A    between atoms: C_4  and  C_5
REMARK    6  A    between atoms: S_6  and  C_9
REMARK    7  A    between atoms: C_11  and  N_12
REMARK    8  A    between atoms: C_13  and  C_15
REMARK    9  A    between atoms: C_15  and  O_16
REMARK   10  A    between atoms: O_16  and  C_17
REMARK   11  A    between atoms: C_17  and  C_19
REMARK   12  A    between atoms: C_20  and  C_21
REMARK   13  A    between atoms: C_24  and  C_25
REMARK   14  A    between atoms: C_28  and  C_29
REMARK                            x       y       z     vdW  Elec       q    Type
REMARK                         _______ _______ _______ _____ _____    ______ ____
ROOT
ATOM      1  C   UNL     1       3.670   5.072  19.180  0.00  0.00    +0.000 A 
ATOM      2  C   UNL     1       3.354   6.424  18.944  0.00  0.00    +0.000 A 
ATOM      3  C   UNL     1       2.303   7.047  19.618  0.00  0.00    +0.000 A 
ATOM      4  C   UNL     1       1.549   6.287  20.518  0.00  0.00    +0.000 A 
ATOM      5  C   UNL     1       1.856   4.941  20.754  0.00  0.00    +0.000 A 
ATOM      6  C   UNL     1       2.927   4.311  20.098  0.00  0.00    +0.000 A 
ATOM      7  C   UNL     1       3.211   2.872  20.422  0.00  0.00    +0.000 C 
ENDROOT
BRANCH   3   8
ATOM      8  N   UNL     1       1.950   8.408  19.449  0.00  0.00    +0.000 N 
ATOM      9  C   UNL     1       1.935   9.120  18.261  0.00  0.00    +0.000 C 
ATOM     10  O   UNL     1       2.239   8.686  17.152  0.00  0.00    +0.000 OA
ATOM     11  H   UNL     1       1.774   8.927  20.303  0.00  0.00    +0.000 HD
BRANCH   9  12
ATOM     12  C   UNL     1       1.524  10.586  18.411  0.00  0.00    +0.000 C 
BRANCH  12  13
ATOM     13  O   UNL     1       0.422  10.720  19.316  0.00  0.00    +0.000 OA
BRANCH  13  14
ATOM     14  C   UNL     1       0.643  11.610  20.327  0.00  0.00    +0.000 C 
ATOM     15  O   UNL     1       1.512  12.474  20.268  0.00  0.00    +0.000 OA
BRANCH  14  16
ATOM     16  C   UNL     1      -0.229  11.427  21.469  0.00  0.00    +0.000 A 
ATOM     17  C   UNL     1      -0.171  10.422  22.479  0.00  0.00    +0.000 A 
ATOM     18  C   UNL     1       0.777   9.295  22.649  0.00  0.00    +0.000 C 
ATOM     19  N   UNL     1      -1.153  10.571  23.378  0.00  0.00    +0.000 NA
ATOM     20  O   UNL     1      -1.858  11.686  22.984  0.00  0.00    +0.000 OA
ATOM     21  C   UNL     1      -1.312  12.198  21.849  0.00  0.00    +0.000 A 
ATOM     22  C   UNL     1      -1.973  13.412  21.325  0.00  0.00    +0.000 C 
ENDBRANCH  14  16
ENDBRANCH  13  14
ENDBRANCH  12  13
ENDBRANCH   9  12
ENDBRANCH   3   8
BRANCH   1  23
ATOM     23  S   UNL     1       5.018   4.413  18.203  0.00  0.00    +0.000 S 
ATOM     24  O   UNL     1       4.428   3.565  17.188  0.00  0.00    +0.000 OA
ATOM     25  O   UNL     1       6.051   3.895  19.074  0.00  0.00    +0.000 OA
BRANCH  23  26
ATOM     26  N   UNL     1       5.675   5.805  17.429  0.00  0.00    +0.000 NA
BRANCH  26  28
ATOM     27  C   UNL     1       7.395   7.639  17.570  0.00  0.00    +0.000 C 
ATOM     28  C   UNL     1       7.017   6.212  17.940  0.00  0.00    +0.000 C 
ENDBRANCH  26  28
BRANCH  26  29
ATOM     29  C   UNL     1       5.535   5.780  15.940  0.00  0.00    +0.000 C 
ATOM     30  C   UNL     1       6.656   5.033  15.236  0.00  0.00    +0.000 C 
ENDBRANCH  26  29
ENDBRANCH  23  26
ENDBRANCH   1  23
TORSDOF 9
ENDMDL
MODEL 3
REMARK VINA RESULT:      -7.1      1.665      2.394
REMARK  Name = 
REMARK  14 active torsions:
REMARK  status: ('A' for Active; 'I' for Inactive)
REMARK    1  A    between atoms: C_1  and  C_2
REMARK    2  A    between atoms: C_2  and  N_3
REMARK    3  A    between atoms: N_3  and  C_4
REMARK    4  A    between atoms: N_3  and  S_6
REMARK    5  A    between atoms: C_4  and  C_5
REMARK    6  A    between atoms: S_6  and  C_9
REMARK    7  A    between atoms: C_11  and  N_12
REMARK    8  A    between atoms: C_13  and  C_15
REMARK    9  A    between atoms: C_15  and  O_16
REMARK   10  A    between atoms: O_16  and  C_17
REMARK   11  A    between atoms: C_17  and  C_19
REMARK   12  A    between atoms: C_20  and  C_21
REMARK   13  A    between atoms: C_24  and  C_25
REMARK   14  A    between atoms: C_28  and  C_29
REMARK                            x       y       z     vdW  Elec       q    Type
REMARK                         _______ _______ _______ _____ _____    ______ ____
ROOT
ATOM      1  C   UNL     1       3.976   4.937  19.066  0.00  0.00    +0.000 A 
ATOM      2  C   UNL     1       3.542   6.263  18.868  0.00  0.00    +0.000 A 
ATOM      3  C   UNL     1       2.447   6.775  19.563  0.00  0.00    +0.000 A 
ATOM      4  C   UNL     1       1.768   5.930  20.447  0.00  0.00    +0.000 A 
ATOM      5  C   UNL     1       2.192   4.610  20.646  0.00  0.00    +0.000 A 
ATOM      6  C   UNL     1       3.309   4.091  19.969  0.00  0.00    +0.000 A 
ATOM      7  C   UNL     1       3.718   2.674  20.253  0.00  0.00    +0.000 C 
ENDROOT
BRANCH   3   8
ATOM      8  N   UNL     1       1.976   8.104  19.431  0.00  0.00    +0.000 N 
ATOM      9  C   UNL     1       1.999   8.883  18.286  0.00  0.00    +0.000 C 
ATOM     10  O   UNL     1       2.446   8.548  17.191  0.00  0.00    +0.000 OA
ATOM     11  H   UNL     1       1.671   8.551  20.290  0.00  0.00    +0.000 HD
BRANCH   9  12
ATOM     12  C   UNL     1       1.431  10.291  18.471  0.00  0.00    +0.000 C 
BRANCH  12  13
ATOM     13  O   UNL     1       0.089  10.372  17.976  0.00  0.00    +0.000 OA
BRANCH  13  14
ATOM     14  C   UNL     1      -0.862  10.337  18.955  0.00  0.00    +0.000 C 
ATOM     15  O   UNL     1      -0.653   9.858  20.064  0.00  0.00    +0.000 OA
BRANCH  14  16
ATOM     16  C   UNL     1      -2.135  10.904  18.554  0.00  0.00    +0.000 A 
ATOM     17  C   UNL     1      -2.914  11.896  19.218  0.00  0.00    +0.000 A 
ATOM     18  C   UNL     1      -2.656  12.620  20.486  0.00  0.00    +0.000 C 
ATOM     19  N   UNL     1      -4.040  12.167  18.546  0.00  0.00    +0.000 NA
ATOM     20  O   UNL     1      -4.009  11.372  17.423  0.00  0.00    +0.000 OA
ATOM     21  C   UNL     1      -2.878  10.619  17.424  0.00  0.00    +0.000 A 
ATOM     22  C   UNL     1      -2.716   9.724  16.258  0.00  0.00    +0.000 C 
ENDBRANCH  14  16
ENDBRANCH  13  14
ENDBRANCH  12  13
ENDBRANCH   9  12
ENDBRANCH   3   8
BRANCH   1  23
ATOM     23  S   UNL     1       5.369   4.423  18.066  0.00  0.00    +0.000 S 
ATOM     24  O   UNL     1       4.890   3.383  17.178  0.00  0.00    +0.000 OA
ATOM     25  O   UNL     1       6.521   4.186  18.909  0.00  0.00    +0.000 OA
BRANCH  23  26
ATOM     26  N   UNL     1       5.725   5.818  17.121  0.00  0.00    +0.000 NA
BRANCH  26  28
ATOM     27  C   UNL     1       7.317   7.708  17.607  0.00  0.00    +0.000 C 
ATOM     28  C   UNL     1       7.152   6.255  17.189  0.00  0.00    +0.000 C 
ENDBRANCH  26  28
BRANCH  26  29
ATOM     29  C   UNL     1       5.132   5.776  15.749  0.00  0.00    +0.000 C 
ATOM     30  C   UNL     1       6.057   5.173  14.704  0.00  0.00    +0.000 C 
ENDBRANCH  26  29
ENDBRANCH  23  26
ENDBRANCH   1  23
TORSDOF 9
ENDMDL
MODEL 4
REMARK VINA RESULT:      -7.0      1.866      2.595
REMARK  Name = 
REMARK  14 active torsions:
REMARK  status: ('A' for Active; 'I' for Inactive)
REMARK    1  A    between atoms: C_1  and  C_2
REMARK    2  A    between atoms: C_2  and  N_3
REMARK    3  A    between atoms: N_3  and  C_4
REMARK    4  A    between atoms: N_3  and  S_6
REMARK    5  A    between atoms: C_4  and  C_5
REMARK    6  A    between atoms: S_6  and  C_9
REMARK    7  A    between atoms: C_11  and  N_12
REMARK    8  A    between atoms: C_13  and  C_15
REMARK    9  A    between atoms: C_15  and  O_16
REMARK   10  A    between atoms: O_16  and  C_17
REMARK   11  A    between atoms: C_17  and  C_19
REMARK   12  A    between atoms: C_20  and  C_21
REMARK   13  A    between atoms: C_24  and  C_25
REMARK   14  A    between atoms: C_28  and  C_29
REMARK                            x       y       z     vdW  Elec       q    Type
REMARK                         _______ _______ _______ _____ _____    ______ ____
ROOT
ATOM      1  C   UNL     1       3.158   4.214  19.290  0.00  0.00    +0.000 A 
ATOM      2  C   UNL     1       2.978   5.469  19.905  0.00  0.00    +0.000 A 
ATOM      3  C   UNL     1       1.786   5.790  20.554  0.00  0.00    +0.000 A 
ATOM      4  C   UNL     1       0.756   4.843  20.556  0.00  0.00    +0.000 A 
ATOM      5  C   UNL     1       0.927   3.596  19.944  0.00  0.00    +0.000 A 
ATOM      6  C   UNL     1       2.132   3.253  19.308  0.00  0.00    +0.000 A 
ATOM      7  C   UNL     1       2.250   1.887  18.694  0.00  0.00    +0.000 C 
ENDROOT
BRANCH   3   8
ATOM      8  N   UNL     1       1.550   7.020  21.215  0.00  0.00    +0.000 N 
ATOM      9  C   UNL     1       1.474   8.274  20.632  0.00  0.00    +0.000 C 
ATOM     10  O   UNL     1       1.612   8.527  19.437  0.00  0.00    +0.000 OA
ATOM     11  H   UNL     1       1.519   6.977  22.228  0.00  0.00    +0.000 HD
BRANCH   9  12
ATOM     12  C   UNL     1       1.227   9.414  21.621  0.00  0.00    +0.000 C 
BRANCH  12  13
ATOM     13  O   UNL     1      -0.057  10.012  21.404  0.00  0.00    +0.000 OA
BRANCH  13  14
ATOM     14  C   UNL     1      -0.009  11.188  20.713  0.00  0.00    +0.000 C 
ATOM     15  O   UNL     1       0.992  11.897  20.685  0.00  0.00    +0.000 OA
BRANCH  14  16
ATOM     16  C   UNL     1      -1.246  11.521  20.037  0.00  0.00    +0.000 A 
ATOM     17  C   UNL     1      -1.731  11.041  18.785  0.00  0.00    +0.000 A 
ATOM     18  C   UNL     1      -1.122  10.083  17.830  0.00  0.00    +0.000 C 
ATOM     19  N   UNL     1      -2.919  11.578  18.479  0.00  0.00    +0.000 NA
ATOM     20  O   UNL     1      -3.241  12.403  19.533  0.00  0.00    +0.000 OA
ATOM     21  C   UNL     1      -2.249  12.373  20.461  0.00  0.00    +0.000 A 
ATOM     22  C   UNL     1      -2.479  13.212  21.656  0.00  0.00    +0.000 C 
ENDBRANCH  14  16
ENDBRANCH  13  14
ENDBRANCH  12  13
ENDBRANCH   9  12
ENDBRANCH   3   8
BRANCH   1  23
ATOM     23  S   UNL     1       4.729   3.977  18.464  0.00  0.00    +0.000 S 
ATOM     24  O   UNL     1       4.436   3.692  17.074  0.00  0.00    +0.000 OA
ATOM     25  O   UNL     1       5.558   3.075  19.233  0.00  0.00    +0.000 OA
BRANCH  23  26
ATOM     26  N   UNL     1       5.470   5.529  18.553  0.00  0.00    +0.000 NA
BRANCH  26  28
ATOM     27  C   UNL     1       7.812   6.450  18.639  0.00  0.00    +0.000 C 
ATOM     28  C   UNL     1       6.774   5.543  19.281  0.00  0.00    +0.000 C 
ENDBRANCH  26  28
BRANCH  26  29
ATOM     29  C   UNL     1       5.451   6.274  17.256  0.00  0.00    +0.000 C 
ATOM     30  C   UNL     1       4.304   7.264  17.141  0.00  0.00    +0.000 C 
ENDBRANCH  26  29
ENDBRANCH  23  26
ENDBRANCH   1  23
TORSDOF 9
ENDMDL
MODEL 5
REMARK VINA RESULT:      -6.9      2.874      8.994
REMARK  Name = 
REMARK  14 active torsions:
REMARK  status: ('A' for Active; 'I' for Inactive)
REMARK    1  A    between atoms: C_1  and  C_2
REMARK    2  A    between atoms: C_2  and  N_3
REMARK    3  A    between atoms: N_3  and  C_4
REMARK    4  A    between atoms: N_3  and  S_6
REMARK    5  A    between atoms: C_4  and  C_5
REMARK    6  A    between atoms: S_6  and  C_9
REMARK    7  A    between atoms: C_11  and  N_12
REMARK    8  A    between atoms: C_13  and  C_15
REMARK    9  A    between atoms: C_15  and  O_16
REMARK   10  A    between atoms: O_16  and  C_17
REMARK   11  A    between atoms: C_17  and  C_19
REMARK   12  A    between atoms: C_20  and  C_21
REMARK   13  A    between atoms: C_24  and  C_25
REMARK   14  A    between atoms: C_28  and  C_29
REMARK                            x       y       z     vdW  Elec       q    Type
REMARK                         _______ _______ _______ _____ _____    ______ ____
ROOT
ATOM      1  C   UNL     1       0.114  11.564  19.663  0.00  0.00    +0.000 A 
ATOM      2  C   UNL     1       1.199  10.762  19.260  0.00  0.00    +0.000 A 
ATOM      3  C   UNL     1       1.052   9.797  18.264  0.00  0.00    +0.000 A 
ATOM      4  C   UNL     1      -0.212   9.623  17.690  0.00  0.00    +0.000 A 
ATOM      5  C   UNL     1      -1.296  10.415  18.088  0.00  0.00    +0.000 A 
ATOM      6  C   UNL     1      -1.153  11.406  19.074  0.00  0.00    +0.000 A 
ATOM      7  C   UNL     1      -2.355  12.233  19.431  0.00  0.00    +0.000 C 
ENDROOT
BRANCH   3   8
ATOM      8  N   UNL     1       2.106   8.976  17.794  0.00  0.00    +0.000 N 
ATOM      9  C   UNL     1       2.615   7.844  18.408  0.00  0.00    +0.000 C 
ATOM     10  O   UNL     1       2.238   7.369  19.477  0.00  0.00    +0.000 OA
ATOM     11  H   UNL     1       2.588   9.309  16.965  0.00  0.00    +0.000 HD
BRANCH   9  12
ATOM     12  C   UNL     1       3.773   7.185  17.657  0.00  0.00    +0.000 C 
BRANCH  12  13
ATOM     13  O   UNL     1       3.420   5.864  17.228  0.00  0.00    +0.000 OA
BRANCH  13  14
ATOM     14  C   UNL     1       4.183   4.881  17.787  0.00  0.00    +0.000 C 
ATOM     15  O   UNL     1       3.744   4.097  18.621  0.00  0.00    +0.000 OA
BRANCH  14  16
ATOM     16  C   UNL     1       5.553   4.863  17.313  0.00  0.00    +0.000 A 
ATOM     17  C   UNL     1       6.749   5.117  18.045  0.00  0.00    +0.000 A 
ATOM     18  C   UNL     1       6.937   5.468  19.473  0.00  0.00    +0.000 C 
ATOM     19  N   UNL     1       7.834   5.013  17.266  0.00  0.00    +0.000 NA
ATOM     20  O   UNL     1       7.368   4.670  16.016  0.00  0.00    +0.000 OA
ATOM     21  C   UNL     1       6.012   4.580  16.040  0.00  0.00    +0.000 A 
ATOM     22  C   UNL     1       5.384   4.205  14.755  0.00  0.00    +0.000 C 
ENDBRANCH  14  16
ENDBRANCH  13  14
ENDBRANCH  12  13
ENDBRANCH   9  12
ENDBRANCH   3   8
BRANCH   1  23
ATOM     23  S   UNL     1       0.459  12.725  20.982  0.00  0.00    +0.000 S 
ATOM     24  O   UNL     1      -0.260  13.943  20.671  0.00  0.00    +0.000 OA
ATOM     25  O   UNL     1       1.882  12.765  21.243  0.00  0.00    +0.000 OA
BRANCH  23  26
ATOM     26  N   UNL     1      -0.277  12.000  22.361  0.00  0.00    +0.000 NA
BRANCH  26  28
ATOM     27  C   UNL     1      -2.687  12.166  23.072  0.00  0.00    +0.000 C 
ATOM     28  C   UNL     1      -1.326  12.843  23.007  0.00  0.00    +0.000 C 
ENDBRANCH  26  28
BRANCH  26  29
ATOM     29  C   UNL     1      -0.644  10.565  22.155  0.00  0.00    +0.000 C 
ATOM     30  C   UNL     1       0.012   9.621  23.150  0.00  0.00    +0.000 C 
ENDBRANCH  26  29
ENDBRANCH  23  26
ENDBRANCH   1  23
TORSDOF 9
ENDMDL
MODEL 6
REMARK VINA RESULT:      -6.9      1.519      2.130
REMARK  Name = 
REMARK  14 active torsions:
REMARK  status: ('A' for Active; 'I' for Inactive)
REMARK    1  A    between atoms: C_1  and  C_2
REMARK    2  A    between atoms: C_2  and  N_3
REMARK    3  A    between atoms: N_3  and  C_4
REMARK    4  A    between atoms: N_3  and  S_6
REMARK    5  A    between atoms: C_4  and  C_5
REMARK    6  A    between atoms: S_6  and  C_9
REMARK    7  A    between atoms: C_11  and  N_12
REMARK    8  A    between atoms: C_13  and  C_15
REMARK    9  A    between atoms: C_15  and  O_16
REMARK   10  A    between atoms: O_16  and  C_17
REMARK   11  A    between atoms: C_17  and  C_19
REMARK   12  A    between atoms: C_20  and  C_21
REMARK   13  A    between atoms: C_24  and  C_25
REMARK   14  A    between atoms: C_28  and  C_29
REMARK                            x       y       z     vdW  Elec       q    Type
REMARK                         _______ _______ _______ _____ _____    ______ ____
ROOT
ATOM      1  C   UNL     1       3.959   4.348  18.798  0.00  0.00    +0.000 A 
ATOM      2  C   UNL     1       3.569   5.522  19.473  0.00  0.00    +0.000 A 
ATOM      3  C   UNL     1       2.355   5.591  20.157  0.00  0.00    +0.000 A 
ATOM      4  C   UNL     1       1.517   4.472  20.136  0.00  0.00    +0.000 A 
ATOM      5  C   UNL     1       1.897   3.303  19.464  0.00  0.00    +0.000 A 
ATOM      6  C   UNL     1       3.128   3.215  18.792  0.00  0.00    +0.000 A 
ATOM      7  C   UNL     1       3.477   1.920  18.115  0.00  0.00    +0.000 C 
ENDROOT
BRANCH   3   8
ATOM      8  N   UNL     1       1.915   6.729  20.877  0.00  0.00    +0.000 N 
ATOM      9  C   UNL     1       1.667   7.991  20.364  0.00  0.00    +0.000 C 
ATOM     10  O   UNL     1       1.800   8.335  19.191  0.00  0.00    +0.000 OA
ATOM     11  H   UNL     1       1.862   6.619  21.884  0.00  0.00    +0.000 HD
BRANCH   9  12
ATOM     12  C   UNL     1       1.220   9.018  21.405  0.00  0.00    +0.000 C 
BRANCH  12  13
ATOM     13  O   UNL     1      -0.173   9.322  21.260  0.00  0.00    +0.000 OA
BRANCH  13  14
ATOM     14  C   UNL     1      -0.416  10.470  20.562  0.00  0.00    +0.000 C 
ATOM     15  O   UNL     1      -0.797  10.467  19.396  0.00  0.00    +0.000 OA
BRANCH  14  16
ATOM     16  C   UNL     1      -0.169  11.679  21.322  0.00  0.00    +0.000 A 
ATOM     17  C   UNL     1      -0.833  12.143  22.495  0.00  0.00    +0.000 A 
ATOM     18  C   UNL     1      -1.948  11.536  23.262  0.00  0.00    +0.000 C 
ATOM     19  N   UNL     1      -0.331  13.311  22.915  0.00  0.00    +0.000 NA
ATOM     20  O   UNL     1       0.682  13.623  22.037  0.00  0.00    +0.000 OA
ATOM     21  C   UNL     1       0.781  12.656  21.088  0.00  0.00    +0.000 A 
ATOM     22  C   UNL     1       1.846  12.866  20.084  0.00  0.00    +0.000 C 
ENDBRANCH  14  16
ENDBRANCH  13  14
ENDBRANCH  12  13
ENDBRANCH   9  12
ENDBRANCH   3   8
BRANCH   1  23
ATOM     23  S   UNL     1       5.524   4.439  17.934  0.00  0.00    +0.000 S 
ATOM     24  O   UNL     1       5.314   3.870  16.619  0.00  0.00    +0.000 OA
ATOM     25  O   UNL     1       6.585   3.939  18.782  0.00  0.00    +0.000 OA
BRANCH  23  26
ATOM     26  N   UNL     1       5.790   6.132  17.754  0.00  0.00    +0.000 NA
BRANCH  26  28
ATOM     27  C   UNL     1       7.559   7.907  17.512  0.00  0.00    +0.000 C 
ATOM     28  C   UNL     1       7.160   6.580  18.140  0.00  0.00    +0.000 C 
ENDBRANCH  26  28
BRANCH  26  29
ATOM     29  C   UNL     1       5.275   6.681  16.462  0.00  0.00    +0.000 C 
ATOM     30  C   UNL     1       3.953   7.418  16.599  0.00  0.00    +0.000 C 
ENDBRANCH  26  29
ENDBRANCH  23  26
ENDBRANCH   1  23
TORSDOF 9
ENDMDL
MODEL 7
REMARK VINA RESULT:      -6.8      1.637      2.385
REMARK  Name = 
REMARK  14 active torsions:
REMARK  status: ('A' for Active; 'I' for Inactive)
REMARK    1  A    between atoms: C_1  and  C_2
REMARK    2  A    between atoms: C_2  and  N_3
REMARK    3  A    between atoms: N_3  and  C_4
REMARK    4  A    between atoms: N_3  and  S_6
REMARK    5  A    between atoms: C_4  and  C_5
REMARK    6  A    between atoms: S_6  and  C_9
REMARK    7  A    between atoms: C_11  and  N_12
REMARK    8  A    between atoms: C_13  and  C_15
REMARK    9  A    between atoms: C_15  and  O_16
REMARK   10  A    between atoms: O_16  and  C_17
REMARK   11  A    between atoms: C_17  and  C_19
REMARK   12  A    between atoms: C_20  and  C_21
REMARK   13  A    between atoms: C_24  and  C_25
REMARK   14  A    between atoms: C_28  and  C_29
REMARK                            x       y       z     vdW  Elec       q    Type
REMARK                         _______ _______ _______ _____ _____    ______ ____
ROOT
ATOM      1  C   UNL     1       4.234   4.909  18.853  0.00  0.00    +0.000 A 
ATOM      2  C   UNL     1       3.705   5.867  19.740  0.00  0.00    +0.000 A 
ATOM      3  C   UNL     1       2.348   5.878  20.065  0.00  0.00    +0.000 A 
ATOM      4  C   UNL     1       1.515   4.927  19.465  0.00  0.00    +0.000 A 
ATOM      5  C   UNL     1       2.034   3.974  18.580  0.00  0.00    +0.000 A 
ATOM      6  C   UNL     1       3.403   3.940  18.265  0.00  0.00    +0.000 A 
ATOM      7  C   UNL     1       3.890   2.873  17.327  0.00  0.00    +0.000 C 
ENDROOT
BRANCH   3   8
ATOM      8  N   UNL     1       1.757   6.794  20.968  0.00  0.00    +0.000 N 
ATOM      9  C   UNL     1       1.403   8.107  20.706  0.00  0.00    +0.000 C 
ATOM     10  O   UNL     1       1.556   8.699  19.639  0.00  0.00    +0.000 OA
ATOM     11  H   UNL     1       1.666   6.473  21.926  0.00  0.00    +0.000 HD
BRANCH   9  12
ATOM     12  C   UNL     1       0.801   8.848  21.900  0.00  0.00    +0.000 C 
BRANCH  12  13
ATOM     13  O   UNL     1       1.058  10.255  21.813  0.00  0.00    +0.000 OA
BRANCH  13  14
ATOM     14  C   UNL     1      -0.068  11.014  21.669  0.00  0.00    +0.000 C 
ATOM     15  O   UNL     1      -0.986  10.995  22.482  0.00  0.00    +0.000 OA
BRANCH  14  16
ATOM     16  C   UNL     1      -0.078  11.823  20.467  0.00  0.00    +0.000 A 
ATOM     17  C   UNL     1       0.503  13.108  20.257  0.00  0.00    +0.000 A 
ATOM     18  C   UNL     1       1.267  13.973  21.188  0.00  0.00    +0.000 C 
ATOM     19  N   UNL     1       0.285  13.548  19.011  0.00  0.00    +0.000 NA
ATOM     20  O   UNL     1      -0.425  12.552  18.379  0.00  0.00    +0.000 OA
ATOM     21  C   UNL     1      -0.643  11.525  19.241  0.00  0.00    +0.000 A 
ATOM     22  C   UNL     1      -1.389  10.379  18.680  0.00  0.00    +0.000 C 
ENDBRANCH  14  16
ENDBRANCH  13  14
ENDBRANCH  12  13
ENDBRANCH   9  12
ENDBRANCH   3   8
BRANCH   1  23
ATOM     23  S   UNL     1       5.985   5.059  18.509  0.00  0.00    +0.000 S 
ATOM     24  O   UNL     1       6.321   4.013  17.566  0.00  0.00    +0.000 OA
ATOM     25  O   UNL     1       6.721   5.187  19.748  0.00  0.00    +0.000 OA
BRANCH  23  26
ATOM     26  N   UNL     1       6.108   6.575  17.700  0.00  0.00    +0.000 NA
BRANCH  26  28
ATOM     27  C   UNL     1       7.839   8.404  17.654  0.00  0.00    +0.000 C 
ATOM     28  C   UNL     1       7.503   6.957  17.327  0.00  0.00    +0.000 C 
ENDBRANCH  26  28
BRANCH  26  29
ATOM     29  C   UNL     1       5.082   6.764  16.628  0.00  0.00    +0.000 C 
ATOM     30  C   UNL     1       5.371   5.970  15.364  0.00  0.00    +0.000 C 
ENDBRANCH  26  29
ENDBRANCH  23  26
ENDBRANCH   1  23
TORSDOF 9
ENDMDL
MODEL 8
REMARK VINA RESULT:      -6.7      1.272      1.723
REMARK  Name = 
REMARK  14 active torsions:
REMARK  status: ('A' for Active; 'I' for Inactive)
REMARK    1  A    between atoms: C_1  and  C_2
REMARK    2  A    between atoms: C_2  and  N_3
REMARK    3  A    between atoms: N_3  and  C_4
REMARK    4  A    between atoms: N_3  and  S_6
REMARK    5  A    between atoms: C_4  and  C_5
REMARK    6  A    between atoms: S_6  and  C_9
REMARK    7  A    between atoms: C_11  and  N_12
REMARK    8  A    between atoms: C_13  and  C_15
REMARK    9  A    between atoms: C_15  and  O_16
REMARK   10  A    between atoms: O_16  and  C_17
REMARK   11  A    between atoms: C_17  and  C_19
REMARK   12  A    between atoms: C_20  and  C_21
REMARK   13  A    between atoms: C_24  and  C_25
REMARK   14  A    between atoms: C_28  and  C_29
REMARK                            x       y       z     vdW  Elec       q    Type
REMARK                         _______ _______ _______ _____ _____    ______ ____
ROOT
ATOM      1  C   UNL     1       3.599   5.063  19.747  0.00  0.00    +0.000 A 
ATOM      2  C   UNL     1       3.347   6.410  19.417  0.00  0.00    +0.000 A 
ATOM      3  C   UNL     1       2.165   7.039  19.808  0.00  0.00    +0.000 A 
ATOM      4  C   UNL     1       1.218   6.291  20.515  0.00  0.00    +0.000 A 
ATOM      5  C   UNL     1       1.460   4.952  20.843  0.00  0.00    +0.000 A 
ATOM      6  C   UNL     1       2.658   4.315  20.475  0.00  0.00    +0.000 A 
ATOM      7  C   UNL     1       2.858   2.884  20.884  0.00  0.00    +0.000 C 
ENDROOT
BRANCH   3   8
ATOM      8  N   UNL     1       1.861   8.394  19.533  0.00  0.00    +0.000 N 
ATOM      9  C   UNL     1       1.923   9.026  18.302  0.00  0.00    +0.000 C 
ATOM     10  O   UNL     1       2.266   8.511  17.240  0.00  0.00    +0.000 OA
ATOM     11  H   UNL     1       1.661   8.974  20.341  0.00  0.00    +0.000 HD
BRANCH   9  12
ATOM     12  C   UNL     1       1.550  10.509  18.335  0.00  0.00    +0.000 C 
BRANCH  12  13
ATOM     13  O   UNL     1       1.222  10.925  19.667  0.00  0.00    +0.000 OA
BRANCH  13  14
ATOM     14  C   UNL     1      -0.113  11.126  19.869  0.00  0.00    +0.000 C 
ATOM     15  O   UNL     1      -0.932  11.093  18.957  0.00  0.00    +0.000 OA
BRANCH  14  16
ATOM     16  C   UNL     1      -0.461  11.392  21.250  0.00  0.00    +0.000 A 
ATOM     17  C   UNL     1      -0.787  12.639  21.860  0.00  0.00    +0.000 A 
ATOM     18  C   UNL     1      -0.859  13.998  21.271  0.00  0.00    +0.000 C 
ATOM     19  N   UNL     1      -1.052  12.494  23.164  0.00  0.00    +0.000 NA
ATOM     20  O   UNL     1      -0.924  11.149  23.427  0.00  0.00    +0.000 OA
ATOM     21  C   UNL     1      -0.572  10.490  22.292  0.00  0.00    +0.000 A 
ATOM     22  C   UNL     1      -0.413   9.027  22.437  0.00  0.00    +0.000 C 
ENDBRANCH  14  16
ENDBRANCH  13  14
ENDBRANCH  12  13
ENDBRANCH   9  12
ENDBRANCH   3   8
BRANCH   1  23
ATOM     23  S   UNL     1       5.142   4.394  19.134  0.00  0.00    +0.000 S 
ATOM     24  O   UNL     1       5.280   3.067  19.697  0.00  0.00    +0.000 OA
ATOM     25  O   UNL     1       6.200   5.368  19.296  0.00  0.00    +0.000 OA
BRANCH  23  26
ATOM     26  N   UNL     1       4.870   4.236  17.440  0.00  0.00    +0.000 NA
BRANCH  26  28
ATOM     27  C   UNL     1       5.944   3.945  15.181  0.00  0.00    +0.000 C 
ATOM     28  C   UNL     1       6.082   4.472  16.601  0.00  0.00    +0.000 C 
ENDBRANCH  26  28
BRANCH  26  29
ATOM     29  C   UNL     1       4.062   3.031  17.077  0.00  0.00    +0.000 C 
ATOM     30  C   UNL     1       2.563   3.281  17.079  0.00  0.00    +0.000 C 
ENDBRANCH  26  29
ENDBRANCH  23  26
ENDBRANCH   1  23
TORSDOF 9
ENDMDL
MODEL 9
REMARK VINA RESULT:      -6.7      1.772      2.851
REMARK  Name = 
REMARK  14 active torsions:
REMARK  status: ('A' for Active; 'I' for Inactive)
REMARK    1  A    between atoms: C_1  and  C_2
REMARK    2  A    between atoms: C_2  and  N_3
REMARK    3  A    between atoms: N_3  and  C_4
REMARK    4  A    between atoms: N_3  and  S_6
REMARK    5  A    between atoms: C_4  and  C_5
REMARK    6  A    between atoms: S_6  and  C_9
REMARK    7  A    between atoms: C_11  and  N_12
REMARK    8  A    between atoms: C_13  and  C_15
REMARK    9  A    between atoms: C_15  and  O_16
REMARK   10  A    between atoms: O_16  and  C_17
REMARK   11  A    between atoms: C_17  and  C_19
REMARK   12  A    between atoms: C_20  and  C_21
REMARK   13  A    between atoms: C_24  and  C_25
REMARK   14  A    between atoms: C_28  and  C_29
REMARK                            x       y       z     vdW  Elec       q    Type
REMARK                         _______ _______ _______ _____ _____    ______ ____
ROOT
ATOM      1  C   UNL     1       3.036   4.290  19.467  0.00  0.00    +0.000 A 
ATOM      2  C   UNL     1       3.021   5.662  19.786  0.00  0.00    +0.000 A 
ATOM      3  C   UNL     1       1.913   6.248  20.396  0.00  0.00    +0.000 A 
ATOM      4  C   UNL     1       0.799   5.445  20.661  0.00  0.00    +0.000 A 
ATOM      5  C   UNL     1       0.805   4.082  20.343  0.00  0.00    +0.000 A 
ATOM      6  C   UNL     1       1.926   3.475  19.750  0.00  0.00    +0.000 A 
ATOM      7  C   UNL     1       1.868   2.003  19.460  0.00  0.00    +0.000 C 
ENDROOT
BRANCH   3   8
ATOM      8  N   UNL     1       1.843   7.613  20.768  0.00  0.00    +0.000 N 
ATOM      9  C   UNL     1       0.757   8.267  21.325  0.00  0.00    +0.000 C 
ATOM     10  O   UNL     1      -0.337   7.768  21.580  0.00  0.00    +0.000 OA
ATOM     11  H   UNL     1       2.647   8.180  20.518  0.00  0.00    +0.000 HD
BRANCH   9  12
ATOM     12  C   UNL     1       0.989   9.754  21.597  0.00  0.00    +0.000 C 
BRANCH  12  13
ATOM     13  O   UNL     1      -0.142  10.533  21.185  0.00  0.00    +0.000 OA
BRANCH  13  14
ATOM     14  C   UNL     1      -0.287  10.621  19.831  0.00  0.00    +0.000 C 
ATOM     15  O   UNL     1      -1.249  10.145  19.237  0.00  0.00    +0.000 OA
BRANCH  14  16
ATOM     16  C   UNL     1       0.802  11.311  19.169  0.00  0.00    +0.000 A 
ATOM     17  C   UNL     1       1.782  10.778  18.282  0.00  0.00    +0.000 A 
ATOM     18  C   UNL     1       1.971   9.392  17.790  0.00  0.00    +0.000 C 
ATOM     19  N   UNL     1       2.637  11.723  17.870  0.00  0.00    +0.000 NA
ATOM     20  O   UNL     1       2.220  12.893  18.464  0.00  0.00    +0.000 OA
ATOM     21  C   UNL     1       1.130  12.652  19.238  0.00  0.00    +0.000 A 
ATOM     22  C   UNL     1       0.573  13.836  19.927  0.00  0.00    +0.000 C 
ENDBRANCH  14  16
ENDBRANCH  13  14
ENDBRANCH  12  13
ENDBRANCH   9  12
ENDBRANCH   3   8
BRANCH   1  23
ATOM     23  S   UNL     1       4.516   3.703  18.648  0.00  0.00    +0.000 S 
ATOM     24  O   UNL     1       4.090   3.024  17.442  0.00  0.00    +0.000 OA
ATOM     25  O   UNL     1       5.372   3.029  19.600  0.00  0.00    +0.000 OA
BRANCH  23  26
ATOM     26  N   UNL     1       5.328   5.153  18.193  0.00  0.00    +0.000 NA
BRANCH  26  28
ATOM     27  C   UNL     1       7.826   4.892  18.014  0.00  0.00    +0.000 C 
ATOM     28  C   UNL     1       6.648   5.349  18.862  0.00  0.00    +0.000 C 
ENDBRANCH  26  28
BRANCH  26  29
ATOM     29  C   UNL     1       5.310   5.409  16.720  0.00  0.00    +0.000 C 
ATOM     30  C   UNL     1       4.876   6.818  16.352  0.00  0.00    +0.000 C 
ENDBRANCH  26  29
ENDBRANCH  23  26
ENDBRANCH   1  23
TORSDOF 9
ENDMDL
