MODEL 1
REMARK VINA RESULT:      -8.8      0.000      0.000
REMARK  Name = 
REMARK  8 active torsions:
REMARK  status: ('A' for Active; 'I' for Inactive)
REMARK    1  A    between atoms: C_1  and  O_2
REMARK    2  A    between atoms: O_2  and  C_3
REMARK    3  A    between atoms: C_8  and  C_9
REMARK    4  A    between atoms: C_9  and  N_10
REMARK    5  A    between atoms: C_12  and  C_13
REMARK    6  A    between atoms: N_15  and  C_16
REMARK    7  A    between atoms: C_16  and  C_17
REMARK    8  A    between atoms: C_17  and  C_18
REMARK                            x       y       z     vdW  Elec       q    Type
REMARK                         _______ _______ _______ _____ _____    ______ ____
ROOT
ATOM      1  N   UNL     1       5.148   4.637  17.379  0.00  0.00    +0.000 N 
ATOM      2  C   UNL     1       5.679   5.400  18.480  0.00  0.00    +0.000 C 
ATOM      3  C   UNL     1       7.135   5.670  18.113  0.00  0.00    +0.000 C 
ATOM      4  C   UNL     1       7.459   4.675  17.002  0.00  0.00    +0.000 C 
ATOM      5  C   UNL     1       6.117   4.209  16.500  0.00  0.00    +0.000 C 
ATOM      6  O   UNL     1       5.964   3.503  15.516  0.00  0.00    +0.000 OA
ENDROOT
BRANCH   3   7
ATOM      7  C   UNL     1       7.368   7.111  17.701  0.00  0.00    +0.000 C 
ATOM      8  O   UNL     1       6.750   7.655  16.792  0.00  0.00    +0.000 OA
ATOM      9  N   UNL     1       8.268   7.806  18.490  0.00  0.00    +0.000 N 
ATOM     10  H   UNL     1       8.881   7.305  19.119  0.00  0.00    +0.000 HD
BRANCH   9  11
ATOM     11  C   UNL     1       8.596   9.165  18.115  0.00  0.00    +0.000 C 
BRANCH  11  12
ATOM     12  C   UNL     1       9.153  10.011  19.258  0.00  0.00    +0.000 C 
BRANCH  12  13
ATOM     13  C   UNL     1       9.922  11.174  18.681  0.00  0.00    +0.000 A 
ATOM     14  C   UNL     1      11.269  11.369  19.021  0.00  0.00    +0.000 A 
ATOM     15  C   UNL     1      11.945  12.514  18.599  0.00  0.00    +0.000 A 
ATOM     16  C   UNL     1      11.278  13.469  17.834  0.00  0.00    +0.000 A 
ATOM     17 CL   UNL     1      12.102  14.897  17.340  0.00  0.00    +0.000 Cl
ATOM     18  C   UNL     1       9.944  13.284  17.479  0.00  0.00    +0.000 A 
ATOM     19  C   UNL     1       9.267  12.138  17.901  0.00  0.00    +0.000 A 
ENDBRANCH  12  13
ENDBRANCH  11  12
ENDBRANCH   9  11
ENDBRANCH   3   7
BRANCH   1  20
ATOM     20  C   UNL     1       3.774   4.157  17.380  0.00  0.00    +0.000 C 
BRANCH  20  26
ATOM     21  C   UNL     1       2.416   5.109  19.331  0.00  0.00    +0.000 A 
ATOM     22  C   UNL     1       1.880   4.952  20.618  0.00  0.00    +0.000 A 
ATOM     23  C   UNL     1       2.114   3.789  21.352  0.00  0.00    +0.000 A 
ATOM     24  C   UNL     1       2.861   2.759  20.797  0.00  0.00    +0.000 A 
ATOM     25  C   UNL     1       3.358   2.886  19.501  0.00  0.00    +0.000 A 
ATOM     26  C   UNL     1       3.147   4.058  18.750  0.00  0.00    +0.000 A 
BRANCH  21  28
ATOM     27  C   UNL     1       2.312   7.473  19.336  0.00  0.00    +0.000 C 
ATOM     28  O   UNL     1       2.265   6.257  18.591  0.00  0.00    +0.000 OA
ENDBRANCH  21  28
ENDBRANCH  20  26
ENDBRANCH   1  20
TORSDOF 7
ENDMDL
MODEL 2
REMARK VINA RESULT:      -8.6      0.973      1.759
REMARK  Name = 
REMARK  8 active torsions:
REMARK  status: ('A' for Active; 'I' for Inactive)
REMARK    1  A    between atoms: C_1  and  O_2
REMARK    2  A    between atoms: O_2  and  C_3
REMARK    3  A    between atoms: C_8  and  C_9
REMARK    4  A    between atoms: C_9  and  N_10
REMARK    5  A    between atoms: C_12  and  C_13
REMARK    6  A    between atoms: N_15  and  C_16
REMARK    7  A    between atoms: C_16  and  C_17
REMARK    8  A    between atoms: C_17  and  C_18
REMARK                            x       y       z     vdW  Elec       q    Type
REMARK                         _______ _______ _______ _____ _____    ______ ____
ROOT
ATOM      1  N   UNL     1       5.291   4.580  17.483  0.00  0.00    +0.000 N 
ATOM      2  C   UNL     1       6.006   5.269  18.528  0.00  0.00    +0.000 C 
ATOM      3  C   UNL     1       7.353   5.638  17.913  0.00  0.00    +0.000 C 
ATOM      4  C   UNL     1       7.481   4.760  16.670  0.00  0.00    +0.000 C 
ATOM      5  C   UNL     1       6.081   4.277  16.397  0.00  0.00    +0.000 C 
ATOM      6  O   UNL     1       5.757   3.652  15.398  0.00  0.00    +0.000 OA
ENDROOT
BRANCH   3   7
ATOM      7  C   UNL     1       7.457   7.119  17.602  0.00  0.00    +0.000 C 
ATOM      8  O   UNL     1       6.819   7.661  16.706  0.00  0.00    +0.000 OA
ATOM      9  N   UNL     1       8.260   7.842  18.467  0.00  0.00    +0.000 N 
ATOM     10  H   UNL     1       8.897   7.361  19.087  0.00  0.00    +0.000 HD
BRANCH   9  11
ATOM     11  C   UNL     1       8.465   9.249  18.192  0.00  0.00    +0.000 C 
BRANCH  11  12
ATOM     12  C   UNL     1       9.210   9.998  19.294  0.00  0.00    +0.000 C 
BRANCH  12  13
ATOM     13  C   UNL     1       9.978  11.143  18.679  0.00  0.00    +0.000 A 
ATOM     14  C   UNL     1      11.311  11.378  19.047  0.00  0.00    +0.000 A 
ATOM     15  C   UNL     1      11.981  12.512  18.586  0.00  0.00    +0.000 A 
ATOM     16  C   UNL     1      11.323  13.414  17.753  0.00  0.00    +0.000 A 
ATOM     17 CL   UNL     1      12.139  14.828  17.209  0.00  0.00    +0.000 Cl
ATOM     18  C   UNL     1      10.003  13.188  17.369  0.00  0.00    +0.000 A 
ATOM     19  C   UNL     1       9.332  12.054  17.831  0.00  0.00    +0.000 A 
ENDBRANCH  12  13
ENDBRANCH  11  12
ENDBRANCH   9  11
ENDBRANCH   3   7
BRANCH   1  20
ATOM     20  C   UNL     1       3.960   4.037  17.705  0.00  0.00    +0.000 C 
BRANCH  20  26
ATOM     21  C   UNL     1       2.375   4.116  19.716  0.00  0.00    +0.000 A 
ATOM     22  C   UNL     1       1.630   4.869  20.634  0.00  0.00    +0.000 A 
ATOM     23  C   UNL     1       1.598   6.262  20.558  0.00  0.00    +0.000 A 
ATOM     24  C   UNL     1       2.334   6.918  19.581  0.00  0.00    +0.000 A 
ATOM     25  C   UNL     1       3.116   6.181  18.693  0.00  0.00    +0.000 A 
ATOM     26  C   UNL     1       3.148   4.774  18.743  0.00  0.00    +0.000 A 
BRANCH  21  28
ATOM     27  C   UNL     1       1.239   2.120  19.145  0.00  0.00    +0.000 C 
ATOM     28  O   UNL     1       2.392   2.741  19.711  0.00  0.00    +0.000 OA
ENDBRANCH  21  28
ENDBRANCH  20  26
ENDBRANCH   1  20
TORSDOF 7
ENDMDL
MODEL 3
REMARK VINA RESULT:      -8.5      1.612      2.441
REMARK  Name = 
REMARK  8 active torsions:
REMARK  status: ('A' for Active; 'I' for Inactive)
REMARK    1  A    between atoms: C_1  and  O_2
REMARK    2  A    between atoms: O_2  and  C_3
REMARK    3  A    between atoms: C_8  and  C_9
REMARK    4  A    between atoms: C_9  and  N_10
REMARK    5  A    between atoms: C_12  and  C_13
REMARK    6  A    between atoms: N_15  and  C_16
REMARK    7  A    between atoms: C_16  and  C_17
REMARK    8  A    between atoms: C_17  and  C_18
REMARK                            x       y       z     vdW  Elec       q    Type
REMARK                         _______ _______ _______ _____ _____    ______ ____
ROOT
ATOM      1  N   UNL     1       4.918   4.669  17.164  0.00  0.00    +0.000 N 
ATOM      2  C   UNL     1       5.792   4.216  18.216  0.00  0.00    +0.000 C 
ATOM      3  C   UNL     1       7.196   4.604  17.764  0.00  0.00    +0.000 C 
ATOM      4  C   UNL     1       7.071   4.889  16.269  0.00  0.00    +0.000 C 
ATOM      5  C   UNL     1       5.595   5.076  16.036  0.00  0.00    +0.000 C 
ATOM      6  O   UNL     1       5.113   5.452  14.979  0.00  0.00    +0.000 OA
ENDROOT
BRANCH   3   7
ATOM      7  C   UNL     1       7.747   5.782  18.545  0.00  0.00    +0.000 C 
ATOM      8  O   UNL     1       8.101   5.702  19.716  0.00  0.00    +0.000 OA
ATOM      9  N   UNL     1       7.914   6.943  17.810  0.00  0.00    +0.000 N 
ATOM     10  H   UNL     1       7.470   7.038  16.906  0.00  0.00    +0.000 HD
BRANCH   9  11
ATOM     11  C   UNL     1       8.369   8.130  18.503  0.00  0.00    +0.000 C 
BRANCH  11  12
ATOM     12  C   UNL     1       8.066   9.435  17.771  0.00  0.00    +0.000 C 
BRANCH  12  13
ATOM     13  C   UNL     1       8.822  10.560  18.435  0.00  0.00    +0.000 A 
ATOM     14  C   UNL     1       8.926  11.809  17.807  0.00  0.00    +0.000 A 
ATOM     15  C   UNL     1       9.735  12.808  18.351  0.00  0.00    +0.000 A 
ATOM     16  C   UNL     1      10.441  12.563  19.526  0.00  0.00    +0.000 A 
ATOM     17 CL   UNL     1      11.463  13.783  20.179  0.00  0.00    +0.000 Cl
ATOM     18  C   UNL     1      10.339  11.331  20.168  0.00  0.00    +0.000 A 
ATOM     19  C   UNL     1       9.530  10.331  19.624  0.00  0.00    +0.000 A 
ENDBRANCH  12  13
ENDBRANCH  11  12
ENDBRANCH   9  11
ENDBRANCH   3   7
BRANCH   1  20
ATOM     20  C   UNL     1       3.481   4.445  17.220  0.00  0.00    +0.000 C 
BRANCH  20  26
ATOM     21  C   UNL     1       2.142   4.171  19.386  0.00  0.00    +0.000 A 
ATOM     22  C   UNL     1       1.524   4.752  20.503  0.00  0.00    +0.000 A 
ATOM     23  C   UNL     1       1.514   6.136  20.675  0.00  0.00    +0.000 A 
ATOM     24  C   UNL     1       2.145   6.954  19.747  0.00  0.00    +0.000 A 
ATOM     25  C   UNL     1       2.803   6.383  18.658  0.00  0.00    +0.000 A 
ATOM     26  C   UNL     1       2.811   4.989  18.459  0.00  0.00    +0.000 A 
BRANCH  21  28
ATOM     27  C   UNL     1       0.861   2.280  18.769  0.00  0.00    +0.000 C 
ATOM     28  O   UNL     1       2.129   2.819  19.140  0.00  0.00    +0.000 OA
ENDBRANCH  21  28
ENDBRANCH  20  26
ENDBRANCH   1  20
TORSDOF 7
ENDMDL
MODEL 4
REMARK VINA RESULT:      -8.5      1.161      1.920
REMARK  Name = 
REMARK  8 active torsions:
REMARK  status: ('A' for Active; 'I' for Inactive)
REMARK    1  A    between atoms: C_1  and  O_2
REMARK    2  A    between atoms: O_2  and  C_3
REMARK    3  A    between atoms: C_8  and  C_9
REMARK    4  A    between atoms: C_9  and  N_10
REMARK    5  A    between atoms: C_12  and  C_13
REMARK    6  A    between atoms: N_15  and  C_16
REMARK    7  A    between atoms: C_16  and  C_17
REMARK    8  A    between atoms: C_17  and  C_18
REMARK                            x       y       z     vdW  Elec       q    Type
REMARK                         _______ _______ _______ _____ _____    ______ ____
ROOT
ATOM      1  N   UNL     1       5.218   4.983  17.601  0.00  0.00    +0.000 N 
ATOM      2  C   UNL     1       5.846   5.771  18.631  0.00  0.00    +0.000 C 
ATOM      3  C   UNL     1       7.334   5.754  18.295  0.00  0.00    +0.000 C 
ATOM      4  C   UNL     1       7.511   4.597  17.315  0.00  0.00    +0.000 C 
ATOM      5  C   UNL     1       6.121   4.303  16.814  0.00  0.00    +0.000 C 
ATOM      6  O   UNL     1       5.872   3.522  15.909  0.00  0.00    +0.000 OA
ENDROOT
BRANCH   3   7
ATOM      7  C   UNL     1       7.815   7.079  17.736  0.00  0.00    +0.000 C 
ATOM      8  O   UNL     1       7.856   7.323  16.535  0.00  0.00    +0.000 OA
ATOM      9  N   UNL     1       8.117   8.039  18.686  0.00  0.00    +0.000 N 
ATOM     10  H   UNL     1       8.234   7.773  19.654  0.00  0.00    +0.000 HD
BRANCH   9  11
ATOM     11  C   UNL     1       8.650   9.306  18.230  0.00  0.00    +0.000 C 
BRANCH  11  12
ATOM     12  C   UNL     1       9.257  10.163  19.339  0.00  0.00    +0.000 C 
BRANCH  12  13
ATOM     13  C   UNL     1       9.707  11.480  18.754  0.00  0.00    +0.000 A 
ATOM     14  C   UNL     1      10.696  11.510  17.760  0.00  0.00    +0.000 A 
ATOM     15  C   UNL     1      11.210  12.728  17.313  0.00  0.00    +0.000 A 
ATOM     16  C   UNL     1      10.737  13.920  17.856  0.00  0.00    +0.000 A 
ATOM     17 CL   UNL     1      11.393  15.421  17.328  0.00  0.00    +0.000 Cl
ATOM     18  C   UNL     1       9.746  13.906  18.835  0.00  0.00    +0.000 A 
ATOM     19  C   UNL     1       9.231  12.688  19.283  0.00  0.00    +0.000 A 
ENDBRANCH  12  13
ENDBRANCH  11  12
ENDBRANCH   9  11
ENDBRANCH   3   7
BRANCH   1  20
ATOM     20  C   UNL     1       3.784   4.738  17.600  0.00  0.00    +0.000 C 
BRANCH  20  26
ATOM     21  C   UNL     1       3.477   3.187  19.614  0.00  0.00    +0.000 A 
ATOM     22  C   UNL     1       2.886   2.932  20.860  0.00  0.00    +0.000 A 
ATOM     23  C   UNL     1       1.988   3.838  21.425  0.00  0.00    +0.000 A 
ATOM     24  C   UNL     1       1.692   5.022  20.763  0.00  0.00    +0.000 A 
ATOM     25  C   UNL     1       2.310   5.306  19.546  0.00  0.00    +0.000 A 
ATOM     26  C   UNL     1       3.206   4.398  18.953  0.00  0.00    +0.000 A 
BRANCH  21  28
ATOM     27  C   UNL     1       3.691   1.146  18.437  0.00  0.00    +0.000 C 
ATOM     28  O   UNL     1       4.321   2.301  18.988  0.00  0.00    +0.000 OA
ENDBRANCH  21  28
ENDBRANCH  20  26
ENDBRANCH   1  20
TORSDOF 7
ENDMDL
MODEL 5
REMARK VINA RESULT:      -8.4      1.162      2.132
REMARK  Name = 
REMARK  8 active torsions:
REMARK  status: ('A' for Active; 'I' for Inactive)
REMARK    1  A    between atoms: C_1  and  O_2
REMARK    2  A    between atoms: O_2  and  C_3
REMARK    3  A    between atoms: C_8  and  C_9
REMARK    4  A    between atoms: C_9  and  N_10
REMARK    5  A    between atoms: C_12  and  C_13
REMARK    6  A    between atoms: N_15  and  C_16
REMARK    7  A    between atoms: C_16  and  C_17
REMARK    8  A    between atoms: C_17  and  C_18
REMARK                            x       y       z     vdW  Elec       q    Type
REMARK                         _______ _______ _______ _____ _____    ______ ____
ROOT
ATOM      1  N   UNL     1       5.344   4.895  18.265  0.00  0.00    +0.000 N 
ATOM      2  C   UNL     1       6.336   5.502  19.116  0.00  0.00    +0.000 C 
ATOM      3  C   UNL     1       7.560   5.696  18.226  0.00  0.00    +0.000 C 
ATOM      4  C   UNL     1       7.324   4.796  17.016  0.00  0.00    +0.000 C 
ATOM      5  C   UNL     1       5.850   4.485  17.051  0.00  0.00    +0.000 C 
ATOM      6  O   UNL     1       5.255   3.895  16.163  0.00  0.00    +0.000 OA
ENDROOT
BRANCH   3   7
ATOM      7  C   UNL     1       7.772   7.150  17.847  0.00  0.00    +0.000 C 
ATOM      8  O   UNL     1       7.323   7.645  16.819  0.00  0.00    +0.000 OA
ATOM      9  N   UNL     1       8.433   7.910  18.796  0.00  0.00    +0.000 N 
ATOM     10  H   UNL     1       8.933   7.456  19.549  0.00  0.00    +0.000 HD
BRANCH   9  11
ATOM     11  C   UNL     1       8.736   9.289  18.475  0.00  0.00    +0.000 C 
BRANCH  11  12
ATOM     12  C   UNL     1       9.301  10.092  19.644  0.00  0.00    +0.000 C 
BRANCH  12  13
ATOM     13  C   UNL     1       9.911  11.369  19.116  0.00  0.00    +0.000 A 
ATOM     14  C   UNL     1       9.903  12.532  19.899  0.00  0.00    +0.000 A 
ATOM     15  C   UNL     1      10.342  13.744  19.366  0.00  0.00    +0.000 A 
ATOM     16  C   UNL     1      10.792  13.799  18.049  0.00  0.00    +0.000 A 
ATOM     17 CL   UNL     1      11.303  15.300  17.382  0.00  0.00    +0.000 Cl
ATOM     18  C   UNL     1      10.817  12.649  17.263  0.00  0.00    +0.000 A 
ATOM     19  C   UNL     1      10.378  11.436  17.795  0.00  0.00    +0.000 A 
ENDBRANCH  12  13
ENDBRANCH  11  12
ENDBRANCH   9  11
ENDBRANCH   3   7
BRANCH   1  20
ATOM     20  C   UNL     1       4.033   4.522  18.773  0.00  0.00    +0.000 C 
BRANCH  20  26
ATOM     21  C   UNL     1       2.365   5.664  20.346  0.00  0.00    +0.000 A 
ATOM     22  C   UNL     1       1.573   6.778  20.662  0.00  0.00    +0.000 A 
ATOM     23  C   UNL     1       1.529   7.886  19.815  0.00  0.00    +0.000 A 
ATOM     24  C   UNL     1       2.298   7.905  18.659  0.00  0.00    +0.000 A 
ATOM     25  C   UNL     1       3.124   6.822  18.361  0.00  0.00    +0.000 A 
ATOM     26  C   UNL     1       3.170   5.688  19.194  0.00  0.00    +0.000 A 
BRANCH  21  28
ATOM     27  C   UNL     1       1.294   3.639  20.939  0.00  0.00    +0.000 C 
ATOM     28  O   UNL     1       2.398   4.525  21.115  0.00  0.00    +0.000 OA
ENDBRANCH  21  28
ENDBRANCH  20  26
ENDBRANCH   1  20
TORSDOF 7
ENDMDL
MODEL 6
REMARK VINA RESULT:      -8.4      1.177      2.007
REMARK  Name = 
REMARK  8 active torsions:
REMARK  status: ('A' for Active; 'I' for Inactive)
REMARK    1  A    between atoms: C_1  and  O_2
REMARK    2  A    between atoms: O_2  and  C_3
REMARK    3  A    between atoms: C_8  and  C_9
REMARK    4  A    between atoms: C_9  and  N_10
REMARK    5  A    between atoms: C_12  and  C_13
REMARK    6  A    between atoms: N_15  and  C_16
REMARK    7  A    between atoms: C_16  and  C_17
REMARK    8  A    between atoms: C_17  and  C_18
REMARK                            x       y       z     vdW  Elec       q    Type
REMARK                         _______ _______ _______ _____ _____    ______ ____
ROOT
ATOM      1  N   UNL     1       5.134   5.112  17.519  0.00  0.00    +0.000 N 
ATOM      2  C   UNL     1       5.681   5.888  18.603  0.00  0.00    +0.000 C 
ATOM      3  C   UNL     1       7.193   5.850  18.399  0.00  0.00    +0.000 C 
ATOM      4  C   UNL     1       7.438   4.694  17.432  0.00  0.00    +0.000 C 
ATOM      5  C   UNL     1       6.092   4.422  16.811  0.00  0.00    +0.000 C 
ATOM      6  O   UNL     1       5.912   3.648  15.883  0.00  0.00    +0.000 OA
ENDROOT
BRANCH   3   7
ATOM      7  C   UNL     1       7.739   7.170  17.889  0.00  0.00    +0.000 C 
ATOM      8  O   UNL     1       7.603   7.548  16.730  0.00  0.00    +0.000 OA
ATOM      9  N   UNL     1       8.325   7.971  18.854  0.00  0.00    +0.000 N 
ATOM     10  H   UNL     1       8.572   7.580  19.753  0.00  0.00    +0.000 HD
BRANCH   9  11
ATOM     11  C   UNL     1       8.932   9.215  18.431  0.00  0.00    +0.000 C 
BRANCH  11  12
ATOM     12  C   UNL     1       9.247  10.177  19.574  0.00  0.00    +0.000 C 
BRANCH  12  13
ATOM     13  C   UNL     1       9.792  11.463  19.001  0.00  0.00    +0.000 A 
ATOM     14  C   UNL     1       9.400  12.697  19.538  0.00  0.00    +0.000 A 
ATOM     15  C   UNL     1       9.794  13.889  18.929  0.00  0.00    +0.000 A 
ATOM     16  C   UNL     1      10.583  13.852  17.781  0.00  0.00    +0.000 A 
ATOM     17 CL   UNL     1      11.042  15.320  17.011  0.00  0.00    +0.000 Cl
ATOM     18  C   UNL     1      10.989  12.633  17.242  0.00  0.00    +0.000 A 
ATOM     19  C   UNL     1      10.595  11.440  17.852  0.00  0.00    +0.000 A 
ENDBRANCH  12  13
ENDBRANCH  11  12
ENDBRANCH   9  11
ENDBRANCH   3   7
BRANCH   1  20
ATOM     20  C   UNL     1       3.702   4.889  17.392  0.00  0.00    +0.000 C 
BRANCH  20  26
ATOM     21  C   UNL     1       2.884   3.069  18.997  0.00  0.00    +0.000 A 
ATOM     22  C   UNL     1       2.224   2.715  20.183  0.00  0.00    +0.000 A 
ATOM     23  C   UNL     1       1.656   3.690  21.003  0.00  0.00    +0.000 A 
ATOM     24  C   UNL     1       1.765   5.031  20.661  0.00  0.00    +0.000 A 
ATOM     25  C   UNL     1       2.459   5.396  19.509  0.00  0.00    +0.000 A 
ATOM     26  C   UNL     1       3.026   4.426  18.660  0.00  0.00    +0.000 A 
BRANCH  21  28
ATOM     27  C   UNL     1       3.956   0.976  18.734  0.00  0.00    +0.000 C 
ATOM     28  O   UNL     1       3.408   2.144  18.125  0.00  0.00    +0.000 OA
ENDBRANCH  21  28
ENDBRANCH  20  26
ENDBRANCH   1  20
TORSDOF 7
ENDMDL
MODEL 7
REMARK VINA RESULT:      -8.3      0.903      1.029
REMARK  Name = 
REMARK  8 active torsions:
REMARK  status: ('A' for Active; 'I' for Inactive)
REMARK    1  A    between atoms: C_1  and  O_2
REMARK    2  A    between atoms: O_2  and  C_3
REMARK    3  A    between atoms: C_8  and  C_9
REMARK    4  A    between atoms: C_9  and  N_10
REMARK    5  A    between atoms: C_12  and  C_13
REMARK    6  A    between atoms: N_15  and  C_16
REMARK    7  A    between atoms: C_16  and  C_17
REMARK    8  A    between atoms: C_17  and  C_18
REMARK                            x       y       z     vdW  Elec       q    Type
REMARK                         _______ _______ _______ _____ _____    ______ ____
ROOT
ATOM      1  N   UNL     1       5.303   5.081  17.143  0.00  0.00    +0.000 N 
ATOM      2  C   UNL     1       5.618   5.886  18.295  0.00  0.00    +0.000 C 
ATOM      3  C   UNL     1       7.141   5.961  18.327  0.00  0.00    +0.000 C 
ATOM      4  C   UNL     1       7.617   4.832  17.414  0.00  0.00    +0.000 C 
ATOM      5  C   UNL     1       6.408   4.467  16.594  0.00  0.00    +0.000 C 
ATOM      6  O   UNL     1       6.430   3.689  15.653  0.00  0.00    +0.000 OA
ENDROOT
BRANCH   3   7
ATOM      7  C   UNL     1       7.661   7.321  17.902  0.00  0.00    +0.000 C 
ATOM      8  O   UNL     1       7.462   7.796  16.789  0.00  0.00    +0.000 OA
ATOM      9  N   UNL     1       8.302   8.038  18.898  0.00  0.00    +0.000 N 
ATOM     10  H   UNL     1       8.598   7.573  19.746  0.00  0.00    +0.000 HD
BRANCH   9  11
ATOM     11  C   UNL     1       8.888   9.315  18.550  0.00  0.00    +0.000 C 
BRANCH  11  12
ATOM     12  C   UNL     1       9.557  10.035  19.718  0.00  0.00    +0.000 C 
BRANCH  12  13
ATOM     13  C   UNL     1      10.319  11.227  19.192  0.00  0.00    +0.000 A 
ATOM     14  C   UNL     1      10.847  12.175  20.080  0.00  0.00    +0.000 A 
ATOM     15  C   UNL     1      11.434  13.345  19.595  0.00  0.00    +0.000 A 
ATOM     16  C   UNL     1      11.498  13.570  18.222  0.00  0.00    +0.000 A 
ATOM     17 CL   UNL     1      12.193  15.027  17.626  0.00  0.00    +0.000 Cl
ATOM     18  C   UNL     1      10.988  12.631  17.328  0.00  0.00    +0.000 A 
ATOM     19  C   UNL     1      10.401  11.461  17.812  0.00  0.00    +0.000 A 
ENDBRANCH  12  13
ENDBRANCH  11  12
ENDBRANCH   9  11
ENDBRANCH   3   7
BRANCH   1  20
ATOM     20  C   UNL     1       3.929   4.754  16.797  0.00  0.00    +0.000 C 
BRANCH  20  26
ATOM     21  C   UNL     1       2.284   4.497  18.743  0.00  0.00    +0.000 A 
ATOM     22  C   UNL     1       1.661   3.676  19.695  0.00  0.00    +0.000 A 
ATOM     23  C   UNL     1       1.982   2.322  19.791  0.00  0.00    +0.000 A 
ATOM     24  C   UNL     1       2.909   1.767  18.919  0.00  0.00    +0.000 A 
ATOM     25  C   UNL     1       3.499   2.564  17.939  0.00  0.00    +0.000 A 
ATOM     26  C   UNL     1       3.200   3.936  17.836  0.00  0.00    +0.000 A 
BRANCH  21  28
ATOM     27  C   UNL     1       2.312   6.598  19.830  0.00  0.00    +0.000 C 
ATOM     28  O   UNL     1       2.047   5.847  18.646  0.00  0.00    +0.000 OA
ENDBRANCH  21  28
ENDBRANCH  20  26
ENDBRANCH   1  20
TORSDOF 7
ENDMDL
MODEL 8
REMARK VINA RESULT:      -8.3      1.528      1.734
REMARK  Name = 
REMARK  8 active torsions:
REMARK  status: ('A' for Active; 'I' for Inactive)
REMARK    1  A    between atoms: C_1  and  O_2
REMARK    2  A    between atoms: O_2  and  C_3
REMARK    3  A    between atoms: C_8  and  C_9
REMARK    4  A    between atoms: C_9  and  N_10
REMARK    5  A    between atoms: C_12  and  C_13
REMARK    6  A    between atoms: N_15  and  C_16
REMARK    7  A    between atoms: C_16  and  C_17
REMARK    8  A    between atoms: C_17  and  C_18
REMARK                            x       y       z     vdW  Elec       q    Type
REMARK                         _______ _______ _______ _____ _____    ______ ____
ROOT
ATOM      1  N   UNL     1       4.878   4.702  17.096  0.00  0.00    +0.000 N 
ATOM      2  C   UNL     1       5.624   4.253  18.245  0.00  0.00    +0.000 C 
ATOM      3  C   UNL     1       7.088   4.489  17.887  0.00  0.00    +0.000 C 
ATOM      4  C   UNL     1       7.106   4.676  16.372  0.00  0.00    +0.000 C 
ATOM      5  C   UNL     1       5.674   4.969  16.005  0.00  0.00    +0.000 C 
ATOM      6  O   UNL     1       5.311   5.309  14.889  0.00  0.00    +0.000 OA
ENDROOT
BRANCH   3   7
ATOM      7  C   UNL     1       7.681   5.669  18.634  0.00  0.00    +0.000 C 
ATOM      8  O   UNL     1       8.129   5.583  19.772  0.00  0.00    +0.000 OA
ATOM      9  N   UNL     1       7.768   6.840  17.901  0.00  0.00    +0.000 N 
ATOM     10  H   UNL     1       7.251   6.935  17.037  0.00  0.00    +0.000 HD
BRANCH   9  11
ATOM     11  C   UNL     1       8.257   8.028  18.568  0.00  0.00    +0.000 C 
BRANCH  11  12
ATOM     12  C   UNL     1       8.211   9.290  17.710  0.00  0.00    +0.000 C 
BRANCH  12  13
ATOM     13  C   UNL     1       8.890  10.415  18.452  0.00  0.00    +0.000 A 
ATOM     14  C   UNL     1       9.318  10.232  19.774  0.00  0.00    +0.000 A 
ATOM     15  C   UNL     1       9.823  11.307  20.507  0.00  0.00    +0.000 A 
ATOM     16  C   UNL     1       9.904  12.568  19.921  0.00  0.00    +0.000 A 
ATOM     17 CL   UNL     1      10.497  13.900  20.835  0.00  0.00    +0.000 Cl
ATOM     18  C   UNL     1       9.494  12.762  18.604  0.00  0.00    +0.000 A 
ATOM     19  C   UNL     1       8.988  11.688  17.870  0.00  0.00    +0.000 A 
ENDBRANCH  12  13
ENDBRANCH  11  12
ENDBRANCH   9  11
ENDBRANCH   3   7
BRANCH   1  20
ATOM     20  C   UNL     1       3.427   4.605  17.047  0.00  0.00    +0.000 C 
BRANCH  20  26
ATOM     21  C   UNL     1       2.564   5.493  19.288  0.00  0.00    +0.000 A 
ATOM     22  C   UNL     1       1.961   5.249  20.530  0.00  0.00    +0.000 A 
ATOM     23  C   UNL     1       1.613   3.953  20.913  0.00  0.00    +0.000 A 
ATOM     24  C   UNL     1       1.838   2.892  20.047  0.00  0.00    +0.000 A 
ATOM     25  C   UNL     1       2.393   3.131  18.791  0.00  0.00    +0.000 A 
ATOM     26  C   UNL     1       2.766   4.428  18.393  0.00  0.00    +0.000 A 
BRANCH  21  28
ATOM     27  C   UNL     1       2.134   7.820  19.285  0.00  0.00    +0.000 C 
ATOM     28  O   UNL     1       2.979   6.741  18.888  0.00  0.00    +0.000 OA
ENDBRANCH  21  28
ENDBRANCH  20  26
ENDBRANCH   1  20
TORSDOF 7
ENDMDL
MODEL 9
REMARK VINA RESULT:      -8.3      1.571      2.429
REMARK  Name = 
REMARK  8 active torsions:
REMARK  status: ('A' for Active; 'I' for Inactive)
REMARK    1  A    between atoms: C_1  and  O_2
REMARK    2  A    between atoms: O_2  and  C_3
REMARK    3  A    between atoms: C_8  and  C_9
REMARK    4  A    between atoms: C_9  and  N_10
REMARK    5  A    between atoms: C_12  and  C_13
REMARK    6  A    between atoms: N_15  and  C_16
REMARK    7  A    between atoms: C_16  and  C_17
REMARK    8  A    between atoms: C_17  and  C_18
REMARK                            x       y       z     vdW  Elec       q    Type
REMARK                         _______ _______ _______ _____ _____    ______ ____
ROOT
ATOM      1  N   UNL     1       4.841   4.956  17.300  0.00  0.00    +0.000 N 
ATOM      2  C   UNL     1       5.596   4.484  18.434  0.00  0.00    +0.000 C 
ATOM      3  C   UNL     1       7.057   4.577  18.007  0.00  0.00    +0.000 C 
ATOM      4  C   UNL     1       7.024   4.708  16.486  0.00  0.00    +0.000 C 
ATOM      5  C   UNL     1       5.609   5.113  16.168  0.00  0.00    +0.000 C 
ATOM      6  O   UNL     1       5.227   5.444  15.056  0.00  0.00    +0.000 OA
ENDROOT
BRANCH   3   7
ATOM      7  C   UNL     1       7.783   5.726  18.682  0.00  0.00    +0.000 C 
ATOM      8  O   UNL     1       8.377   5.607  19.748  0.00  0.00    +0.000 OA
ATOM      9  N   UNL     1       7.809   6.905  17.959  0.00  0.00    +0.000 N 
ATOM     10  H   UNL     1       7.184   7.031  17.174  0.00  0.00    +0.000 HD
BRANCH   9  11
ATOM     11  C   UNL     1       8.421   8.067  18.569  0.00  0.00    +0.000 C 
BRANCH  11  12
ATOM     12  C   UNL     1       8.057   9.389  17.899  0.00  0.00    +0.000 C 
BRANCH  12  13
ATOM     13  C   UNL     1       8.866  10.499  18.527  0.00  0.00    +0.000 A 
ATOM     14  C   UNL     1       9.347  10.367  19.837  0.00  0.00    +0.000 A 
ATOM     15  C   UNL     1       9.978  11.441  20.468  0.00  0.00    +0.000 A 
ATOM     16  C   UNL     1      10.131  12.649  19.792  0.00  0.00    +0.000 A 
ATOM     17 CL   UNL     1      10.880  13.981  20.581  0.00  0.00    +0.000 Cl
ATOM     18  C   UNL     1       9.669  12.790  18.485  0.00  0.00    +0.000 A 
ATOM     19  C   UNL     1       9.038  11.717  17.853  0.00  0.00    +0.000 A 
ENDBRANCH  12  13
ENDBRANCH  11  12
ENDBRANCH   9  11
ENDBRANCH   3   7
BRANCH   1  20
ATOM     20  C   UNL     1       3.387   4.985  17.315  0.00  0.00    +0.000 C 
BRANCH  20  26
ATOM     21  C   UNL     1       2.242   4.851  19.602  0.00  0.00    +0.000 A 
ATOM     22  C   UNL     1       1.681   5.504  20.710  0.00  0.00    +0.000 A 
ATOM     23  C   UNL     1       1.602   6.895  20.754  0.00  0.00    +0.000 A 
ATOM     24  C   UNL     1       2.108   7.652  19.706  0.00  0.00    +0.000 A 
ATOM     25  C   UNL     1       2.710   7.014  18.622  0.00  0.00    +0.000 A 
ATOM     26  C   UNL     1       2.785   5.610  18.551  0.00  0.00    +0.000 A 
BRANCH  21  28
ATOM     27  C   UNL     1       2.915   2.798  20.567  0.00  0.00    +0.000 C 
ATOM     28  O   UNL     1       2.291   3.483  19.482  0.00  0.00    +0.000 OA
ENDBRANCH  21  28
ENDBRANCH  20  26
ENDBRANCH   1  20
TORSDOF 7
ENDMDL
