MODEL 1
REMARK VINA RESULT:      -6.7      0.000      0.000
REMARK  Name = 
REMARK  5 active torsions:
REMARK  status: ('A' for Active; 'I' for Inactive)
REMARK    1  A    between atoms: C_2  and  C_3
REMARK    2  A    between atoms: C_3  and  C_4
REMARK    3  A    between atoms: C_4  and  N_5
REMARK    4  A    between atoms: C_4  and  C_11
REMARK    5  A    between atoms: N_5  and  C_6
REMARK                            x       y       z     vdW  Elec       q    Type
REMARK                         _______ _______ _______ _____ _____    ______ ____
ROOT
ATOM      1  C   UNL     1       2.777   6.195  18.086  0.00  0.00    +0.000 C 
ENDROOT
BRANCH   1   2
ATOM      2  C   UNL     1       2.126   4.979  18.764  0.00  0.00    +0.000 A 
ATOM      3  C   UNL     1       1.902   4.913  20.163  0.00  0.00    +0.000 A 
ATOM      4  C   UNL     1       1.274   3.810  20.737  0.00  0.00    +0.000 A 
ATOM      5  C   UNL     1       0.865   2.745  19.942  0.00  0.00    +0.000 A 
ATOM      6  C   UNL     1       1.092   2.782  18.563  0.00  0.00    +0.000 A 
ATOM      7  C   UNL     1       1.714   3.888  17.977  0.00  0.00    +0.000 A 
ENDBRANCH   1   2
BRANCH   1   8
ATOM      8  N   UNL     1       4.224   6.048  18.003  0.00  0.00    +0.000 N 
ATOM      9  H   UNL     1       4.789   6.370  18.804  0.00  0.00    +0.000 HD
BRANCH   8  10
ATOM     10  C   UNL     1       4.893   5.428  16.919  0.00  0.00    +0.000 A 
ATOM     11  C   UNL     1       5.257   6.062  15.747  0.00  0.00    +0.000 A 
ATOM     12  C   UNL     1       5.840   5.092  14.968  0.00  0.00    +0.000 A 
ATOM     13  C   UNL     1       5.793   3.923  15.709  0.00  0.00    +0.000 A 
ATOM     14  O   UNL     1       5.228   4.156  16.873  0.00  0.00    +0.000 OA
ENDBRANCH   8  10
ENDBRANCH   1   8
BRANCH   1  15
ATOM     15  C   UNL     1       2.451   7.554  18.742  0.00  0.00    +0.000 C 
BRANCH  15  17
ATOM     16  C   UNL     1       1.645   9.788  18.043  0.00  0.00    +0.000 C 
ATOM     17  C   UNL     1       2.244   8.641  17.718  0.00  0.00    +0.000 C 
ENDBRANCH  15  17
ENDBRANCH   1  15
TORSDOF 5
ENDMDL
MODEL 2
REMARK VINA RESULT:      -6.7      2.233      4.421
REMARK  Name = 
REMARK  5 active torsions:
REMARK  status: ('A' for Active; 'I' for Inactive)
REMARK    1  A    between atoms: C_2  and  C_3
REMARK    2  A    between atoms: C_3  and  C_4
REMARK    3  A    between atoms: C_4  and  N_5
REMARK    4  A    between atoms: C_4  and  C_11
REMARK    5  A    between atoms: N_5  and  C_6
REMARK                            x       y       z     vdW  Elec       q    Type
REMARK                         _______ _______ _______ _____ _____    ______ ____
ROOT
ATOM      1  C   UNL     1       5.410   3.930  15.981  0.00  0.00    +0.000 C 
ENDROOT
BRANCH   1   2
ATOM      2  C   UNL     1       4.285   4.293  16.963  0.00  0.00    +0.000 A 
ATOM      3  C   UNL     1       3.925   5.634  17.251  0.00  0.00    +0.000 A 
ATOM      4  C   UNL     1       2.872   5.923  18.116  0.00  0.00    +0.000 A 
ATOM      5  C   UNL     1       2.163   4.893  18.725  0.00  0.00    +0.000 A 
ATOM      6  C   UNL     1       2.514   3.565  18.468  0.00  0.00    +0.000 A 
ATOM      7  C   UNL     1       3.562   3.264  17.595  0.00  0.00    +0.000 A 
ENDBRANCH   1   2
BRANCH   1   8
ATOM      8  N   UNL     1       6.709   3.909  16.643  0.00  0.00    +0.000 N 
ATOM      9  H   UNL     1       7.371   3.161  16.385  0.00  0.00    +0.000 HD
BRANCH   8  10
ATOM     10  C   UNL     1       7.139   4.894  17.566  0.00  0.00    +0.000 A 
ATOM     11  C   UNL     1       7.414   6.209  17.248  0.00  0.00    +0.000 A 
ATOM     12  C   UNL     1       7.829   6.793  18.421  0.00  0.00    +0.000 A 
ATOM     13  C   UNL     1       7.787   5.798  19.383  0.00  0.00    +0.000 A 
ATOM     14  O   UNL     1       7.364   4.676  18.844  0.00  0.00    +0.000 OA
ENDBRANCH   8  10
ENDBRANCH   1   8
BRANCH   1  15
ATOM     15  C   UNL     1       5.501   4.837  14.735  0.00  0.00    +0.000 C 
BRANCH  15  17
ATOM     16  C   UNL     1       6.056   3.503  12.724  0.00  0.00    +0.000 C 
ATOM     17  C   UNL     1       6.470   4.298  13.712  0.00  0.00    +0.000 C 
ENDBRANCH  15  17
ENDBRANCH   1  15
TORSDOF 5
ENDMDL
MODEL 3
REMARK VINA RESULT:      -6.7      2.566      5.882
REMARK  Name = 
REMARK  5 active torsions:
REMARK  status: ('A' for Active; 'I' for Inactive)
REMARK    1  A    between atoms: C_2  and  C_3
REMARK    2  A    between atoms: C_3  and  C_4
REMARK    3  A    between atoms: C_4  and  N_5
REMARK    4  A    between atoms: C_4  and  C_11
REMARK    5  A    between atoms: N_5  and  C_6
REMARK                            x       y       z     vdW  Elec       q    Type
REMARK                         _______ _______ _______ _____ _____    ______ ____
ROOT
ATOM      1  C   UNL     1       5.541   4.389  16.283  0.00  0.00    +0.000 C 
ENDROOT
BRANCH   1   2
ATOM      2  C   UNL     1       6.420   5.312  17.142  0.00  0.00    +0.000 A 
ATOM      3  C   UNL     1       7.054   4.874  18.333  0.00  0.00    +0.000 A 
ATOM      4  C   UNL     1       7.876   5.729  19.063  0.00  0.00    +0.000 A 
ATOM      5  C   UNL     1       8.077   7.039  18.640  0.00  0.00    +0.000 A 
ATOM      6  C   UNL     1       7.448   7.495  17.478  0.00  0.00    +0.000 A 
ATOM      7  C   UNL     1       6.629   6.643  16.734  0.00  0.00    +0.000 A 
ENDBRANCH   1   2
BRANCH   1   8
ATOM      8  N   UNL     1       4.929   3.338  17.086  0.00  0.00    +0.000 N 
ATOM      9  H   UNL     1       5.530   2.564  17.408  0.00  0.00    +0.000 HD
BRANCH   8  10
ATOM     10  C   UNL     1       3.576   3.354  17.505  0.00  0.00    +0.000 A 
ATOM     11  C   UNL     1       2.801   4.489  17.634  0.00  0.00    +0.000 A 
ATOM     12  C   UNL     1       1.582   4.053  18.095  0.00  0.00    +0.000 A 
ATOM     13  C   UNL     1       1.688   2.679  18.225  0.00  0.00    +0.000 A 
ATOM     14  O   UNL     1       2.889   2.288  17.858  0.00  0.00    +0.000 OA
ENDBRANCH   8  10
ENDBRANCH   1   8
BRANCH   1  15
ATOM     15  C   UNL     1       6.263   3.741  15.081  0.00  0.00    +0.000 C 
BRANCH  15  17
ATOM     16  C   UNL     1       5.995   3.498  12.632  0.00  0.00    +0.000 C 
ATOM     17  C   UNL     1       5.520   3.964  13.788  0.00  0.00    +0.000 C 
ENDBRANCH  15  17
ENDBRANCH   1  15
TORSDOF 5
ENDMDL
MODEL 4
REMARK VINA RESULT:      -6.7      2.299      3.907
REMARK  Name = 
REMARK  5 active torsions:
REMARK  status: ('A' for Active; 'I' for Inactive)
REMARK    1  A    between atoms: C_2  and  C_3
REMARK    2  A    between atoms: C_3  and  C_4
REMARK    3  A    between atoms: C_4  and  N_5
REMARK    4  A    between atoms: C_4  and  C_11
REMARK    5  A    between atoms: N_5  and  C_6
REMARK                            x       y       z     vdW  Elec       q    Type
REMARK                         _______ _______ _______ _____ _____    ______ ____
ROOT
ATOM      1  C   UNL     1       5.821   6.135  16.453  0.00  0.00    +0.000 C 
ENDROOT
BRANCH   1   2
ATOM      2  C   UNL     1       4.499   5.657  17.075  0.00  0.00    +0.000 A 
ATOM      3  C   UNL     1       3.621   6.528  17.769  0.00  0.00    +0.000 A 
ATOM      4  C   UNL     1       2.413   6.065  18.285  0.00  0.00    +0.000 A 
ATOM      5  C   UNL     1       2.054   4.729  18.138  0.00  0.00    +0.000 A 
ATOM      6  C   UNL     1       2.913   3.851  17.472  0.00  0.00    +0.000 A 
ATOM      7  C   UNL     1       4.123   4.307  16.944  0.00  0.00    +0.000 A 
ENDBRANCH   1   2
BRANCH   1   8
ATOM      8  N   UNL     1       6.594   5.021  15.921  0.00  0.00    +0.000 N 
ATOM      9  H   UNL     1       6.934   4.307  16.585  0.00  0.00    +0.000 HD
BRANCH   8  10
ATOM     10  C   UNL     1       6.848   4.825  14.541  0.00  0.00    +0.000 A 
ATOM     11  C   UNL     1       6.200   3.905  13.741  0.00  0.00    +0.000 A 
ATOM     12  C   UNL     1       6.775   4.026  12.499  0.00  0.00    +0.000 A 
ATOM     13  C   UNL     1       7.743   5.009  12.616  0.00  0.00    +0.000 A 
ATOM     14  O   UNL     1       7.758   5.474  13.847  0.00  0.00    +0.000 OA
ENDBRANCH   8  10
ENDBRANCH   1   8
BRANCH   1  15
ATOM     15  C   UNL     1       6.721   6.959  17.399  0.00  0.00    +0.000 C 
BRANCH  15  17
ATOM     16  C   UNL     1       7.356   5.675  19.420  0.00  0.00    +0.000 C 
ATOM     17  C   UNL     1       7.664   6.083  18.187  0.00  0.00    +0.000 C 
ENDBRANCH  15  17
ENDBRANCH   1  15
TORSDOF 5
ENDMDL
MODEL 5
REMARK VINA RESULT:      -6.7      2.342      4.553
REMARK  Name = 
REMARK  5 active torsions:
REMARK  status: ('A' for Active; 'I' for Inactive)
REMARK    1  A    between atoms: C_2  and  C_3
REMARK    2  A    between atoms: C_3  and  C_4
REMARK    3  A    between atoms: C_4  and  N_5
REMARK    4  A    between atoms: C_4  and  C_11
REMARK    5  A    between atoms: N_5  and  C_6
REMARK                            x       y       z     vdW  Elec       q    Type
REMARK                         _______ _______ _______ _____ _____    ______ ____
ROOT
ATOM      1  C   UNL     1       5.539   3.817  16.009  0.00  0.00    +0.000 C 
ENDROOT
BRANCH   1   2
ATOM      2  C   UNL     1       4.505   4.223  17.071  0.00  0.00    +0.000 A 
ATOM      3  C   UNL     1       4.027   3.323  18.057  0.00  0.00    +0.000 A 
ATOM      4  C   UNL     1       3.119   3.739  19.028  0.00  0.00    +0.000 A 
ATOM      5  C   UNL     1       2.655   5.051  19.036  0.00  0.00    +0.000 A 
ATOM      6  C   UNL     1       3.101   5.949  18.062  0.00  0.00    +0.000 A 
ATOM      7  C   UNL     1       4.017   5.543  17.089  0.00  0.00    +0.000 A 
ENDBRANCH   1   2
BRANCH   1   8
ATOM      8  N   UNL     1       6.901   3.993  16.495  0.00  0.00    +0.000 N 
ATOM      9  H   UNL     1       7.643   3.413  16.074  0.00  0.00    +0.000 HD
BRANCH   8  10
ATOM     10  C   UNL     1       7.275   4.959  17.461  0.00  0.00    +0.000 A 
ATOM     11  C   UNL     1       7.428   6.308  17.212  0.00  0.00    +0.000 A 
ATOM     12  C   UNL     1       7.828   6.861  18.405  0.00  0.00    +0.000 A 
ATOM     13  C   UNL     1       7.898   5.815  19.310  0.00  0.00    +0.000 A 
ATOM     14  O   UNL     1       7.555   4.692  18.719  0.00  0.00    +0.000 OA
ENDBRANCH   8  10
ENDBRANCH   1   8
BRANCH   1  15
ATOM     15  C   UNL     1       5.396   4.544  14.654  0.00  0.00    +0.000 C 
BRANCH  15  17
ATOM     16  C   UNL     1       5.889   3.416  12.505  0.00  0.00    +0.000 C 
ATOM     17  C   UNL     1       6.345   3.998  13.616  0.00  0.00    +0.000 C 
ENDBRANCH  15  17
ENDBRANCH   1  15
TORSDOF 5
ENDMDL
MODEL 6
REMARK VINA RESULT:      -6.7      2.573      5.933
REMARK  Name = 
REMARK  5 active torsions:
REMARK  status: ('A' for Active; 'I' for Inactive)
REMARK    1  A    between atoms: C_2  and  C_3
REMARK    2  A    between atoms: C_3  and  C_4
REMARK    3  A    between atoms: C_4  and  N_5
REMARK    4  A    between atoms: C_4  and  C_11
REMARK    5  A    between atoms: N_5  and  C_6
REMARK                            x       y       z     vdW  Elec       q    Type
REMARK                         _______ _______ _______ _____ _____    ______ ____
ROOT
ATOM      1  C   UNL     1       5.514   4.322  16.464  0.00  0.00    +0.000 C 
ENDROOT
BRANCH   1   2
ATOM      2  C   UNL     1       6.438   5.309  17.194  0.00  0.00    +0.000 A 
ATOM      3  C   UNL     1       6.598   6.656  16.779  0.00  0.00    +0.000 A 
ATOM      4  C   UNL     1       7.415   7.532  17.490  0.00  0.00    +0.000 A 
ATOM      5  C   UNL     1       8.102   7.091  18.617  0.00  0.00    +0.000 A 
ATOM      6  C   UNL     1       7.971   5.763  19.031  0.00  0.00    +0.000 A 
ATOM      7  C   UNL     1       7.147   4.879  18.330  0.00  0.00    +0.000 A 
ENDBRANCH   1   2
BRANCH   1   8
ATOM      8  N   UNL     1       4.913   3.370  17.389  0.00  0.00    +0.000 N 
ATOM      9  H   UNL     1       5.540   2.713  17.880  0.00  0.00    +0.000 HD
BRANCH   8  10
ATOM     10  C   UNL     1       3.533   3.339  17.703  0.00  0.00    +0.000 A 
ATOM     11  C   UNL     1       2.690   4.432  17.672  0.00  0.00    +0.000 A 
ATOM     12  C   UNL     1       1.463   3.964  18.079  0.00  0.00    +0.000 A 
ATOM     13  C   UNL     1       1.632   2.615  18.337  0.00  0.00    +0.000 A 
ATOM     14  O   UNL     1       2.877   2.267  18.096  0.00  0.00    +0.000 OA
ENDBRANCH   8  10
ENDBRANCH   1   8
BRANCH   1  15
ATOM     15  C   UNL     1       6.181   3.542  15.310  0.00  0.00    +0.000 C 
BRANCH  15  17
ATOM     16  C   UNL     1       6.112   3.555  12.835  0.00  0.00    +0.000 C 
ATOM     17  C   UNL     1       5.993   4.228  13.980  0.00  0.00    +0.000 C 
ENDBRANCH  15  17
ENDBRANCH   1  15
TORSDOF 5
ENDMDL
MODEL 7
REMARK VINA RESULT:      -6.7      2.594      4.036
REMARK  Name = 
REMARK  5 active torsions:
REMARK  status: ('A' for Active; 'I' for Inactive)
REMARK    1  A    between atoms: C_2  and  C_3
REMARK    2  A    between atoms: C_3  and  C_4
REMARK    3  A    between atoms: C_4  and  N_5
REMARK    4  A    between atoms: C_4  and  C_11
REMARK    5  A    between atoms: N_5  and  C_6
REMARK                            x       y       z     vdW  Elec       q    Type
REMARK                         _______ _______ _______ _____ _____    ______ ____
ROOT
ATOM      1  C   UNL     1       6.401   6.287  16.711  0.00  0.00    +0.000 C 
ENDROOT
BRANCH   1   2
ATOM      2  C   UNL     1       4.984   5.967  17.212  0.00  0.00    +0.000 A 
ATOM      3  C   UNL     1       4.092   6.968  17.676  0.00  0.00    +0.000 A 
ATOM      4  C   UNL     1       2.801   6.644  18.085  0.00  0.00    +0.000 A 
ATOM      5  C   UNL     1       2.369   5.322  18.058  0.00  0.00    +0.000 A 
ATOM      6  C   UNL     1       3.238   4.318  17.621  0.00  0.00    +0.000 A 
ATOM      7  C   UNL     1       4.532   4.635  17.200  0.00  0.00    +0.000 A 
ENDBRANCH   1   2
BRANCH   1   8
ATOM      8  N   UNL     1       7.029   5.119  16.107  0.00  0.00    +0.000 N 
ATOM      9  H   UNL     1       7.431   4.406  16.736  0.00  0.00    +0.000 HD
BRANCH   8  10
ATOM     10  C   UNL     1       7.060   4.873  14.712  0.00  0.00    +0.000 A 
ATOM     11  C   UNL     1       6.262   3.960  14.052  0.00  0.00    +0.000 A 
ATOM     12  C   UNL     1       6.645   4.021  12.734  0.00  0.00    +0.000 A 
ATOM     13  C   UNL     1       7.656   4.964  12.668  0.00  0.00    +0.000 A 
ATOM     14  O   UNL     1       7.878   5.462  13.865  0.00  0.00    +0.000 OA
ENDBRANCH   8  10
ENDBRANCH   1   8
BRANCH   1  15
ATOM     15  C   UNL     1       7.352   6.865  17.782  0.00  0.00    +0.000 C 
BRANCH  15  17
ATOM     16  C   UNL     1       8.500   8.989  18.331  0.00  0.00    +0.000 C 
ATOM     17  C   UNL     1       7.708   8.304  17.504  0.00  0.00    +0.000 C 
ENDBRANCH  15  17
ENDBRANCH   1  15
TORSDOF 5
ENDMDL
MODEL 8
REMARK VINA RESULT:      -6.6      0.331      1.250
REMARK  Name = 
REMARK  5 active torsions:
REMARK  status: ('A' for Active; 'I' for Inactive)
REMARK    1  A    between atoms: C_2  and  C_3
REMARK    2  A    between atoms: C_3  and  C_4
REMARK    3  A    between atoms: C_4  and  N_5
REMARK    4  A    between atoms: C_4  and  C_11
REMARK    5  A    between atoms: N_5  and  C_6
REMARK                            x       y       z     vdW  Elec       q    Type
REMARK                         _______ _______ _______ _____ _____    ______ ____
ROOT
ATOM      1  C   UNL     1       3.080   6.184  17.911  0.00  0.00    +0.000 C 
ENDROOT
BRANCH   1   2
ATOM      2  C   UNL     1       2.267   5.072  18.592  0.00  0.00    +0.000 A 
ATOM      3  C   UNL     1       1.816   3.919  17.899  0.00  0.00    +0.000 A 
ATOM      4  C   UNL     1       1.115   2.914  18.560  0.00  0.00    +0.000 A 
ATOM      5  C   UNL     1       0.833   3.033  19.917  0.00  0.00    +0.000 A 
ATOM      6  C   UNL     1       1.253   4.169  20.615  0.00  0.00    +0.000 A 
ATOM      7  C   UNL     1       1.964   5.179  19.962  0.00  0.00    +0.000 A 
ENDBRANCH   1   2
BRANCH   1   8
ATOM      8  N   UNL     1       4.502   5.867  17.887  0.00  0.00    +0.000 N 
ATOM      9  H   UNL     1       5.045   6.020  18.751  0.00  0.00    +0.000 HD
BRANCH   8  10
ATOM     10  C   UNL     1       5.165   5.299  16.772  0.00  0.00    +0.000 A 
ATOM     11  C   UNL     1       5.302   5.908  15.540  0.00  0.00    +0.000 A 
ATOM     12  C   UNL     1       5.971   5.000  14.753  0.00  0.00    +0.000 A 
ATOM     13  C   UNL     1       6.197   3.892  15.550  0.00  0.00    +0.000 A 
ATOM     14  O   UNL     1       5.711   4.102  16.754  0.00  0.00    +0.000 OA
ENDBRANCH   8  10
ENDBRANCH   1   8
BRANCH   1  15
ATOM     15  C   UNL     1       2.894   7.590  18.522  0.00  0.00    +0.000 C 
BRANCH  15  17
ATOM     16  C   UNL     1       1.704   9.708  18.042  0.00  0.00    +0.000 C 
ATOM     17  C   UNL     1       1.953   8.441  17.706  0.00  0.00    +0.000 C 
ENDBRANCH  15  17
ENDBRANCH   1  15
TORSDOF 5
ENDMDL
MODEL 9
REMARK VINA RESULT:      -6.6      1.402      1.668
REMARK  Name = 
REMARK  5 active torsions:
REMARK  status: ('A' for Active; 'I' for Inactive)
REMARK    1  A    between atoms: C_2  and  C_3
REMARK    2  A    between atoms: C_3  and  C_4
REMARK    3  A    between atoms: C_4  and  N_5
REMARK    4  A    between atoms: C_4  and  C_11
REMARK    5  A    between atoms: N_5  and  C_6
REMARK                            x       y       z     vdW  Elec       q    Type
REMARK                         _______ _______ _______ _____ _____    ______ ____
ROOT
ATOM      1  C   UNL     1       2.693   5.850  18.037  0.00  0.00    +0.000 C 
ENDROOT
BRANCH   1   2
ATOM      2  C   UNL     1       2.205   4.798  19.045  0.00  0.00    +0.000 A 
ATOM      3  C   UNL     1       2.516   4.861  20.428  0.00  0.00    +0.000 A 
ATOM      4  C   UNL     1       2.023   3.910  21.318  0.00  0.00    +0.000 A 
ATOM      5  C   UNL     1       1.222   2.870  20.858  0.00  0.00    +0.000 A 
ATOM      6  C   UNL     1       0.917   2.780  19.496  0.00  0.00    +0.000 A 
ATOM      7  C   UNL     1       1.401   3.734  18.598  0.00  0.00    +0.000 A 
ENDBRANCH   1   2
BRANCH   1   8
ATOM      8  N   UNL     1       3.915   5.422  17.370  0.00  0.00    +0.000 N 
ATOM      9  H   UNL     1       3.826   4.932  16.466  0.00  0.00    +0.000 HD
BRANCH   8  10
ATOM     10  C   UNL     1       5.217   5.699  17.855  0.00  0.00    +0.000 A 
ATOM     11  C   UNL     1       6.151   6.485  17.209  0.00  0.00    +0.000 A 
ATOM     12  C   UNL     1       7.272   6.454  18.004  0.00  0.00    +0.000 A 
ATOM     13  C   UNL     1       6.956   5.648  19.085  0.00  0.00    +0.000 A 
ATOM     14  O   UNL     1       5.719   5.217  18.972  0.00  0.00    +0.000 OA
ENDBRANCH   8  10
ENDBRANCH   1   8
BRANCH   1  15
ATOM     15  C   UNL     1       2.916   7.259  18.629  0.00  0.00    +0.000 C 
BRANCH  15  17
ATOM     16  C   UNL     1       1.488   9.181  18.000  0.00  0.00    +0.000 C 
ATOM     17  C   UNL     1       2.478   8.347  17.680  0.00  0.00    +0.000 C 
ENDBRANCH  15  17
ENDBRANCH   1  15
TORSDOF 5
ENDMDL
