MODEL 1
REMARK VINA RESULT:      -8.4      0.000      0.000
REMARK  Name = 
REMARK  8 active torsions:
REMARK  status: ('A' for Active; 'I' for Inactive)
REMARK    1  A    between atoms: C_1  and  O_2
REMARK    2  A    between atoms: O_2  and  C_3
REMARK    3  A    between atoms: C_5  and  C_6
REMARK    4  A    between atoms: N_8  and  C_9
REMARK    5  A    between atoms: C_9  and  C_10
REMARK    6  A    between atoms: C_9  and  C_17
REMARK    7  A    between atoms: C_10  and  N_11
REMARK    8  A    between atoms: C_25  and  C_26
REMARK                            x       y       z     vdW  Elec       q    Type
REMARK                         _______ _______ _______ _____ _____    ______ ____
ROOT
ATOM      1  C   UNL     1       1.926   8.563  18.275  0.00  0.00    +0.000 C 
ATOM      2  O   UNL     1       2.231   8.842  17.123  0.00  0.00    +0.000 OA
ATOM      3  N   UNL     1       2.142   7.324  18.837  0.00  0.00    +0.000 N 
ATOM      4  H   UNL     1       1.829   7.133  19.774  0.00  0.00    +0.000 HD
ENDROOT
BRANCH   1   7
ATOM      5  C   UNL     1       0.790  10.364  21.424  0.00  0.00    +0.000 A 
ATOM      6  C   UNL     1       1.278   9.382  20.544  0.00  0.00    +0.000 A 
ATOM      7  C   UNL     1       1.265   9.583  19.155  0.00  0.00    +0.000 A 
ATOM      8  C   UNL     1       0.651  10.729  18.644  0.00  0.00    +0.000 A 
ATOM      9  C   UNL     1       0.174  11.716  19.511  0.00  0.00    +0.000 A 
ATOM     10  C   UNL     1       0.275  11.571  20.901  0.00  0.00    +0.000 A 
BRANCH  10  11
ATOM     11  C   UNL     1      -0.046  12.739  21.720  0.00  0.00    +0.000 A 
ATOM     12  C   UNL     1       0.653  13.968  21.833  0.00  0.00    +0.000 A 
ATOM     13  N   UNL     1       0.099  14.804  22.714  0.00  0.00    +0.000 NA
ATOM     14  N   UNL     1      -0.948  14.108  23.184  0.00  0.00    +0.000 N 
ATOM     15  C   UNL     1      -1.089  12.878  22.608  0.00  0.00    +0.000 A 
ATOM     16  H   UNL     1      -1.521  14.534  23.904  0.00  0.00    +0.000 HD
ENDBRANCH  10  11
BRANCH   5  18
ATOM     17  C   UNL     1      -0.293   9.411  23.331  0.00  0.00    +0.000 C 
ATOM     18  O   UNL     1       0.760  10.196  22.785  0.00  0.00    +0.000 OA
ENDBRANCH   5  18
ENDBRANCH   1   7
BRANCH   3  19
ATOM     19  C   UNL     1       2.821   6.215  18.158  0.00  0.00    +0.000 C 
BRANCH  19  20
ATOM     20  C   UNL     1       2.248   4.865  18.622  0.00  0.00    +0.000 A 
ATOM     21  C   UNL     1       1.610   4.744  19.874  0.00  0.00    +0.000 A 
ATOM     22  C   UNL     1       1.128   3.513  20.328  0.00  0.00    +0.000 A 
ATOM     23  C   UNL     1       1.226   2.384  19.523  0.00  0.00    +0.000 A 
ATOM     24  C   UNL     1       1.789   2.491  18.256  0.00  0.00    +0.000 A 
ATOM     25  C   UNL     1       2.290   3.718  17.811  0.00  0.00    +0.000 A 
ENDBRANCH  19  20
BRANCH  19  26
ATOM     26  C   UNL     1       4.388   6.347  18.248  0.00  0.00    +0.000 C 
BRANCH  26  27
ATOM     27  N   UNL     1       5.138   6.680  17.004  0.00  0.00    +0.000 NA
ATOM     28  C   UNL     1       5.251   5.552  16.054  0.00  0.00    +0.000 C 
ATOM     29  C   UNL     1       6.142   4.405  16.562  0.00  0.00    +0.000 C 
ATOM     30  O   UNL     1       7.465   4.878  16.848  0.00  0.00    +0.000 OA
ATOM     31  C   UNL     1       7.428   5.945  17.804  0.00  0.00    +0.000 C 
ATOM     32  C   UNL     1       6.527   7.099  17.328  0.00  0.00    +0.000 C 
ENDBRANCH  26  27
ENDBRANCH  19  26
ENDBRANCH   3  19
TORSDOF 7
ENDMDL
MODEL 2
REMARK VINA RESULT:      -8.3      0.580      1.228
REMARK  Name = 
REMARK  8 active torsions:
REMARK  status: ('A' for Active; 'I' for Inactive)
REMARK    1  A    between atoms: C_1  and  O_2
REMARK    2  A    between atoms: O_2  and  C_3
REMARK    3  A    between atoms: C_5  and  C_6
REMARK    4  A    between atoms: N_8  and  C_9
REMARK    5  A    between atoms: C_9  and  C_10
REMARK    6  A    between atoms: C_9  and  C_17
REMARK    7  A    between atoms: C_10  and  N_11
REMARK    8  A    between atoms: C_25  and  C_26
REMARK                            x       y       z     vdW  Elec       q    Type
REMARK                         _______ _______ _______ _____ _____    ______ ____
ROOT
ATOM      1  C   UNL     1       2.151   8.266  18.169  0.00  0.00    +0.000 C 
ATOM      2  O   UNL     1       2.582   8.576  17.066  0.00  0.00    +0.000 OA
ATOM      3  N   UNL     1       2.326   7.019  18.728  0.00  0.00    +0.000 N 
ATOM      4  H   UNL     1       1.910   6.800  19.617  0.00  0.00    +0.000 HD
ENDROOT
BRANCH   1   7
ATOM      5  C   UNL     1       0.836  10.149  21.198  0.00  0.00    +0.000 A 
ATOM      6  C   UNL     1       1.441   9.174  20.385  0.00  0.00    +0.000 A 
ATOM      7  C   UNL     1       1.369   9.252  18.985  0.00  0.00    +0.000 A 
ATOM      8  C   UNL     1       0.583  10.251  18.405  0.00  0.00    +0.000 A 
ATOM      9  C   UNL     1      -0.012  11.230  19.204  0.00  0.00    +0.000 A 
ATOM     10  C   UNL     1       0.140  11.221  20.597  0.00  0.00    +0.000 A 
BRANCH  10  11
ATOM     11  C   UNL     1      -0.329  12.396  21.329  0.00  0.00    +0.000 A 
ATOM     12  C   UNL     1      -1.604  12.640  21.901  0.00  0.00    +0.000 A 
ATOM     13  N   UNL     1      -1.702  13.847  22.463  0.00  0.00    +0.000 NA
ATOM     14  N   UNL     1      -0.494  14.390  22.238  0.00  0.00    +0.000 N 
ATOM     15  C   UNL     1       0.366  13.557  21.583  0.00  0.00    +0.000 A 
ATOM     16  H   UNL     1      -0.331  15.340  22.556  0.00  0.00    +0.000 HD
ENDBRANCH  10  11
BRANCH   5  18
ATOM     17  C   UNL     1      -0.207   9.421  23.223  0.00  0.00    +0.000 C 
ATOM     18  O   UNL     1       0.861  10.094  22.569  0.00  0.00    +0.000 OA
ENDBRANCH   5  18
ENDBRANCH   1   7
BRANCH   3  19
ATOM     19  C   UNL     1       3.105   5.939  18.111  0.00  0.00    +0.000 C 
BRANCH  19  20
ATOM     20  C   UNL     1       2.466   4.573  18.411  0.00  0.00    +0.000 A 
ATOM     21  C   UNL     1       2.818   3.431  17.661  0.00  0.00    +0.000 A 
ATOM     22  C   UNL     1       2.209   2.194  17.891  0.00  0.00    +0.000 A 
ATOM     23  C   UNL     1       1.272   2.055  18.908  0.00  0.00    +0.000 A 
ATOM     24  C   UNL     1       0.958   3.149  19.706  0.00  0.00    +0.000 A 
ATOM     25  C   UNL     1       1.551   4.391  19.462  0.00  0.00    +0.000 A 
ENDBRANCH  19  20
BRANCH  19  26
ATOM     26  C   UNL     1       4.638   6.054  18.455  0.00  0.00    +0.000 C 
BRANCH  26  27
ATOM     27  N   UNL     1       5.549   6.623  17.422  0.00  0.00    +0.000 NA
ATOM     28  C   UNL     1       5.514   5.902  16.131  0.00  0.00    +0.000 C 
ATOM     29  C   UNL     1       6.101   4.482  16.202  0.00  0.00    +0.000 C 
ATOM     30  O   UNL     1       7.462   4.517  16.653  0.00  0.00    +0.000 OA
ATOM     31  C   UNL     1       7.558   5.163  17.928  0.00  0.00    +0.000 C 
ATOM     32  C   UNL     1       6.959   6.582  17.889  0.00  0.00    +0.000 C 
ENDBRANCH  26  27
ENDBRANCH  19  26
ENDBRANCH   3  19
TORSDOF 7
ENDMDL
MODEL 3
REMARK VINA RESULT:      -8.3      0.697      1.128
REMARK  Name = 
REMARK  8 active torsions:
REMARK  status: ('A' for Active; 'I' for Inactive)
REMARK    1  A    between atoms: C_1  and  O_2
REMARK    2  A    between atoms: O_2  and  C_3
REMARK    3  A    between atoms: C_5  and  C_6
REMARK    4  A    between atoms: N_8  and  C_9
REMARK    5  A    between atoms: C_9  and  C_10
REMARK    6  A    between atoms: C_9  and  C_17
REMARK    7  A    between atoms: C_10  and  N_11
REMARK    8  A    between atoms: C_25  and  C_26
REMARK                            x       y       z     vdW  Elec       q    Type
REMARK                         _______ _______ _______ _____ _____    ______ ____
ROOT
ATOM      1  C   UNL     1       1.851   8.719  18.326  0.00  0.00    +0.000 C 
ATOM      2  O   UNL     1       2.178   8.945  17.168  0.00  0.00    +0.000 OA
ATOM      3  N   UNL     1       1.996   7.489  18.928  0.00  0.00    +0.000 N 
ATOM      4  H   UNL     1       1.666   7.343  19.867  0.00  0.00    +0.000 HD
ENDROOT
BRANCH   1   7
ATOM      5  C   UNL     1       0.670  10.610  21.405  0.00  0.00    +0.000 A 
ATOM      6  C   UNL     1       1.114   9.586  20.550  0.00  0.00    +0.000 A 
ATOM      7  C   UNL     1       1.239   9.799  19.169  0.00  0.00    +0.000 A 
ATOM      8  C   UNL     1       0.802  11.013  18.631  0.00  0.00    +0.000 A 
ATOM      9  C   UNL     1       0.370  12.039  19.474  0.00  0.00    +0.000 A 
ATOM     10  C   UNL     1       0.339  11.872  20.865  0.00  0.00    +0.000 A 
BRANCH  10  11
ATOM     11  C   UNL     1       0.085  13.061  21.677  0.00  0.00    +0.000 A 
ATOM     12  C   UNL     1       0.897  14.212  21.851  0.00  0.00    +0.000 A 
ATOM     13  N   UNL     1       0.375  15.095  22.705  0.00  0.00    +0.000 NA
ATOM     14  N   UNL     1      -0.767  14.506  23.096  0.00  0.00    +0.000 N 
ATOM     15  C   UNL     1      -0.994  13.301  22.496  0.00  0.00    +0.000 A 
ATOM     16  H   UNL     1      -1.340  14.985  23.783  0.00  0.00    +0.000 HD
ENDBRANCH  10  11
BRANCH   5  18
ATOM     17  C   UNL     1      -0.591   9.647  23.194  0.00  0.00    +0.000 C 
ATOM     18  O   UNL     1       0.509  10.433  22.757  0.00  0.00    +0.000 OA
ENDBRANCH   5  18
ENDBRANCH   1   7
BRANCH   3  19
ATOM     19  C   UNL     1       2.619   6.324  18.290  0.00  0.00    +0.000 C 
BRANCH  19  20
ATOM     20  C   UNL     1       2.033   5.019  18.854  0.00  0.00    +0.000 A 
ATOM     21  C   UNL     1       1.804   4.870  20.237  0.00  0.00    +0.000 A 
ATOM     22  C   UNL     1       1.317   3.673  20.769  0.00  0.00    +0.000 A 
ATOM     23  C   UNL     1       0.999   2.613  19.927  0.00  0.00    +0.000 A 
ATOM     24  C   UNL     1       1.152   2.758  18.553  0.00  0.00    +0.000 A 
ATOM     25  C   UNL     1       1.659   3.948  18.024  0.00  0.00    +0.000 A 
ENDBRANCH  19  20
BRANCH  19  26
ATOM     26  C   UNL     1       4.192   6.419  18.310  0.00  0.00    +0.000 C 
BRANCH  26  27
ATOM     27  N   UNL     1       4.971   5.155  18.429  0.00  0.00    +0.000 NA
ATOM     28  C   UNL     1       6.270   5.315  19.118  0.00  0.00    +0.000 C 
ATOM     29  C   UNL     1       7.292   6.144  18.321  0.00  0.00    +0.000 C 
ATOM     30  O   UNL     1       7.541   5.549  17.040  0.00  0.00    +0.000 OA
ATOM     31  C   UNL     1       6.322   5.410  16.300  0.00  0.00    +0.000 C 
ATOM     32  C   UNL     1       5.273   4.599  17.084  0.00  0.00    +0.000 C 
ENDBRANCH  26  27
ENDBRANCH  19  26
ENDBRANCH   3  19
TORSDOF 7
ENDMDL
MODEL 4
REMARK VINA RESULT:      -8.3      3.051      8.710
REMARK  Name = 
REMARK  8 active torsions:
REMARK  status: ('A' for Active; 'I' for Inactive)
REMARK    1  A    between atoms: C_1  and  O_2
REMARK    2  A    between atoms: O_2  and  C_3
REMARK    3  A    between atoms: C_5  and  C_6
REMARK    4  A    between atoms: N_8  and  C_9
REMARK    5  A    between atoms: C_9  and  C_10
REMARK    6  A    between atoms: C_9  and  C_17
REMARK    7  A    between atoms: C_10  and  N_11
REMARK    8  A    between atoms: C_25  and  C_26
REMARK                            x       y       z     vdW  Elec       q    Type
REMARK                         _______ _______ _______ _____ _____    ______ ____
ROOT
ATOM      1  C   UNL     1       1.699   9.619  18.440  0.00  0.00    +0.000 C 
ATOM      2  O   UNL     1       2.204  10.486  17.738  0.00  0.00    +0.000 OA
ATOM      3  N   UNL     1       0.576   9.827  19.210  0.00  0.00    +0.000 N 
ATOM      4  H   UNL     1       0.229   9.095  19.806  0.00  0.00    +0.000 HD
ENDROOT
BRANCH   1   7
ATOM      5  C   UNL     1       2.412   6.088  19.654  0.00  0.00    +0.000 A 
ATOM      6  C   UNL     1       1.977   7.424  19.600  0.00  0.00    +0.000 A 
ATOM      7  C   UNL     1       2.307   8.249  18.513  0.00  0.00    +0.000 A 
ATOM      8  C   UNL     1       3.177   7.762  17.534  0.00  0.00    +0.000 A 
ATOM      9  C   UNL     1       3.604   6.433  17.575  0.00  0.00    +0.000 A 
ATOM     10  C   UNL     1       3.198   5.569  18.601  0.00  0.00    +0.000 A 
BRANCH  10  11
ATOM     11  C   UNL     1       3.512   4.150  18.446  0.00  0.00    +0.000 A 
ATOM     12  C   UNL     1       2.852   3.172  17.657  0.00  0.00    +0.000 A 
ATOM     13  N   UNL     1       3.382   1.954  17.786  0.00  0.00    +0.000 NA
ATOM     14  N   UNL     1       4.374   2.141  18.672  0.00  0.00    +0.000 N 
ATOM     15  C   UNL     1       4.504   3.437  19.080  0.00  0.00    +0.000 A 
ATOM     16  H   UNL     1       4.918   1.334  18.958  0.00  0.00    +0.000 HD
ENDBRANCH  10  11
BRANCH   5  18
ATOM     17  C   UNL     1       1.028   4.374  20.583  0.00  0.00    +0.000 C 
ATOM     18  O   UNL     1       2.134   5.257  20.710  0.00  0.00    +0.000 OA
ENDBRANCH   5  18
ENDBRANCH   1   7
BRANCH   3  19
ATOM     19  C   UNL     1      -0.191  11.078  19.233  0.00  0.00    +0.000 C 
BRANCH  19  20
ATOM     20  C   UNL     1      -0.826  11.298  20.616  0.00  0.00    +0.000 A 
ATOM     21  C   UNL     1      -1.837  12.263  20.801  0.00  0.00    +0.000 A 
ATOM     22  C   UNL     1      -2.388  12.506  22.062  0.00  0.00    +0.000 A 
ATOM     23  C   UNL     1      -1.979  11.758  23.160  0.00  0.00    +0.000 A 
ATOM     24  C   UNL     1      -1.033  10.754  22.991  0.00  0.00    +0.000 A 
ATOM     25  C   UNL     1      -0.466  10.525  21.734  0.00  0.00    +0.000 A 
ENDBRANCH  19  20
BRANCH  19  26
ATOM     26  C   UNL     1      -1.184  11.176  18.014  0.00  0.00    +0.000 C 
BRANCH  26  27
ATOM     27  N   UNL     1      -2.141  10.055  17.796  0.00  0.00    +0.000 NA
ATOM     28  C   UNL     1      -2.192   9.576  16.397  0.00  0.00    +0.000 C 
ATOM     29  C   UNL     1      -2.800  10.595  15.418  0.00  0.00    +0.000 C 
ATOM     30  O   UNL     1      -4.133  10.948  15.814  0.00  0.00    +0.000 OA
ATOM     31  C   UNL     1      -4.145  11.467  17.150  0.00  0.00    +0.000 C 
ATOM     32  C   UNL     1      -3.524  10.472  18.148  0.00  0.00    +0.000 C 
ENDBRANCH  26  27
ENDBRANCH  19  26
ENDBRANCH   3  19
TORSDOF 7
ENDMDL
MODEL 5
REMARK VINA RESULT:      -8.2      1.186      1.897
REMARK  Name = 
REMARK  8 active torsions:
REMARK  status: ('A' for Active; 'I' for Inactive)
REMARK    1  A    between atoms: C_1  and  O_2
REMARK    2  A    between atoms: O_2  and  C_3
REMARK    3  A    between atoms: C_5  and  C_6
REMARK    4  A    between atoms: N_8  and  C_9
REMARK    5  A    between atoms: C_9  and  C_10
REMARK    6  A    between atoms: C_9  and  C_17
REMARK    7  A    between atoms: C_10  and  N_11
REMARK    8  A    between atoms: C_25  and  C_26
REMARK                            x       y       z     vdW  Elec       q    Type
REMARK                         _______ _______ _______ _____ _____    ______ ____
ROOT
ATOM      1  C   UNL     1       2.016   8.499  18.289  0.00  0.00    +0.000 C 
ATOM      2  O   UNL     1       2.307   8.817  17.144  0.00  0.00    +0.000 OA
ATOM      3  N   UNL     1       2.245   7.245  18.810  0.00  0.00    +0.000 N 
ATOM      4  H   UNL     1       1.944   7.021  19.743  0.00  0.00    +0.000 HD
ENDROOT
BRANCH   1   7
ATOM      5  C   UNL     1       0.517  11.758  19.549  0.00  0.00    +0.000 A 
ATOM      6  C   UNL     1       1.237  10.820  18.788  0.00  0.00    +0.000 A 
ATOM      7  C   UNL     1       1.358   9.486  19.209  0.00  0.00    +0.000 A 
ATOM      8  C   UNL     1       0.852   9.124  20.460  0.00  0.00    +0.000 A 
ATOM      9  C   UNL     1       0.125  10.045  21.217  0.00  0.00    +0.000 A 
ATOM     10  C   UNL     1      -0.090  11.352  20.759  0.00  0.00    +0.000 A 
BRANCH  10  11
ATOM     11  C   UNL     1      -1.039  12.176  21.507  0.00  0.00    +0.000 A 
ATOM     12  C   UNL     1      -0.838  12.895  22.713  0.00  0.00    +0.000 A 
ATOM     13  N   UNL     1      -1.942  13.509  23.144  0.00  0.00    +0.000 NA
ATOM     14  N   UNL     1      -2.862  13.171  22.226  0.00  0.00    +0.000 N 
ATOM     15  C   UNL     1      -2.367  12.393  21.219  0.00  0.00    +0.000 A 
ATOM     16  H   UNL     1      -3.811  13.504  22.355  0.00  0.00    +0.000 HD
ENDBRANCH  10  11
BRANCH   5  18
ATOM     17  C   UNL     1       1.585  13.776  18.842  0.00  0.00    +0.000 C 
ATOM     18  O   UNL     1       0.397  13.076  19.188  0.00  0.00    +0.000 OA
ENDBRANCH   5  18
ENDBRANCH   1   7
BRANCH   3  19
ATOM     19  C   UNL     1       2.924   6.162  18.089  0.00  0.00    +0.000 C 
BRANCH  19  20
ATOM     20  C   UNL     1       2.340   4.797  18.488  0.00  0.00    +0.000 A 
ATOM     21  C   UNL     1       1.606   4.648  19.683  0.00  0.00    +0.000 A 
ATOM     22  C   UNL     1       1.111   3.403  20.082  0.00  0.00    +0.000 A 
ATOM     23  C   UNL     1       1.292   2.287  19.274  0.00  0.00    +0.000 A 
ATOM     24  C   UNL     1       1.953   2.421  18.058  0.00  0.00    +0.000 A 
ATOM     25  C   UNL     1       2.467   3.661  17.670  0.00  0.00    +0.000 A 
ENDBRANCH  19  20
BRANCH  19  26
ATOM     26  C   UNL     1       4.491   6.280  18.198  0.00  0.00    +0.000 C 
BRANCH  26  27
ATOM     27  N   UNL     1       5.257   6.632  16.969  0.00  0.00    +0.000 NA
ATOM     28  C   UNL     1       5.319   5.542  15.970  0.00  0.00    +0.000 C 
ATOM     29  C   UNL     1       6.155   4.334  16.428  0.00  0.00    +0.000 C 
ATOM     30  O   UNL     1       7.499   4.732  16.732  0.00  0.00    +0.000 OA
ATOM     31  C   UNL     1       7.510   5.758  17.733  0.00  0.00    +0.000 C 
ATOM     32  C   UNL     1       6.663   6.972  17.308  0.00  0.00    +0.000 C 
ENDBRANCH  26  27
ENDBRANCH  19  26
ENDBRANCH   3  19
TORSDOF 7
ENDMDL
MODEL 6
REMARK VINA RESULT:      -8.2      1.302      2.188
REMARK  Name = 
REMARK  8 active torsions:
REMARK  status: ('A' for Active; 'I' for Inactive)
REMARK    1  A    between atoms: C_1  and  O_2
REMARK    2  A    between atoms: O_2  and  C_3
REMARK    3  A    between atoms: C_5  and  C_6
REMARK    4  A    between atoms: N_8  and  C_9
REMARK    5  A    between atoms: C_9  and  C_10
REMARK    6  A    between atoms: C_9  and  C_17
REMARK    7  A    between atoms: C_10  and  N_11
REMARK    8  A    between atoms: C_25  and  C_26
REMARK                            x       y       z     vdW  Elec       q    Type
REMARK                         _______ _______ _______ _____ _____    ______ ____
ROOT
ATOM      1  C   UNL     1       2.232   8.270  18.225  0.00  0.00    +0.000 C 
ATOM      2  O   UNL     1       2.549   8.537  17.073  0.00  0.00    +0.000 OA
ATOM      3  N   UNL     1       2.458   7.043  18.808  0.00  0.00    +0.000 N 
ATOM      4  H   UNL     1       2.134   6.859  19.742  0.00  0.00    +0.000 HD
ENDROOT
BRANCH   1   7
ATOM      5  C   UNL     1       0.641  11.556  19.283  0.00  0.00    +0.000 A 
ATOM      6  C   UNL     1       1.390  10.594  18.583  0.00  0.00    +0.000 A 
ATOM      7  C   UNL     1       1.542   9.291  19.081  0.00  0.00    +0.000 A 
ATOM      8  C   UNL     1       1.034   8.988  20.347  0.00  0.00    +0.000 A 
ATOM      9  C   UNL     1       0.278   9.933  21.044  0.00  0.00    +0.000 A 
ATOM     10  C   UNL     1       0.033  11.206  20.510  0.00  0.00    +0.000 A 
BRANCH  10  11
ATOM     11  C   UNL     1      -0.942  12.046  21.202  0.00  0.00    +0.000 A 
ATOM     12  C   UNL     1      -2.277  12.353  20.831  0.00  0.00    +0.000 A 
ATOM     13  N   UNL     1      -2.873  13.195  21.679  0.00  0.00    +0.000 NA
ATOM     14  N   UNL     1      -1.917  13.446  22.588  0.00  0.00    +0.000 N 
ATOM     15  C   UNL     1      -0.754  12.769  22.358  0.00  0.00    +0.000 A 
ATOM     16  H   UNL     1      -2.129  14.098  23.336  0.00  0.00    +0.000 HD
ENDBRANCH  10  11
BRANCH   5  18
ATOM     17  C   UNL     1       1.609  13.718  18.961  0.00  0.00    +0.000 C 
ATOM     18  O   UNL     1       0.491  12.848  18.845  0.00  0.00    +0.000 OA
ENDBRANCH   5  18
ENDBRANCH   1   7
BRANCH   3  19
ATOM     19  C   UNL     1       3.165   5.935  18.155  0.00  0.00    +0.000 C 
BRANCH  19  20
ATOM     20  C   UNL     1       2.476   4.596  18.465  0.00  0.00    +0.000 A 
ATOM     21  C   UNL     1       2.753   3.446  17.696  0.00  0.00    +0.000 A 
ATOM     22  C   UNL     1       2.097   2.235  17.937  0.00  0.00    +0.000 A 
ATOM     23  C   UNL     1       1.187   2.129  18.982  0.00  0.00    +0.000 A 
ATOM     24  C   UNL     1       0.947   3.229  19.798  0.00  0.00    +0.000 A 
ATOM     25  C   UNL     1       1.587   4.446  19.544  0.00  0.00    +0.000 A 
ENDBRANCH  19  20
BRANCH  19  26
ATOM     26  C   UNL     1       4.713   5.978  18.445  0.00  0.00    +0.000 C 
BRANCH  26  27
ATOM     27  N   UNL     1       5.606   6.570  17.410  0.00  0.00    +0.000 NA
ATOM     28  C   UNL     1       5.513   5.909  16.090  0.00  0.00    +0.000 C 
ATOM     29  C   UNL     1       6.066   4.474  16.080  0.00  0.00    +0.000 C 
ATOM     30  O   UNL     1       7.441   4.455  16.488  0.00  0.00    +0.000 OA
ATOM     31  C   UNL     1       7.592   5.042  17.787  0.00  0.00    +0.000 C 
ATOM     32  C   UNL     1       7.028   6.475  17.830  0.00  0.00    +0.000 C 
ENDBRANCH  26  27
ENDBRANCH  19  26
ENDBRANCH   3  19
TORSDOF 7
ENDMDL
MODEL 7
REMARK VINA RESULT:      -8.1      1.430      2.011
REMARK  Name = 
REMARK  8 active torsions:
REMARK  status: ('A' for Active; 'I' for Inactive)
REMARK    1  A    between atoms: C_1  and  O_2
REMARK    2  A    between atoms: O_2  and  C_3
REMARK    3  A    between atoms: C_5  and  C_6
REMARK    4  A    between atoms: N_8  and  C_9
REMARK    5  A    between atoms: C_9  and  C_10
REMARK    6  A    between atoms: C_9  and  C_17
REMARK    7  A    between atoms: C_10  and  N_11
REMARK    8  A    between atoms: C_25  and  C_26
REMARK                            x       y       z     vdW  Elec       q    Type
REMARK                         _______ _______ _______ _____ _____    ______ ____
ROOT
ATOM      1  C   UNL     1       2.123   8.277  18.313  0.00  0.00    +0.000 C 
ATOM      2  O   UNL     1       2.475   8.652  17.202  0.00  0.00    +0.000 OA
ATOM      3  N   UNL     1       2.345   7.004  18.788  0.00  0.00    +0.000 N 
ATOM      4  H   UNL     1       1.994   6.733  19.691  0.00  0.00    +0.000 HD
ENDROOT
BRANCH   1   7
ATOM      5  C   UNL     1      -0.127  11.110  19.482  0.00  0.00    +0.000 A 
ATOM      6  C   UNL     1       0.679  10.282  18.680  0.00  0.00    +0.000 A 
ATOM      7  C   UNL     1       1.394   9.210  19.235  0.00  0.00    +0.000 A 
ATOM      8  C   UNL     1       1.390   9.041  20.622  0.00  0.00    +0.000 A 
ATOM      9  C   UNL     1       0.583   9.850  21.425  0.00  0.00    +0.000 A 
ATOM     10  C   UNL     1      -0.215  10.860  20.870  0.00  0.00    +0.000 A 
BRANCH  10  11
ATOM     11  C   UNL     1      -1.185  11.507  21.751  0.00  0.00    +0.000 A 
ATOM     12  C   UNL     1      -1.955  12.676  21.523  0.00  0.00    +0.000 A 
ATOM     13  N   UNL     1      -2.715  13.013  22.568  0.00  0.00    +0.000 NA
ATOM     14  N   UNL     1      -2.421  12.071  23.478  0.00  0.00    +0.000 N 
ATOM     15  C   UNL     1      -1.529  11.139  23.032  0.00  0.00    +0.000 A 
ATOM     16  H   UNL     1      -2.865  12.131  24.389  0.00  0.00    +0.000 HD
ENDBRANCH  10  11
BRANCH   5  18
ATOM     17  C   UNL     1      -1.688  11.956  17.881  0.00  0.00    +0.000 C 
ATOM     18  O   UNL     1      -0.820  12.184  18.983  0.00  0.00    +0.000 OA
ENDBRANCH   5  18
ENDBRANCH   1   7
BRANCH   3  19
ATOM     19  C   UNL     1       3.086   5.967  18.060  0.00  0.00    +0.000 C 
BRANCH  19  20
ATOM     20  C   UNL     1       2.478   4.580  18.328  0.00  0.00    +0.000 A 
ATOM     21  C   UNL     1       1.548   4.389  19.370  0.00  0.00    +0.000 A 
ATOM     22  C   UNL     1       1.024   3.124  19.655  0.00  0.00    +0.000 A 
ATOM     23  C   UNL     1       1.378   2.030  18.875  0.00  0.00    +0.000 A 
ATOM     24  C   UNL     1       2.241   2.204  17.798  0.00  0.00    +0.000 A 
ATOM     25  C   UNL     1       2.780   3.465  17.527  0.00  0.00    +0.000 A 
ENDBRANCH  19  20
BRANCH  19  26
ATOM     26  C   UNL     1       4.639   6.079  18.303  0.00  0.00    +0.000 C 
BRANCH  26  27
ATOM     27  N   UNL     1       5.493   6.552  17.178  0.00  0.00    +0.000 NA
ATOM     28  C   UNL     1       5.498   5.647  16.009  0.00  0.00    +0.000 C 
ATOM     29  C   UNL     1       6.190   4.299  16.276  0.00  0.00    +0.000 C 
ATOM     30  O   UNL     1       7.550   4.499  16.686  0.00  0.00    +0.000 OA
ATOM     31  C   UNL     1       7.611   5.333  17.850  0.00  0.00    +0.000 C 
ATOM     32  C   UNL     1       6.908   6.683  17.616  0.00  0.00    +0.000 C 
ENDBRANCH  26  27
ENDBRANCH  19  26
ENDBRANCH   3  19
TORSDOF 7
ENDMDL
MODEL 8
REMARK VINA RESULT:      -8.1      2.354      4.312
REMARK  Name = 
REMARK  8 active torsions:
REMARK  status: ('A' for Active; 'I' for Inactive)
REMARK    1  A    between atoms: C_1  and  O_2
REMARK    2  A    between atoms: O_2  and  C_3
REMARK    3  A    between atoms: C_5  and  C_6
REMARK    4  A    between atoms: N_8  and  C_9
REMARK    5  A    between atoms: C_9  and  C_10
REMARK    6  A    between atoms: C_9  and  C_17
REMARK    7  A    between atoms: C_10  and  N_11
REMARK    8  A    between atoms: C_25  and  C_26
REMARK                            x       y       z     vdW  Elec       q    Type
REMARK                         _______ _______ _______ _____ _____    ______ ____
ROOT
ATOM      1  C   UNL     1       2.873   6.456  19.029  0.00  0.00    +0.000 C 
ATOM      2  O   UNL     1       3.468   6.136  20.050  0.00  0.00    +0.000 OA
ATOM      3  N   UNL     1       2.859   5.686  17.887  0.00  0.00    +0.000 N 
ATOM      4  H   UNL     1       2.394   6.017  17.059  0.00  0.00    +0.000 HD
ENDROOT
BRANCH   1   7
ATOM      5  C   UNL     1       0.919   9.514  20.160  0.00  0.00    +0.000 A 
ATOM      6  C   UNL     1       1.526   8.246  20.133  0.00  0.00    +0.000 A 
ATOM      7  C   UNL     1       2.119   7.751  18.962  0.00  0.00    +0.000 A 
ATOM      8  C   UNL     1       1.997   8.487  17.780  0.00  0.00    +0.000 A 
ATOM      9  C   UNL     1       1.407   9.753  17.799  0.00  0.00    +0.000 A 
ATOM     10  C   UNL     1       0.903  10.302  18.986  0.00  0.00    +0.000 A 
BRANCH  10  11
ATOM     11  C   UNL     1       0.505  11.708  18.958  0.00  0.00    +0.000 A 
ATOM     12  C   UNL     1       1.235  12.849  19.380  0.00  0.00    +0.000 A 
ATOM     13  N   UNL     1       0.546  13.986  19.252  0.00  0.00    +0.000 NA
ATOM     14  N   UNL     1      -0.636  13.576  18.763  0.00  0.00    +0.000 N 
ATOM     15  C   UNL     1      -0.702  12.229  18.552  0.00  0.00    +0.000 A 
ATOM     16  H   UNL     1      -1.354  14.274  18.603  0.00  0.00    +0.000 HD
ENDBRANCH  10  11
BRANCH   5  18
ATOM     17  C   UNL     1      -0.291   9.102  22.180  0.00  0.00    +0.000 C 
ATOM     18  O   UNL     1       0.305  10.023  21.276  0.00  0.00    +0.000 OA
ENDBRANCH   5  18
ENDBRANCH   1   7
BRANCH   3  19
ATOM     19  C   UNL     1       3.491   4.365  17.772  0.00  0.00    +0.000 C 
BRANCH  19  20
ATOM     20  C   UNL     1       4.844   4.474  17.051  0.00  0.00    +0.000 A 
ATOM     21  C   UNL     1       6.044   4.590  17.783  0.00  0.00    +0.000 A 
ATOM     22  C   UNL     1       7.277   4.738  17.140  0.00  0.00    +0.000 A 
ATOM     23  C   UNL     1       7.347   4.724  15.752  0.00  0.00    +0.000 A 
ATOM     24  C   UNL     1       6.186   4.542  15.008  0.00  0.00    +0.000 A 
ATOM     25  C   UNL     1       4.951   4.415  15.651  0.00  0.00    +0.000 A 
ENDBRANCH  19  20
BRANCH  19  26
ATOM     26  C   UNL     1       2.498   3.293  17.182  0.00  0.00    +0.000 C 
BRANCH  26  27
ATOM     27  N   UNL     1       2.203   2.083  18.000  0.00  0.00    +0.000 NA
ATOM     28  C   UNL     1       0.978   2.201  18.822  0.00  0.00    +0.000 C 
ATOM     29  C   UNL     1       1.096   3.228  19.960  0.00  0.00    +0.000 C 
ATOM     30  O   UNL     1       2.185   2.896  20.833  0.00  0.00    +0.000 OA
ATOM     31  C   UNL     1       3.415   2.815  20.103  0.00  0.00    +0.000 C 
ATOM     32  C   UNL     1       3.318   1.806  18.943  0.00  0.00    +0.000 C 
ENDBRANCH  26  27
ENDBRANCH  19  26
ENDBRANCH   3  19
TORSDOF 7
ENDMDL
MODEL 9
REMARK VINA RESULT:      -8.1      1.970      2.417
REMARK  Name = 
REMARK  8 active torsions:
REMARK  status: ('A' for Active; 'I' for Inactive)
REMARK    1  A    between atoms: C_1  and  O_2
REMARK    2  A    between atoms: O_2  and  C_3
REMARK    3  A    between atoms: C_5  and  C_6
REMARK    4  A    between atoms: N_8  and  C_9
REMARK    5  A    between atoms: C_9  and  C_10
REMARK    6  A    between atoms: C_9  and  C_17
REMARK    7  A    between atoms: C_10  and  N_11
REMARK    8  A    between atoms: C_25  and  C_26
REMARK                            x       y       z     vdW  Elec       q    Type
REMARK                         _______ _______ _______ _____ _____    ______ ____
ROOT
ATOM      1  C   UNL     1       2.652   6.610  18.962  0.00  0.00    +0.000 C 
ATOM      2  O   UNL     1       3.387   6.287  19.887  0.00  0.00    +0.000 OA
ATOM      3  N   UNL     1       2.322   5.764  17.927  0.00  0.00    +0.000 N 
ATOM      4  H   UNL     1       1.753   6.094  17.166  0.00  0.00    +0.000 HD
ENDROOT
BRANCH   1   7
ATOM      5  C   UNL     1       0.930   9.815  20.064  0.00  0.00    +0.000 A 
ATOM      6  C   UNL     1       1.383   8.484  20.018  0.00  0.00    +0.000 A 
ATOM      7  C   UNL     1       2.071   7.991  18.898  0.00  0.00    +0.000 A 
ATOM      8  C   UNL     1       2.200   8.808  17.772  0.00  0.00    +0.000 A 
ATOM      9  C   UNL     1       1.764  10.134  17.812  0.00  0.00    +0.000 A 
ATOM     10  C   UNL     1       1.168  10.668  18.963  0.00  0.00    +0.000 A 
BRANCH  10  11
ATOM     11  C   UNL     1       0.944  12.113  18.992  0.00  0.00    +0.000 A 
ATOM     12  C   UNL     1      -0.170  12.852  18.518  0.00  0.00    +0.000 A 
ATOM     13  N   UNL     1      -0.022  14.170  18.666  0.00  0.00    +0.000 NA
ATOM     14  N   UNL     1       1.196  14.283  19.220  0.00  0.00    +0.000 N 
ATOM     15  C   UNL     1       1.804  13.084  19.452  0.00  0.00    +0.000 A 
ATOM     16  H   UNL     1       1.551  15.216  19.407  0.00  0.00    +0.000 HD
ENDBRANCH  10  11
BRANCH   5  18
ATOM     17  C   UNL     1       0.124   9.525  22.296  0.00  0.00    +0.000 C 
ATOM     18  O   UNL     1       0.231  10.328  21.127  0.00  0.00    +0.000 OA
ENDBRANCH   5  18
ENDBRANCH   1   7
BRANCH   3  19
ATOM     19  C   UNL     1       2.746   4.361  17.837  0.00  0.00    +0.000 C 
BRANCH  19  20
ATOM     20  C   UNL     1       2.499   3.635  19.170  0.00  0.00    +0.000 A 
ATOM     21  C   UNL     1       1.202   3.551  19.716  0.00  0.00    +0.000 A 
ATOM     22  C   UNL     1       0.971   2.936  20.950  0.00  0.00    +0.000 A 
ATOM     23  C   UNL     1       2.021   2.347  21.644  0.00  0.00    +0.000 A 
ATOM     24  C   UNL     1       3.298   2.356  21.095  0.00  0.00    +0.000 A 
ATOM     25  C   UNL     1       3.532   2.990  19.871  0.00  0.00    +0.000 A 
ENDBRANCH  19  20
BRANCH  19  26
ATOM     26  C   UNL     1       4.206   4.229  17.259  0.00  0.00    +0.000 C 
BRANCH  26  27
ATOM     27  N   UNL     1       4.926   5.475  16.875  0.00  0.00    +0.000 NA
ATOM     28  C   UNL     1       5.440   5.466  15.489  0.00  0.00    +0.000 C 
ATOM     29  C   UNL     1       6.581   4.460  15.261  0.00  0.00    +0.000 C 
ATOM     30  O   UNL     1       7.681   4.732  16.140  0.00  0.00    +0.000 OA
ATOM     31  C   UNL     1       7.256   4.707  17.508  0.00  0.00    +0.000 C 
ATOM     32  C   UNL     1       6.100   5.694  17.759  0.00  0.00    +0.000 C 
ENDBRANCH  26  27
ENDBRANCH  19  26
ENDBRANCH   3  19
TORSDOF 7
ENDMDL
