MODEL 1
REMARK VINA RESULT:      -7.7      0.000      0.000
REMARK  Name = 
REMARK  11 active torsions:
REMARK  status: ('A' for Active; 'I' for Inactive)
REMARK    1  A    between atoms: C_1  and  C_2
REMARK    2  A    between atoms: C_2  and  C_3
REMARK    3  A    between atoms: C_3  and  O_5
REMARK    4  A    between atoms: O_5  and  C_6
REMARK    5  A    between atoms: C_6  and  C_7
REMARK    6  A    between atoms: C_8  and  C_9
REMARK    7  A    between atoms: C_9  and  O_10
REMARK    8  A    between atoms: O_10  and  C_11
REMARK    9  A    between atoms: C_14  and  O_15
REMARK   10  A    between atoms: O_15  and  C_16
REMARK   11  A    between atoms: N_21  and  C_22
REMARK                            x       y       z     vdW  Elec       q    Type
REMARK                         _______ _______ _______ _____ _____    ______ ____
ROOT
ATOM      1  C   UNL     1       6.181   5.658  17.739  0.00  0.00    +0.000 C 
ATOM      2  C   UNL     1       4.793   6.045  17.188  0.00  0.00    +0.000 C 
ATOM      3  C   UNL     1       3.764   4.933  17.392  0.00  0.00    +0.000 C 
ATOM      4  N   UNL     1       3.657   4.482  18.783  0.00  0.00    +0.000 NA
ATOM      5  C   UNL     1       3.031   5.481  19.649  0.00  0.00    +0.000 C 
ATOM      6  C   UNL     1       4.963   4.047  19.286  0.00  0.00    +0.000 C 
ATOM      7  C   UNL     1       6.050   5.116  19.174  0.00  0.00    +0.000 C 
ENDROOT
BRANCH   1   8
ATOM      8  C   UNL     1       7.036   6.869  17.706  0.00  0.00    +0.000 C 
ATOM      9  C   UNL     1       7.673   7.886  17.691  0.00  0.00    +0.000 C 
BRANCH   9  10
ATOM     10  C   UNL     1       8.357   9.187  17.724  0.00  0.00    +0.000 C 
BRANCH  10  11
ATOM     11  O   UNL     1       8.763   9.495  19.058  0.00  0.00    +0.000 OA
BRANCH  11  12
ATOM     12  C   UNL     1       9.577  10.591  19.187  0.00  0.00    +0.000 A 
ATOM     13  C   UNL     1      10.011  11.161  17.991  0.00  0.00    +0.000 A 
ATOM     14  C   UNL     1      10.857  12.273  18.005  0.00  0.00    +0.000 A 
ATOM     15  C   UNL     1      11.246  12.852  19.211  0.00  0.00    +0.000 A 
ATOM     16  C   UNL     1      10.799  12.298  20.410  0.00  0.00    +0.000 A 
ATOM     17  C   UNL     1       9.963  11.172  20.396  0.00  0.00    +0.000 A 
BRANCH  15  18
ATOM     18  O   UNL     1      12.093  13.920  19.105  0.00  0.00    +0.000 OA
ATOM     19  C   UNL     1      11.721  15.082  19.837  0.00  0.00    +0.000 C 
ENDBRANCH  15  18
ENDBRANCH  11  12
ENDBRANCH  10  11
ENDBRANCH   9  10
ENDBRANCH   1   8
BRANCH   1  20
ATOM     20  O   UNL     1       6.706   4.643  16.837  0.00  0.00    +0.000 OA
BRANCH  20  21
ATOM     21  C   UNL     1       6.841   4.938  15.513  0.00  0.00    +0.000 C 
ATOM     22  O   UNL     1       7.634   5.734  15.032  0.00  0.00    +0.000 OA
BRANCH  21  24
ATOM     23  C   UNL     1       6.379   3.890  13.291  0.00  0.00    +0.000 C 
ATOM     24  C   UNL     1       5.865   4.116  14.705  0.00  0.00    +0.000 C 
ENDBRANCH  21  24
ENDBRANCH  20  21
ENDBRANCH   1  20
TORSDOF 8
ENDMDL
MODEL 2
REMARK VINA RESULT:      -7.5      0.348      1.037
REMARK  Name = 
REMARK  11 active torsions:
REMARK  status: ('A' for Active; 'I' for Inactive)
REMARK    1  A    between atoms: C_1  and  C_2
REMARK    2  A    between atoms: C_2  and  C_3
REMARK    3  A    between atoms: C_3  and  O_5
REMARK    4  A    between atoms: O_5  and  C_6
REMARK    5  A    between atoms: C_6  and  C_7
REMARK    6  A    between atoms: C_8  and  C_9
REMARK    7  A    between atoms: C_9  and  O_10
REMARK    8  A    between atoms: O_10  and  C_11
REMARK    9  A    between atoms: C_14  and  O_15
REMARK   10  A    between atoms: O_15  and  C_16
REMARK   11  A    between atoms: N_21  and  C_22
REMARK                            x       y       z     vdW  Elec       q    Type
REMARK                         _______ _______ _______ _____ _____    ______ ____
ROOT
ATOM      1  C   UNL     1       6.208   5.426  17.624  0.00  0.00    +0.000 C 
ATOM      2  C   UNL     1       4.869   5.776  16.941  0.00  0.00    +0.000 C 
ATOM      3  C   UNL     1       3.877   4.614  16.993  0.00  0.00    +0.000 C 
ATOM      4  N   UNL     1       3.643   4.106  18.348  0.00  0.00    +0.000 NA
ATOM      5  C   UNL     1       2.883   5.043  19.176  0.00  0.00    +0.000 C 
ATOM      6  C   UNL     1       4.907   3.707  18.974  0.00  0.00    +0.000 C 
ATOM      7  C   UNL     1       5.950   4.823  19.018  0.00  0.00    +0.000 C 
ENDROOT
BRANCH   1   8
ATOM      8  C   UNL     1       7.005   6.672  17.726  0.00  0.00    +0.000 C 
ATOM      9  C   UNL     1       7.630   7.696  17.746  0.00  0.00    +0.000 C 
BRANCH   9  10
ATOM     10  C   UNL     1       8.331   8.987  17.674  0.00  0.00    +0.000 C 
BRANCH  10  11
ATOM     11  O   UNL     1       8.662   9.441  18.986  0.00  0.00    +0.000 OA
BRANCH  11  12
ATOM     12  C   UNL     1       9.508  10.519  19.040  0.00  0.00    +0.000 A 
ATOM     13  C   UNL     1       9.924  10.894  20.317  0.00  0.00    +0.000 A 
ATOM     14  C   UNL     1      10.774  11.989  20.489  0.00  0.00    +0.000 A 
ATOM     15  C   UNL     1      11.252  12.695  19.387  0.00  0.00    +0.000 A 
ATOM     16  C   UNL     1      10.855  12.312  18.106  0.00  0.00    +0.000 A 
ATOM     17  C   UNL     1       9.988  11.224  17.935  0.00  0.00    +0.000 A 
BRANCH  15  18
ATOM     18  O   UNL     1      12.058  13.761  19.676  0.00  0.00    +0.000 OA
ATOM     19  C   UNL     1      11.391  14.998  19.905  0.00  0.00    +0.000 C 
ENDBRANCH  15  18
ENDBRANCH  11  12
ENDBRANCH  10  11
ENDBRANCH   9  10
ENDBRANCH   1   8
BRANCH   1  20
ATOM     20  O   UNL     1       6.871   4.470  16.750  0.00  0.00    +0.000 OA
BRANCH  20  21
ATOM     21  C   UNL     1       6.974   4.749  15.419  0.00  0.00    +0.000 C 
ATOM     22  O   UNL     1       7.622   5.660  14.925  0.00  0.00    +0.000 OA
BRANCH  21  24
ATOM     23  C   UNL     1       6.408   3.919  13.131  0.00  0.00    +0.000 C 
ATOM     24  C   UNL     1       6.174   3.746  14.624  0.00  0.00    +0.000 C 
ENDBRANCH  21  24
ENDBRANCH  20  21
ENDBRANCH   1  20
TORSDOF 8
ENDMDL
MODEL 3
REMARK VINA RESULT:      -7.4      5.646      7.273
REMARK  Name = 
REMARK  11 active torsions:
REMARK  status: ('A' for Active; 'I' for Inactive)
REMARK    1  A    between atoms: C_1  and  C_2
REMARK    2  A    between atoms: C_2  and  C_3
REMARK    3  A    between atoms: C_3  and  O_5
REMARK    4  A    between atoms: O_5  and  C_6
REMARK    5  A    between atoms: C_6  and  C_7
REMARK    6  A    between atoms: C_8  and  C_9
REMARK    7  A    between atoms: C_9  and  O_10
REMARK    8  A    between atoms: O_10  and  C_11
REMARK    9  A    between atoms: C_14  and  O_15
REMARK   10  A    between atoms: O_15  and  C_16
REMARK   11  A    between atoms: N_21  and  C_22
REMARK                            x       y       z     vdW  Elec       q    Type
REMARK                         _______ _______ _______ _____ _____    ______ ____
ROOT
ATOM      1  C   UNL     1       3.121   5.073  18.228  0.00  0.00    +0.000 C 
ATOM      2  C   UNL     1       1.858   4.311  17.774  0.00  0.00    +0.000 C 
ATOM      3  C   UNL     1       1.916   2.831  18.150  0.00  0.00    +0.000 C 
ATOM      4  N   UNL     1       2.171   2.598  19.575  0.00  0.00    +0.000 NA
ATOM      5  C   UNL     1       1.031   2.963  20.416  0.00  0.00    +0.000 C 
ATOM      6  C   UNL     1       3.409   3.264  19.992  0.00  0.00    +0.000 C 
ATOM      7  C   UNL     1       3.424   4.765  19.706  0.00  0.00    +0.000 C 
ENDROOT
BRANCH   1   8
ATOM      8  C   UNL     1       2.872   6.522  18.030  0.00  0.00    +0.000 C 
ATOM      9  C   UNL     1       2.627   7.692  17.920  0.00  0.00    +0.000 C 
BRANCH   9  10
ATOM     10  C   UNL     1       2.275   9.119  17.897  0.00  0.00    +0.000 C 
BRANCH  10  11
ATOM     11  O   UNL     1       0.885   9.287  18.171  0.00  0.00    +0.000 OA
BRANCH  11  12
ATOM     12  C   UNL     1       0.581   9.686  19.447  0.00  0.00    +0.000 A 
ATOM     13  C   UNL     1      -0.271  10.786  19.547  0.00  0.00    +0.000 A 
ATOM     14  C   UNL     1      -0.634  11.286  20.800  0.00  0.00    +0.000 A 
ATOM     15  C   UNL     1      -0.184  10.671  21.966  0.00  0.00    +0.000 A 
ATOM     16  C   UNL     1       0.653   9.558  21.872  0.00  0.00    +0.000 A 
ATOM     17  C   UNL     1       1.030   9.067  20.615  0.00  0.00    +0.000 A 
BRANCH  15  18
ATOM     18  O   UNL     1      -0.583  11.260  23.134  0.00  0.00    +0.000 OA
ATOM     19  C   UNL     1      -1.167  12.552  23.007  0.00  0.00    +0.000 C 
ENDBRANCH  15  18
ENDBRANCH  11  12
ENDBRANCH  10  11
ENDBRANCH   9  10
ENDBRANCH   1   8
BRANCH   1  20
ATOM     20  O   UNL     1       4.200   4.621  17.362  0.00  0.00    +0.000 OA
BRANCH  20  21
ATOM     21  C   UNL     1       5.257   5.450  17.131  0.00  0.00    +0.000 C 
ATOM     22  O   UNL     1       6.055   5.846  17.968  0.00  0.00    +0.000 OA
BRANCH  21  24
ATOM     23  C   UNL     1       5.640   4.584  14.818  0.00  0.00    +0.000 C 
ATOM     24  C   UNL     1       5.316   5.806  15.665  0.00  0.00    +0.000 C 
ENDBRANCH  21  24
ENDBRANCH  20  21
ENDBRANCH   1  20
TORSDOF 8
ENDMDL
MODEL 4
REMARK VINA RESULT:      -7.3      5.408      8.258
REMARK  Name = 
REMARK  11 active torsions:
REMARK  status: ('A' for Active; 'I' for Inactive)
REMARK    1  A    between atoms: C_1  and  C_2
REMARK    2  A    between atoms: C_2  and  C_3
REMARK    3  A    between atoms: C_3  and  O_5
REMARK    4  A    between atoms: O_5  and  C_6
REMARK    5  A    between atoms: C_6  and  C_7
REMARK    6  A    between atoms: C_8  and  C_9
REMARK    7  A    between atoms: C_9  and  O_10
REMARK    8  A    between atoms: O_10  and  C_11
REMARK    9  A    between atoms: C_14  and  O_15
REMARK   10  A    between atoms: O_15  and  C_16
REMARK   11  A    between atoms: N_21  and  C_22
REMARK                            x       y       z     vdW  Elec       q    Type
REMARK                         _______ _______ _______ _____ _____    ______ ____
ROOT
ATOM      1  C   UNL     1       3.049   5.415  18.418  0.00  0.00    +0.000 C 
ATOM      2  C   UNL     1       1.907   4.624  17.747  0.00  0.00    +0.000 C 
ATOM      3  C   UNL     1       1.988   3.128  18.053  0.00  0.00    +0.000 C 
ATOM      4  N   UNL     1       2.046   2.827  19.486  0.00  0.00    +0.000 NA
ATOM      5  C   UNL     1       0.780   3.093  20.168  0.00  0.00    +0.000 C 
ATOM      6  C   UNL     1       3.175   3.523  20.113  0.00  0.00    +0.000 C 
ATOM      7  C   UNL     1       3.152   5.037  19.907  0.00  0.00    +0.000 C 
ENDROOT
BRANCH   1   8
ATOM      8  C   UNL     1       2.756   6.859  18.258  0.00  0.00    +0.000 C 
ATOM      9  C   UNL     1       2.472   8.013  18.083  0.00  0.00    +0.000 C 
BRANCH   9  10
ATOM     10  C   UNL     1       2.020   9.386  17.816  0.00  0.00    +0.000 C 
BRANCH  10  11
ATOM     11  O   UNL     1       1.267   9.881  18.924  0.00  0.00    +0.000 OA
BRANCH  11  12
ATOM     12  C   UNL     1       0.049  10.425  18.611  0.00  0.00    +0.000 A 
ATOM     13  C   UNL     1      -0.762   9.649  17.783  0.00  0.00    +0.000 A 
ATOM     14  C   UNL     1      -2.019  10.113  17.389  0.00  0.00    +0.000 A 
ATOM     15  C   UNL     1      -2.498  11.338  17.849  0.00  0.00    +0.000 A 
ATOM     16  C   UNL     1      -1.699  12.110  18.693  0.00  0.00    +0.000 A 
ATOM     17  C   UNL     1      -0.431  11.651  19.075  0.00  0.00    +0.000 A 
BRANCH  15  18
ATOM     18  O   UNL     1      -3.729  11.702  17.379  0.00  0.00    +0.000 OA
ATOM     19  C   UNL     1      -4.112  11.128  16.134  0.00  0.00    +0.000 C 
ENDBRANCH  15  18
ENDBRANCH  11  12
ENDBRANCH  10  11
ENDBRANCH   9  10
ENDBRANCH   1   8
BRANCH   1  20
ATOM     20  O   UNL     1       4.264   5.061  17.698  0.00  0.00    +0.000 OA
BRANCH  20  21
ATOM     21  C   UNL     1       5.426   5.705  18.003  0.00  0.00    +0.000 C 
ATOM     22  O   UNL     1       6.056   5.595  19.045  0.00  0.00    +0.000 OA
BRANCH  21  24
ATOM     23  C   UNL     1       5.296   6.043  15.530  0.00  0.00    +0.000 C 
ATOM     24  C   UNL     1       5.846   6.577  16.844  0.00  0.00    +0.000 C 
ENDBRANCH  21  24
ENDBRANCH  20  21
ENDBRANCH   1  20
TORSDOF 8
ENDMDL
MODEL 5
REMARK VINA RESULT:      -7.2      5.528      8.532
REMARK  Name = 
REMARK  11 active torsions:
REMARK  status: ('A' for Active; 'I' for Inactive)
REMARK    1  A    between atoms: C_1  and  C_2
REMARK    2  A    between atoms: C_2  and  C_3
REMARK    3  A    between atoms: C_3  and  O_5
REMARK    4  A    between atoms: O_5  and  C_6
REMARK    5  A    between atoms: C_6  and  C_7
REMARK    6  A    between atoms: C_8  and  C_9
REMARK    7  A    between atoms: C_9  and  O_10
REMARK    8  A    between atoms: O_10  and  C_11
REMARK    9  A    between atoms: C_14  and  O_15
REMARK   10  A    between atoms: O_15  and  C_16
REMARK   11  A    between atoms: N_21  and  C_22
REMARK                            x       y       z     vdW  Elec       q    Type
REMARK                         _______ _______ _______ _____ _____    ______ ____
ROOT
ATOM      1  C   UNL     1       2.968   5.544  18.242  0.00  0.00    +0.000 C 
ATOM      2  C   UNL     1       1.762   4.680  17.818  0.00  0.00    +0.000 C 
ATOM      3  C   UNL     1       1.950   3.210  18.191  0.00  0.00    +0.000 C 
ATOM      4  N   UNL     1       2.257   3.000  19.609  0.00  0.00    +0.000 NA
ATOM      5  C   UNL     1       1.111   3.272  20.477  0.00  0.00    +0.000 C 
ATOM      6  C   UNL     1       3.445   3.766  19.998  0.00  0.00    +0.000 C 
ATOM      7  C   UNL     1       3.330   5.264  19.713  0.00  0.00    +0.000 C 
ENDROOT
BRANCH   1   8
ATOM      8  C   UNL     1       2.596   6.967  18.052  0.00  0.00    +0.000 C 
ATOM      9  C   UNL     1       2.265   8.117  17.957  0.00  0.00    +0.000 C 
BRANCH   9  10
ATOM     10  C   UNL     1       1.838   9.524  17.962  0.00  0.00    +0.000 C 
BRANCH  10  11
ATOM     11  O   UNL     1       0.958   9.767  19.059  0.00  0.00    +0.000 OA
BRANCH  11  12
ATOM     12  C   UNL     1      -0.287  10.232  18.722  0.00  0.00    +0.000 A 
ATOM     13  C   UNL     1      -0.810  11.214  19.563  0.00  0.00    +0.000 A 
ATOM     14  C   UNL     1      -2.078  11.749  19.322  0.00  0.00    +0.000 A 
ATOM     15  C   UNL     1      -2.821  11.339  18.216  0.00  0.00    +0.000 A 
ATOM     16  C   UNL     1      -2.294  10.372  17.361  0.00  0.00    +0.000 A 
ATOM     17  C   UNL     1      -1.029   9.823  17.613  0.00  0.00    +0.000 A 
BRANCH  15  18
ATOM     18  O   UNL     1      -4.056  11.912  18.093  0.00  0.00    +0.000 OA
ATOM     19  C   UNL     1      -4.880  11.390  17.057  0.00  0.00    +0.000 C 
ENDBRANCH  15  18
ENDBRANCH  11  12
ENDBRANCH  10  11
ENDBRANCH   9  10
ENDBRANCH   1   8
BRANCH   1  20
ATOM     20  O   UNL     1       4.060   5.182  17.351  0.00  0.00    +0.000 OA
BRANCH  20  21
ATOM     21  C   UNL     1       5.255   5.825  17.470  0.00  0.00    +0.000 C 
ATOM     22  O   UNL     1       5.480   6.986  17.160  0.00  0.00    +0.000 OA
BRANCH  21  24
ATOM     23  C   UNL     1       7.073   5.579  19.168  0.00  0.00    +0.000 C 
ATOM     24  C   UNL     1       6.280   4.891  18.067  0.00  0.00    +0.000 C 
ENDBRANCH  21  24
ENDBRANCH  20  21
ENDBRANCH   1  20
TORSDOF 8
ENDMDL
MODEL 6
REMARK VINA RESULT:      -7.2      5.814      8.566
REMARK  Name = 
REMARK  11 active torsions:
REMARK  status: ('A' for Active; 'I' for Inactive)
REMARK    1  A    between atoms: C_1  and  C_2
REMARK    2  A    between atoms: C_2  and  C_3
REMARK    3  A    between atoms: C_3  and  O_5
REMARK    4  A    between atoms: O_5  and  C_6
REMARK    5  A    between atoms: C_6  and  C_7
REMARK    6  A    between atoms: C_8  and  C_9
REMARK    7  A    between atoms: C_9  and  O_10
REMARK    8  A    between atoms: O_10  and  C_11
REMARK    9  A    between atoms: C_14  and  O_15
REMARK   10  A    between atoms: O_15  and  C_16
REMARK   11  A    between atoms: N_21  and  C_22
REMARK                            x       y       z     vdW  Elec       q    Type
REMARK                         _______ _______ _______ _____ _____    ______ ____
ROOT
ATOM      1  C   UNL     1       3.652   5.238  18.737  0.00  0.00    +0.000 C 
ATOM      2  C   UNL     1       5.069   5.328  19.341  0.00  0.00    +0.000 C 
ATOM      3  C   UNL     1       6.032   4.332  18.694  0.00  0.00    +0.000 C 
ATOM      4  N   UNL     1       6.089   4.438  17.232  0.00  0.00    +0.000 NA
ATOM      5  C   UNL     1       6.752   5.662  16.784  0.00  0.00    +0.000 C 
ATOM      6  C   UNL     1       4.752   4.282  16.652  0.00  0.00    +0.000 C 
ATOM      7  C   UNL     1       3.726   5.275  17.200  0.00  0.00    +0.000 C 
ENDROOT
BRANCH   1   8
ATOM      8  C   UNL     1       2.865   6.382  19.256  0.00  0.00    +0.000 C 
ATOM      9  C   UNL     1       2.245   7.343  19.622  0.00  0.00    +0.000 C 
BRANCH   9  10
ATOM     10  C   UNL     1       1.494   8.563  19.955  0.00  0.00    +0.000 C 
BRANCH  10  11
ATOM     11  O   UNL     1       1.016   8.494  21.298  0.00  0.00    +0.000 OA
BRANCH  11  12
ATOM     12  C   UNL     1       0.179   9.512  21.677  0.00  0.00    +0.000 A 
ATOM     13  C   UNL     1      -0.157  10.419  20.673  0.00  0.00    +0.000 A 
ATOM     14  C   UNL     1      -0.992  11.504  20.952  0.00  0.00    +0.000 A 
ATOM     15  C   UNL     1      -1.534  11.672  22.225  0.00  0.00    +0.000 A 
ATOM     16  C   UNL     1      -1.217  10.756  23.228  0.00  0.00    +0.000 A 
ATOM     17  C   UNL     1      -0.366   9.677  22.952  0.00  0.00    +0.000 A 
BRANCH  15  18
ATOM     18  O   UNL     1      -2.316  12.781  22.389  0.00  0.00    +0.000 OA
ATOM     19  C   UNL     1      -3.531  12.581  23.104  0.00  0.00    +0.000 C 
ENDBRANCH  15  18
ENDBRANCH  11  12
ENDBRANCH  10  11
ENDBRANCH   9  10
ENDBRANCH   1   8
BRANCH   1  20
ATOM     20  O   UNL     1       3.090   3.980  19.209  0.00  0.00    +0.000 OA
BRANCH  20  21
ATOM     21  C   UNL     1       1.772   3.716  18.980  0.00  0.00    +0.000 C 
ATOM     22  O   UNL     1       1.242   3.601  17.885  0.00  0.00    +0.000 OA
BRANCH  21  24
ATOM     23  C   UNL     1       2.028   3.395  21.445  0.00  0.00    +0.000 C 
ATOM     24  C   UNL     1       1.047   3.566  20.296  0.00  0.00    +0.000 C 
ENDBRANCH  21  24
ENDBRANCH  20  21
ENDBRANCH   1  20
TORSDOF 8
ENDMDL
MODEL 7
REMARK VINA RESULT:      -7.1      5.393      8.118
REMARK  Name = 
REMARK  11 active torsions:
REMARK  status: ('A' for Active; 'I' for Inactive)
REMARK    1  A    between atoms: C_1  and  C_2
REMARK    2  A    between atoms: C_2  and  C_3
REMARK    3  A    between atoms: C_3  and  O_5
REMARK    4  A    between atoms: O_5  and  C_6
REMARK    5  A    between atoms: C_6  and  C_7
REMARK    6  A    between atoms: C_8  and  C_9
REMARK    7  A    between atoms: C_9  and  O_10
REMARK    8  A    between atoms: O_10  and  C_11
REMARK    9  A    between atoms: C_14  and  O_15
REMARK   10  A    between atoms: O_15  and  C_16
REMARK   11  A    between atoms: N_21  and  C_22
REMARK                            x       y       z     vdW  Elec       q    Type
REMARK                         _______ _______ _______ _____ _____    ______ ____
ROOT
ATOM      1  C   UNL     1       3.487   5.472  17.951  0.00  0.00    +0.000 C 
ATOM      2  C   UNL     1       2.321   4.478  17.766  0.00  0.00    +0.000 C 
ATOM      3  C   UNL     1       2.774   3.027  17.923  0.00  0.00    +0.000 C 
ATOM      4  N   UNL     1       3.475   2.765  19.184  0.00  0.00    +0.000 NA
ATOM      5  C   UNL     1       2.582   2.812  20.342  0.00  0.00    +0.000 C 
ATOM      6  C   UNL     1       4.625   3.662  19.330  0.00  0.00    +0.000 C 
ATOM      7  C   UNL     1       4.263   5.145  19.241  0.00  0.00    +0.000 C 
ENDROOT
BRANCH   1   8
ATOM      8  C   UNL     1       2.913   6.838  18.012  0.00  0.00    +0.000 C 
ATOM      9  C   UNL     1       2.473   7.955  18.000  0.00  0.00    +0.000 C 
BRANCH   9  10
ATOM     10  C   UNL     1       1.952   9.323  17.863  0.00  0.00    +0.000 C 
BRANCH  10  11
ATOM     11  O   UNL     1       1.256   9.705  19.050  0.00  0.00    +0.000 OA
BRANCH  11  12
ATOM     12  C   UNL     1      -0.004  10.209  18.856  0.00  0.00    +0.000 A 
ATOM     13  C   UNL     1      -0.465  11.072  19.849  0.00  0.00    +0.000 A 
ATOM     14  C   UNL     1      -1.742  11.632  19.761  0.00  0.00    +0.000 A 
ATOM     15  C   UNL     1      -2.557  11.369  18.661  0.00  0.00    +0.000 A 
ATOM     16  C   UNL     1      -2.093  10.521  17.655  0.00  0.00    +0.000 A 
ATOM     17  C   UNL     1      -0.818   9.947  17.753  0.00  0.00    +0.000 A 
BRANCH  15  18
ATOM     18  O   UNL     1      -3.793  11.951  18.693  0.00  0.00    +0.000 OA
ATOM     19  C   UNL     1      -4.136  12.611  19.906  0.00  0.00    +0.000 C 
ENDBRANCH  15  18
ENDBRANCH  11  12
ENDBRANCH  10  11
ENDBRANCH   9  10
ENDBRANCH   1   8
BRANCH   1  20
ATOM     20  O   UNL     1       4.332   5.329  16.775  0.00  0.00    +0.000 OA
BRANCH  20  21
ATOM     21  C   UNL     1       5.575   5.889  16.780  0.00  0.00    +0.000 C 
ATOM     22  O   UNL     1       5.834   7.061  17.011  0.00  0.00    +0.000 OA
BRANCH  21  24
ATOM     23  C   UNL     1       6.062   3.800  15.497  0.00  0.00    +0.000 C 
ATOM     24  C   UNL     1       6.610   4.835  16.468  0.00  0.00    +0.000 C 
ENDBRANCH  21  24
ENDBRANCH  20  21
ENDBRANCH   1  20
TORSDOF 8
ENDMDL
MODEL 8
REMARK VINA RESULT:      -7.1      5.861      8.220
REMARK  Name = 
REMARK  11 active torsions:
REMARK  status: ('A' for Active; 'I' for Inactive)
REMARK    1  A    between atoms: C_1  and  C_2
REMARK    2  A    between atoms: C_2  and  C_3
REMARK    3  A    between atoms: C_3  and  O_5
REMARK    4  A    between atoms: O_5  and  C_6
REMARK    5  A    between atoms: C_6  and  C_7
REMARK    6  A    between atoms: C_8  and  C_9
REMARK    7  A    between atoms: C_9  and  O_10
REMARK    8  A    between atoms: O_10  and  C_11
REMARK    9  A    between atoms: C_14  and  O_15
REMARK   10  A    between atoms: O_15  and  C_16
REMARK   11  A    between atoms: N_21  and  C_22
REMARK                            x       y       z     vdW  Elec       q    Type
REMARK                         _______ _______ _______ _____ _____    ______ ____
ROOT
ATOM      1  C   UNL     1       3.127   5.278  18.214  0.00  0.00    +0.000 C 
ATOM      2  C   UNL     1       1.858   4.418  18.386  0.00  0.00    +0.000 C 
ATOM      3  C   UNL     1       2.192   2.949  18.646  0.00  0.00    +0.000 C 
ATOM      4  N   UNL     1       3.104   2.747  19.775  0.00  0.00    +0.000 NA
ATOM      5  C   UNL     1       2.473   3.029  21.064  0.00  0.00    +0.000 C 
ATOM      6  C   UNL     1       4.342   3.509  19.581  0.00  0.00    +0.000 C 
ATOM      7  C   UNL     1       4.113   5.005  19.366  0.00  0.00    +0.000 C 
ENDROOT
BRANCH   1   8
ATOM      8  C   UNL     1       2.712   6.702  18.201  0.00  0.00    +0.000 C 
ATOM      9  C   UNL     1       2.365   7.848  18.123  0.00  0.00    +0.000 C 
BRANCH   9  10
ATOM     10  C   UNL     1       1.893   9.226  17.919  0.00  0.00    +0.000 C 
BRANCH  10  11
ATOM     11  O   UNL     1       1.175   9.675  19.067  0.00  0.00    +0.000 OA
BRANCH  11  12
ATOM     12  C   UNL     1      -0.049  10.238  18.812  0.00  0.00    +0.000 A 
ATOM     13  C   UNL     1      -0.707   9.759  17.680  0.00  0.00    +0.000 A 
ATOM     14  C   UNL     1      -1.955  10.273  17.317  0.00  0.00    +0.000 A 
ATOM     15  C   UNL     1      -2.577  11.241  18.102  0.00  0.00    +0.000 A 
ATOM     16  C   UNL     1      -1.933  11.710  19.247  0.00  0.00    +0.000 A 
ATOM     17  C   UNL     1      -0.674  11.205  19.601  0.00  0.00    +0.000 A 
BRANCH  15  18
ATOM     18  O   UNL     1      -3.783  11.687  17.639  0.00  0.00    +0.000 OA
ATOM     19  C   UNL     1      -4.842  11.711  18.589  0.00  0.00    +0.000 C 
ENDBRANCH  15  18
ENDBRANCH  11  12
ENDBRANCH  10  11
ENDBRANCH   9  10
ENDBRANCH   1   8
BRANCH   1  20
ATOM     20  O   UNL     1       3.699   4.905  16.929  0.00  0.00    +0.000 OA
BRANCH  20  21
ATOM     21  C   UNL     1       4.936   5.368  16.594  0.00  0.00    +0.000 C 
ATOM     22  O   UNL     1       5.278   6.541  16.559  0.00  0.00    +0.000 OA
BRANCH  21  24
ATOM     23  C   UNL     1       6.889   4.593  15.241  0.00  0.00    +0.000 C 
ATOM     24  C   UNL     1       5.848   4.207  16.281  0.00  0.00    +0.000 C 
ENDBRANCH  21  24
ENDBRANCH  20  21
ENDBRANCH   1  20
TORSDOF 8
ENDMDL
MODEL 9
REMARK VINA RESULT:      -7.1      5.266      7.872
REMARK  Name = 
REMARK  11 active torsions:
REMARK  status: ('A' for Active; 'I' for Inactive)
REMARK    1  A    between atoms: C_1  and  C_2
REMARK    2  A    between atoms: C_2  and  C_3
REMARK    3  A    between atoms: C_3  and  O_5
REMARK    4  A    between atoms: O_5  and  C_6
REMARK    5  A    between atoms: C_6  and  C_7
REMARK    6  A    between atoms: C_8  and  C_9
REMARK    7  A    between atoms: C_9  and  O_10
REMARK    8  A    between atoms: O_10  and  C_11
REMARK    9  A    between atoms: C_14  and  O_15
REMARK   10  A    between atoms: O_15  and  C_16
REMARK   11  A    between atoms: N_21  and  C_22
REMARK                            x       y       z     vdW  Elec       q    Type
REMARK                         _______ _______ _______ _____ _____    ______ ____
ROOT
ATOM      1  C   UNL     1       5.019   4.748  18.771  0.00  0.00    +0.000 C 
ATOM      2  C   UNL     1       6.268   5.513  19.256  0.00  0.00    +0.000 C 
ATOM      3  C   UNL     1       7.538   5.052  18.540  0.00  0.00    +0.000 C 
ATOM      4  N   UNL     1       7.439   5.108  17.078  0.00  0.00    +0.000 NA
ATOM      5  C   UNL     1       7.421   6.479  16.569  0.00  0.00    +0.000 C 
ATOM      6  C   UNL     1       6.292   4.323  16.609  0.00  0.00    +0.000 C 
ATOM      7  C   UNL     1       4.962   4.748  17.232  0.00  0.00    +0.000 C 
ENDROOT
BRANCH   1   8
ATOM      8  C   UNL     1       3.827   5.416  19.344  0.00  0.00    +0.000 C 
ATOM      9  C   UNL     1       2.900   5.980  19.858  0.00  0.00    +0.000 C 
BRANCH   9  10
ATOM     10  C   UNL     1       1.846   6.734  20.554  0.00  0.00    +0.000 C 
BRANCH  10  11
ATOM     11  O   UNL     1       1.659   8.005  19.933  0.00  0.00    +0.000 OA
BRANCH  11  12
ATOM     12  C   UNL     1       0.952   8.921  20.668  0.00  0.00    +0.000 A 
ATOM     13  C   UNL     1       0.922   8.693  22.044  0.00  0.00    +0.000 A 
ATOM     14  C   UNL     1       0.217   9.556  22.887  0.00  0.00    +0.000 A 
ATOM     15  C   UNL     1      -0.430  10.677  22.373  0.00  0.00    +0.000 A 
ATOM     16  C   UNL     1      -0.386  10.921  21.000  0.00  0.00    +0.000 A 
ATOM     17  C   UNL     1       0.307  10.046  20.152  0.00  0.00    +0.000 A 
BRANCH  15  18
ATOM     18  O   UNL     1      -1.107  11.436  23.287  0.00  0.00    +0.000 OA
ATOM     19  C   UNL     1      -1.162  12.832  23.013  0.00  0.00    +0.000 C 
ENDBRANCH  15  18
ENDBRANCH  11  12
ENDBRANCH  10  11
ENDBRANCH   9  10
ENDBRANCH   1   8
BRANCH   1  20
ATOM     20  O   UNL     1       5.144   3.396  19.294  0.00  0.00    +0.000 OA
BRANCH  20  21
ATOM     21  C   UNL     1       4.014   2.694  19.594  0.00  0.00    +0.000 C 
ATOM     22  O   UNL     1       3.426   2.703  20.665  0.00  0.00    +0.000 OA
BRANCH  21  24
ATOM     23  C   UNL     1       2.206   2.358  17.902  0.00  0.00    +0.000 C 
ATOM     24  C   UNL     1       3.572   1.900  18.388  0.00  0.00    +0.000 C 
ENDBRANCH  21  24
ENDBRANCH  20  21
ENDBRANCH   1  20
TORSDOF 8
ENDMDL
