MODEL 1
REMARK VINA RESULT:      -4.9      0.000      0.000
REMARK  Name = 
REMARK  3 active torsions:
REMARK  status: ('A' for Active; 'I' for Inactive)
REMARK    1  A    between atoms: N_3  and  C_4
REMARK    2  A    between atoms: C_4  and  C_5
REMARK    3  A    between atoms: C_5  and  C_6
REMARK                            x       y       z     vdW  Elec       q    Type
REMARK                         _______ _______ _______ _____ _____    ______ ____
ROOT
ATOM      1  C   UNL     1       5.286   4.184  16.040  0.00  0.00    +0.000 C 
ENDROOT
BRANCH   1   2
ATOM      2  C   UNL     1       4.126   4.369  16.977  0.00  0.00    +0.000 A 
ATOM      3  C   UNL     1       3.080   3.408  17.170  0.00  0.00    +0.000 A 
ATOM      4  C   UNL     1       2.111   3.845  18.046  0.00  0.00    +0.000 A 
ATOM      5  S   UNL     1       2.463   5.399  18.664  0.00  0.00    +0.000 S 
ATOM      6  C   UNL     1       3.909   5.492  17.755  0.00  0.00    +0.000 A 
ENDBRANCH   1   2
BRANCH   1   7
ATOM      7  C   UNL     1       5.903   5.525  15.641  0.00  0.00    +0.000 C 
BRANCH   7  10
ATOM      8  N   UNL     1       8.207   5.637  13.304  0.00  0.00    +0.000 NA
ATOM      9  N   UNL     1       7.807   5.512  14.363  0.00  0.00    +0.000 NA
ATOM     10  N   UNL     1       7.360   5.376  15.518  0.00  0.00    +0.000 NA
ENDBRANCH   7  10
ENDBRANCH   1   7
TORSDOF 3
ENDMDL
MODEL 2
REMARK VINA RESULT:      -4.9      1.189      1.823
REMARK  Name = 
REMARK  3 active torsions:
REMARK  status: ('A' for Active; 'I' for Inactive)
REMARK    1  A    between atoms: N_3  and  C_4
REMARK    2  A    between atoms: C_4  and  C_5
REMARK    3  A    between atoms: C_5  and  C_6
REMARK                            x       y       z     vdW  Elec       q    Type
REMARK                         _______ _______ _______ _____ _____    ______ ____
ROOT
ATOM      1  C   UNL     1       5.088   3.915  16.296  0.00  0.00    +0.000 C 
ENDROOT
BRANCH   1   2
ATOM      2  C   UNL     1       4.160   4.356  17.391  0.00  0.00    +0.000 A 
ATOM      3  C   UNL     1       2.770   4.014  17.462  0.00  0.00    +0.000 A 
ATOM      4  C   UNL     1       2.135   4.589  18.541  0.00  0.00    +0.000 A 
ATOM      5  S   UNL     1       3.206   5.521  19.491  0.00  0.00    +0.000 S 
ATOM      6  C   UNL     1       4.521   5.162  18.457  0.00  0.00    +0.000 A 
ENDBRANCH   1   2
BRANCH   1   7
ATOM      7  C   UNL     1       5.846   5.098  15.692  0.00  0.00    +0.000 C 
BRANCH   7  10
ATOM      8  N   UNL     1       8.231   4.232  17.775  0.00  0.00    +0.000 NA
ATOM      9  N   UNL     1       7.783   4.501  16.763  0.00  0.00    +0.000 NA
ATOM     10  N   UNL     1       7.283   4.795  15.661  0.00  0.00    +0.000 NA
ENDBRANCH   7  10
ENDBRANCH   1   7
TORSDOF 3
ENDMDL
MODEL 3
REMARK VINA RESULT:      -4.8      1.113      1.599
REMARK  Name = 
REMARK  3 active torsions:
REMARK  status: ('A' for Active; 'I' for Inactive)
REMARK    1  A    between atoms: N_3  and  C_4
REMARK    2  A    between atoms: C_4  and  C_5
REMARK    3  A    between atoms: C_5  and  C_6
REMARK                            x       y       z     vdW  Elec       q    Type
REMARK                         _______ _______ _______ _____ _____    ______ ____
ROOT
ATOM      1  C   UNL     1       5.454   3.890  15.950  0.00  0.00    +0.000 C 
ENDROOT
BRANCH   1   2
ATOM      2  C   UNL     1       4.594   4.188  17.144  0.00  0.00    +0.000 A 
ATOM      3  C   UNL     1       3.236   3.754  17.294  0.00  0.00    +0.000 A 
ATOM      4  C   UNL     1       2.659   4.204  18.460  0.00  0.00    +0.000 A 
ATOM      5  S   UNL     1       3.748   5.128  19.397  0.00  0.00    +0.000 S 
ATOM      6  C   UNL     1       4.993   4.932  18.241  0.00  0.00    +0.000 A 
ENDBRANCH   1   2
BRANCH   1   7
ATOM      7  C   UNL     1       5.803   5.164  15.178  0.00  0.00    +0.000 C 
BRANCH   7  10
ATOM      8  N   UNL     1       7.700   7.181  16.943  0.00  0.00    +0.000 NA
ATOM      9  N   UNL     1       7.481   6.362  16.183  0.00  0.00    +0.000 NA
ATOM     10  N   UNL     1       7.230   5.467  15.353  0.00  0.00    +0.000 NA
ENDBRANCH   7  10
ENDBRANCH   1   7
TORSDOF 3
ENDMDL
MODEL 4
REMARK VINA RESULT:      -4.8      1.420      1.808
REMARK  Name = 
REMARK  3 active torsions:
REMARK  status: ('A' for Active; 'I' for Inactive)
REMARK    1  A    between atoms: N_3  and  C_4
REMARK    2  A    between atoms: C_4  and  C_5
REMARK    3  A    between atoms: C_5  and  C_6
REMARK                            x       y       z     vdW  Elec       q    Type
REMARK                         _______ _______ _______ _____ _____    ______ ____
ROOT
ATOM      1  C   UNL     1       5.295   5.854  16.258  0.00  0.00    +0.000 C 
ENDROOT
BRANCH   1   2
ATOM      2  C   UNL     1       4.805   4.826  17.237  0.00  0.00    +0.000 A 
ATOM      3  C   UNL     1       5.236   4.736  18.601  0.00  0.00    +0.000 A 
ATOM      4  C   UNL     1       4.671   3.673  19.269  0.00  0.00    +0.000 A 
ATOM      5  S   UNL     1       3.598   2.791  18.274  0.00  0.00    +0.000 S 
ATOM      6  C   UNL     1       3.893   3.827  16.945  0.00  0.00    +0.000 A 
ENDBRANCH   1   2
BRANCH   1   7
ATOM      7  C   UNL     1       5.937   5.200  15.032  0.00  0.00    +0.000 C 
BRANCH   7  10
ATOM      8  N   UNL     1       8.582   5.821  13.189  0.00  0.00    +0.000 NA
ATOM      9  N   UNL     1       8.021   5.536  14.139  0.00  0.00    +0.000 NA
ATOM     10  N   UNL     1       7.399   5.227  15.173  0.00  0.00    +0.000 NA
ENDBRANCH   7  10
ENDBRANCH   1   7
TORSDOF 3
ENDMDL
MODEL 5
REMARK VINA RESULT:      -4.8      1.509      2.201
REMARK  Name = 
REMARK  3 active torsions:
REMARK  status: ('A' for Active; 'I' for Inactive)
REMARK    1  A    between atoms: N_3  and  C_4
REMARK    2  A    between atoms: C_4  and  C_5
REMARK    3  A    between atoms: C_5  and  C_6
REMARK                            x       y       z     vdW  Elec       q    Type
REMARK                         _______ _______ _______ _____ _____    ______ ____
ROOT
ATOM      1  C   UNL     1       5.111   5.468  16.844  0.00  0.00    +0.000 C 
ENDROOT
BRANCH   1   2
ATOM      2  C   UNL     1       3.954   4.634  17.316  0.00  0.00    +0.000 A 
ATOM      3  C   UNL     1       2.716   5.168  17.804  0.00  0.00    +0.000 A 
ATOM      4  C   UNL     1       1.842   4.189  18.220  0.00  0.00    +0.000 A 
ATOM      5  S   UNL     1       2.488   2.622  18.005  0.00  0.00    +0.000 S 
ATOM      6  C   UNL     1       3.941   3.251  17.359  0.00  0.00    +0.000 A 
ENDBRANCH   1   2
BRANCH   1   7
ATOM      7  C   UNL     1       5.757   4.872  15.591  0.00  0.00    +0.000 C 
BRANCH   7  10
ATOM      8  N   UNL     1       8.166   4.200  17.718  0.00  0.00    +0.000 NA
ATOM      9  N   UNL     1       7.717   4.585  16.745  0.00  0.00    +0.000 NA
ATOM     10  N   UNL     1       7.217   5.004  15.684  0.00  0.00    +0.000 NA
ENDBRANCH   7  10
ENDBRANCH   1   7
TORSDOF 3
ENDMDL
MODEL 6
REMARK VINA RESULT:      -4.8      0.746      1.388
REMARK  Name = 
REMARK  3 active torsions:
REMARK  status: ('A' for Active; 'I' for Inactive)
REMARK    1  A    between atoms: N_3  and  C_4
REMARK    2  A    between atoms: C_4  and  C_5
REMARK    3  A    between atoms: C_5  and  C_6
REMARK                            x       y       z     vdW  Elec       q    Type
REMARK                         _______ _______ _______ _____ _____    ______ ____
ROOT
ATOM      1  C   UNL     1       5.669   3.998  16.524  0.00  0.00    +0.000 C 
ENDROOT
BRANCH   1   2
ATOM      2  C   UNL     1       4.347   4.474  17.055  0.00  0.00    +0.000 A 
ATOM      3  C   UNL     1       4.077   5.820  17.470  0.00  0.00    +0.000 A 
ATOM      4  C   UNL     1       2.802   5.978  17.964  0.00  0.00    +0.000 A 
ATOM      5  S   UNL     1       1.910   4.522  17.909  0.00  0.00    +0.000 S 
ATOM      6  C   UNL     1       3.231   3.675  17.229  0.00  0.00    +0.000 A 
ENDBRANCH   1   2
BRANCH   1   7
ATOM      7  C   UNL     1       5.997   4.644  15.176  0.00  0.00    +0.000 C 
BRANCH   7  10
ATOM      8  N   UNL     1       8.354   5.703  13.151  0.00  0.00    +0.000 NA
ATOM      9  N   UNL     1       7.858   5.515  14.159  0.00  0.00    +0.000 NA
ATOM     10  N   UNL     1       7.306   5.305  15.256  0.00  0.00    +0.000 NA
ENDBRANCH   7  10
ENDBRANCH   1   7
TORSDOF 3
ENDMDL
MODEL 7
REMARK VINA RESULT:      -4.8      1.325      1.454
REMARK  Name = 
REMARK  3 active torsions:
REMARK  status: ('A' for Active; 'I' for Inactive)
REMARK    1  A    between atoms: N_3  and  C_4
REMARK    2  A    between atoms: C_4  and  C_5
REMARK    3  A    between atoms: C_5  and  C_6
REMARK                            x       y       z     vdW  Elec       q    Type
REMARK                         _______ _______ _______ _____ _____    ______ ____
ROOT
ATOM      1  C   UNL     1       5.214   5.939  15.578  0.00  0.00    +0.000 C 
ENDROOT
BRANCH   1   2
ATOM      2  C   UNL     1       4.923   5.189  16.846  0.00  0.00    +0.000 A 
ATOM      3  C   UNL     1       4.160   3.977  16.914  0.00  0.00    +0.000 A 
ATOM      4  C   UNL     1       3.999   3.523  18.204  0.00  0.00    +0.000 A 
ATOM      5  S   UNL     1       4.783   4.529  19.339  0.00  0.00    +0.000 S 
ATOM      6  C   UNL     1       5.335   5.580  18.108  0.00  0.00    +0.000 A 
ENDBRANCH   1   2
BRANCH   1   7
ATOM      7  C   UNL     1       6.003   5.081  14.587  0.00  0.00    +0.000 C 
BRANCH   7  10
ATOM      8  N   UNL     1       8.819   5.958  13.144  0.00  0.00    +0.000 NA
ATOM      9  N   UNL     1       8.162   5.572  13.991  0.00  0.00    +0.000 NA
ATOM     10  N   UNL     1       7.435   5.151  14.911  0.00  0.00    +0.000 NA
ENDBRANCH   7  10
ENDBRANCH   1   7
TORSDOF 3
ENDMDL
MODEL 8
REMARK VINA RESULT:      -4.7      3.612      4.084
REMARK  Name = 
REMARK  3 active torsions:
REMARK  status: ('A' for Active; 'I' for Inactive)
REMARK    1  A    between atoms: N_3  and  C_4
REMARK    2  A    between atoms: C_4  and  C_5
REMARK    3  A    between atoms: C_5  and  C_6
REMARK                            x       y       z     vdW  Elec       q    Type
REMARK                         _______ _______ _______ _____ _____    ______ ____
ROOT
ATOM      1  C   UNL     1       3.573   5.724  19.427  0.00  0.00    +0.000 C 
ENDROOT
BRANCH   1   2
ATOM      2  C   UNL     1       2.687   4.573  19.807  0.00  0.00    +0.000 A 
ATOM      3  C   UNL     1       1.950   3.774  18.872  0.00  0.00    +0.000 A 
ATOM      4  C   UNL     1       1.176   2.816  19.486  0.00  0.00    +0.000 A 
ATOM      5  S   UNL     1       1.346   2.848  21.185  0.00  0.00    +0.000 S 
ATOM      6  C   UNL     1       2.452   4.149  21.104  0.00  0.00    +0.000 A 
ENDBRANCH   1   2
BRANCH   1   7
ATOM      7  C   UNL     1       4.687   5.284  18.476  0.00  0.00    +0.000 C 
BRANCH   7  10
ATOM      8  N   UNL     1       7.567   5.471  20.042  0.00  0.00    +0.000 NA
ATOM      9  N   UNL     1       6.637   4.953  19.636  0.00  0.00    +0.000 NA
ATOM     10  N   UNL     1       5.617   4.397  19.188  0.00  0.00    +0.000 NA
ENDBRANCH   7  10
ENDBRANCH   1   7
TORSDOF 3
ENDMDL
MODEL 9
REMARK VINA RESULT:      -4.7      1.198      1.987
REMARK  Name = 
REMARK  3 active torsions:
REMARK  status: ('A' for Active; 'I' for Inactive)
REMARK    1  A    between atoms: N_3  and  C_4
REMARK    2  A    between atoms: C_4  and  C_5
REMARK    3  A    between atoms: C_5  and  C_6
REMARK                            x       y       z     vdW  Elec       q    Type
REMARK                         _______ _______ _______ _____ _____    ______ ____
ROOT
ATOM      1  C   UNL     1       5.700   3.774  16.130  0.00  0.00    +0.000 C 
ENDROOT
BRANCH   1   2
ATOM      2  C   UNL     1       4.788   4.178  17.253  0.00  0.00    +0.000 A 
ATOM      3  C   UNL     1       5.227   4.788  18.473  0.00  0.00    +0.000 A 
ATOM      4  C   UNL     1       4.195   5.012  19.357  0.00  0.00    +0.000 A 
ATOM      5  S   UNL     1       2.690   4.516  18.720  0.00  0.00    +0.000 S 
ATOM      6  C   UNL     1       3.416   3.996  17.262  0.00  0.00    +0.000 A 
ENDBRANCH   1   2
BRANCH   1   7
ATOM      7  C   UNL     1       5.877   4.906  15.116  0.00  0.00    +0.000 C 
BRANCH   7  10
ATOM      8  N   UNL     1       7.658   7.022  16.886  0.00  0.00    +0.000 NA
ATOM      9  N   UNL     1       7.471   6.251  16.068  0.00  0.00    +0.000 NA
ATOM     10  N   UNL     1       7.257   5.407  15.178  0.00  0.00    +0.000 NA
ENDBRANCH   7  10
ENDBRANCH   1   7
TORSDOF 3
ENDMDL
