MODEL 1
REMARK VINA RESULT:      -8.4      0.000      0.000
REMARK  Name = 
REMARK  6 active torsions:
REMARK  status: ('A' for Active; 'I' for Inactive)
REMARK    1  A    between atoms: C_4  and  O_5
REMARK    2  A    between atoms: O_5  and  C_6
REMARK    3  A    between atoms: C_6  and  C_7
REMARK    4  A    between atoms: N_15  and  C_16
REMARK    5  A    between atoms: N_23  and  C_24
REMARK    6  A    between atoms: C_24  and  C_25
REMARK                            x       y       z     vdW  Elec       q    Type
REMARK                         _______ _______ _______ _____ _____    ______ ____
ROOT
ATOM      1  C   UNL     1       2.153   7.752  18.843  0.00  0.00    +0.000 A 
ATOM      2  C   UNL     1       1.706   8.858  18.116  0.00  0.00    +0.000 A 
ATOM      3  C   UNL     1       1.078   9.927  18.749  0.00  0.00    +0.000 A 
ATOM      4  C   UNL     1       0.906   9.850  20.136  0.00  0.00    +0.000 A 
ATOM      5  C   UNL     1       1.298   8.747  20.881  0.00  0.00    +0.000 A 
ATOM      6  C   UNL     1       0.913   9.050  22.204  0.00  0.00    +0.000 A 
ATOM      7  N   UNL     1       0.367  10.263  22.318  0.00  0.00    +0.000 NA
ATOM      8  N   UNL     1       0.380  10.734  21.049  0.00  0.00    +0.000 N 
ATOM      9  C   UNL     1       1.931   7.675  20.232  0.00  0.00    +0.000 A 
ENDROOT
BRANCH   1  16
ATOM     10  O   UNL     1       1.491   4.970  18.722  0.00  0.00    +0.000 OA
ATOM     11  C   UNL     1       2.505   5.412  18.188  0.00  0.00    +0.000 A 
ATOM     12  C   UNL     1       3.418   4.447  17.510  0.00  0.00    +0.000 A 
ATOM     13  C   UNL     1       4.528   4.872  16.897  0.00  0.00    +0.000 A 
ATOM     14  C   UNL     1       4.817   6.282  16.821  0.00  0.00    +0.000 A 
ATOM     15  C   UNL     1       4.068   7.150  17.499  0.00  0.00    +0.000 A 
ATOM     16  N   UNL     1       2.941   6.752  18.203  0.00  0.00    +0.000 N 
BRANCH  13  17
ATOM     17  O   UNL     1       5.408   3.964  16.340  0.00  0.00    +0.000 OA
BRANCH  17  18
ATOM     18  C   UNL     1       6.671   4.503  15.942  0.00  0.00    +0.000 C 
BRANCH  18  19
ATOM     19  C   UNL     1       6.805   4.449  14.445  0.00  0.00    +0.000 A 
ATOM     20  C   UNL     1       7.688   5.303  13.779  0.00  0.00    +0.000 A 
ATOM     21  C   UNL     1       7.822   5.231  12.395  0.00  0.00    +0.000 A 
ATOM     22  C   UNL     1       7.076   4.302  11.667  0.00  0.00    +0.000 A 
ATOM     23  C   UNL     1       6.196   3.446  12.324  0.00  0.00    +0.000 A 
ATOM     24  C   UNL     1       6.060   3.518  13.711  0.00  0.00    +0.000 A 
ENDBRANCH  18  19
ENDBRANCH  17  18
ENDBRANCH  13  17
ENDBRANCH   1  16
BRANCH   8  25
ATOM     25  C   UNL     1      -0.181  12.040  20.758  0.00  0.00    +0.000 C 
BRANCH  25  26
ATOM     26  C   UNL     1      -1.439  12.306  21.548  0.00  0.00    +0.000 C 
ATOM     27  N   UNL     1      -2.602  12.413  20.949  0.00  0.00    +0.000 NA
ATOM     28  C   UNL     1      -3.559  12.708  22.056  0.00  0.00    +0.000 C 
ATOM     29  C   UNL     1      -2.829  12.357  23.356  0.00  0.00    +0.000 C 
ATOM     30  N   UNL     1      -1.458  12.427  22.917  0.00  0.00    +0.000 N 
ATOM     31  H   UNL     1      -0.726  11.997  23.473  0.00  0.00    +0.000 HD
ENDBRANCH  25  26
ENDBRANCH   8  25
TORSDOF 6
ENDMDL
MODEL 2
REMARK VINA RESULT:      -8.3      2.906     10.996
REMARK  Name = 
REMARK  6 active torsions:
REMARK  status: ('A' for Active; 'I' for Inactive)
REMARK    1  A    between atoms: C_4  and  O_5
REMARK    2  A    between atoms: O_5  and  C_6
REMARK    3  A    between atoms: C_6  and  C_7
REMARK    4  A    between atoms: N_15  and  C_16
REMARK    5  A    between atoms: N_23  and  C_24
REMARK    6  A    between atoms: C_24  and  C_25
REMARK                            x       y       z     vdW  Elec       q    Type
REMARK                         _______ _______ _______ _____ _____    ______ ____
ROOT
ATOM      1  C   UNL     1       1.745   7.737  20.013  0.00  0.00    +0.000 A 
ATOM      2  C   UNL     1       2.295   7.845  18.734  0.00  0.00    +0.000 A 
ATOM      3  C   UNL     1       2.846   6.737  18.093  0.00  0.00    +0.000 A 
ATOM      4  C   UNL     1       2.833   5.517  18.779  0.00  0.00    +0.000 A 
ATOM      5  C   UNL     1       2.334   5.387  20.068  0.00  0.00    +0.000 A 
ATOM      6  C   UNL     1       2.545   4.031  20.400  0.00  0.00    +0.000 A 
ATOM      7  N   UNL     1       3.083   3.332  19.399  0.00  0.00    +0.000 NA
ATOM      8  N   UNL     1       3.243   4.255  18.420  0.00  0.00    +0.000 N 
ATOM      9  C   UNL     1       1.781   6.510  20.704  0.00  0.00    +0.000 A 
ENDROOT
BRANCH   1  16
ATOM     10  O   UNL     1       0.400   9.765  18.508  0.00  0.00    +0.000 OA
ATOM     11  C   UNL     1       0.393   9.767  19.736  0.00  0.00    +0.000 A 
ATOM     12  C   UNL     1      -0.300  10.890  20.431  0.00  0.00    +0.000 A 
ATOM     13  C   UNL     1      -0.355  10.936  21.767  0.00  0.00    +0.000 A 
ATOM     14  C   UNL     1       0.192   9.858  22.551  0.00  0.00    +0.000 A 
ATOM     15  C   UNL     1       0.896   8.896  21.955  0.00  0.00    +0.000 A 
ATOM     16  N   UNL     1       1.037   8.838  20.577  0.00  0.00    +0.000 N 
BRANCH  13  17
ATOM     17  O   UNL     1      -0.930  12.019  22.404  0.00  0.00    +0.000 OA
BRANCH  17  18
ATOM     18  C   UNL     1      -1.967  12.678  21.671  0.00  0.00    +0.000 C 
BRANCH  18  19
ATOM     19  C   UNL     1      -3.229  12.715  22.487  0.00  0.00    +0.000 A 
ATOM     20  C   UNL     1      -4.455  13.012  21.886  0.00  0.00    +0.000 A 
ATOM     21  C   UNL     1      -5.622  13.023  22.646  0.00  0.00    +0.000 A 
ATOM     22  C   UNL     1      -5.572  12.733  24.011  0.00  0.00    +0.000 A 
ATOM     23  C   UNL     1      -4.354  12.435  24.616  0.00  0.00    +0.000 A 
ATOM     24  C   UNL     1      -3.184  12.424  23.857  0.00  0.00    +0.000 A 
ENDBRANCH  18  19
ENDBRANCH  17  18
ENDBRANCH  13  17
ENDBRANCH   1  16
BRANCH   8  25
ATOM     25  C   UNL     1       3.851   3.873  17.160  0.00  0.00    +0.000 C 
BRANCH  25  26
ATOM     26  C   UNL     1       5.333   4.159  17.135  0.00  0.00    +0.000 C 
ATOM     27  N   UNL     1       5.926   4.552  16.032  0.00  0.00    +0.000 NA
ATOM     28  C   UNL     1       7.363   4.684  16.416  0.00  0.00    +0.000 C 
ATOM     29  C   UNL     1       7.396   4.693  17.947  0.00  0.00    +0.000 C 
ATOM     30  N   UNL     1       6.139   4.054  18.244  0.00  0.00    +0.000 N 
ATOM     31  H   UNL     1       5.737   4.136  19.171  0.00  0.00    +0.000 HD
ENDBRANCH  25  26
ENDBRANCH   8  25
TORSDOF 6
ENDMDL
MODEL 3
REMARK VINA RESULT:      -8.2      0.851      1.604
REMARK  Name = 
REMARK  6 active torsions:
REMARK  status: ('A' for Active; 'I' for Inactive)
REMARK    1  A    between atoms: C_4  and  O_5
REMARK    2  A    between atoms: O_5  and  C_6
REMARK    3  A    between atoms: C_6  and  C_7
REMARK    4  A    between atoms: N_15  and  C_16
REMARK    5  A    between atoms: N_23  and  C_24
REMARK    6  A    between atoms: C_24  and  C_25
REMARK                            x       y       z     vdW  Elec       q    Type
REMARK                         _______ _______ _______ _____ _____    ______ ____
ROOT
ATOM      1  C   UNL     1       2.239   7.655  19.195  0.00  0.00    +0.000 A 
ATOM      2  C   UNL     1       1.998   7.448  20.555  0.00  0.00    +0.000 A 
ATOM      3  C   UNL     1       1.176   8.309  21.278  0.00  0.00    +0.000 A 
ATOM      4  C   UNL     1       0.606   9.389  20.594  0.00  0.00    +0.000 A 
ATOM      5  C   UNL     1       0.860   9.648  19.254  0.00  0.00    +0.000 A 
ATOM      6  C   UNL     1       0.140  10.828  18.972  0.00  0.00    +0.000 A 
ATOM      7  N   UNL     1      -0.561  11.268  20.019  0.00  0.00    +0.000 NA
ATOM      8  N   UNL     1      -0.268  10.373  20.993  0.00  0.00    +0.000 N 
ATOM      9  C   UNL     1       1.690   8.773  18.535  0.00  0.00    +0.000 A 
ENDROOT
BRANCH   1  16
ATOM     10  O   UNL     1       1.544   4.882  19.071  0.00  0.00    +0.000 OA
ATOM     11  C   UNL     1       2.494   5.334  18.437  0.00  0.00    +0.000 A 
ATOM     12  C   UNL     1       3.314   4.385  17.630  0.00  0.00    +0.000 A 
ATOM     13  C   UNL     1       4.350   4.822  16.906  0.00  0.00    +0.000 A 
ATOM     14  C   UNL     1       4.641   6.233  16.837  0.00  0.00    +0.000 A 
ATOM     15  C   UNL     1       3.982   7.084  17.622  0.00  0.00    +0.000 A 
ATOM     16  N   UNL     1       2.940   6.671  18.440  0.00  0.00    +0.000 N 
BRANCH  13  17
ATOM     17  O   UNL     1       5.152   3.927  16.225  0.00  0.00    +0.000 OA
BRANCH  17  18
ATOM     18  C   UNL     1       6.470   4.395  15.922  0.00  0.00    +0.000 C 
BRANCH  18  19
ATOM     19  C   UNL     1       6.689   4.389  14.436  0.00  0.00    +0.000 A 
ATOM     20  C   UNL     1       7.630   5.241  13.852  0.00  0.00    +0.000 A 
ATOM     21  C   UNL     1       7.842   5.214  12.476  0.00  0.00    +0.000 A 
ATOM     22  C   UNL     1       7.118   4.330  11.674  0.00  0.00    +0.000 A 
ATOM     23  C   UNL     1       6.181   3.475  12.248  0.00  0.00    +0.000 A 
ATOM     24  C   UNL     1       5.966   3.503  13.626  0.00  0.00    +0.000 A 
ENDBRANCH  18  19
ENDBRANCH  17  18
ENDBRANCH  13  17
ENDBRANCH   1  16
BRANCH   8  25
ATOM     25  C   UNL     1      -0.825  10.544  22.321  0.00  0.00    +0.000 C 
BRANCH  25  26
ATOM     26  C   UNL     1      -1.308  11.954  22.557  0.00  0.00    +0.000 C 
ATOM     27  N   UNL     1      -0.588  12.806  23.250  0.00  0.00    +0.000 NA
ATOM     28  C   UNL     1      -1.420  14.046  23.283  0.00  0.00    +0.000 C 
ATOM     29  C   UNL     1      -2.485  13.873  22.196  0.00  0.00    +0.000 C 
ATOM     30  N   UNL     1      -2.492  12.439  22.056  0.00  0.00    +0.000 N 
ATOM     31  H   UNL     1      -2.905  12.014  21.233  0.00  0.00    +0.000 HD
ENDBRANCH  25  26
ENDBRANCH   8  25
TORSDOF 6
ENDMDL
MODEL 4
REMARK VINA RESULT:      -8.2      1.277      2.166
REMARK  Name = 
REMARK  6 active torsions:
REMARK  status: ('A' for Active; 'I' for Inactive)
REMARK    1  A    between atoms: C_4  and  O_5
REMARK    2  A    between atoms: O_5  and  C_6
REMARK    3  A    between atoms: C_6  and  C_7
REMARK    4  A    between atoms: N_15  and  C_16
REMARK    5  A    between atoms: N_23  and  C_24
REMARK    6  A    between atoms: C_24  and  C_25
REMARK                            x       y       z     vdW  Elec       q    Type
REMARK                         _______ _______ _______ _____ _____    ______ ____
ROOT
ATOM      1  C   UNL     1       2.186   7.745  18.870  0.00  0.00    +0.000 A 
ATOM      2  C   UNL     1       1.696   8.827  18.136  0.00  0.00    +0.000 A 
ATOM      3  C   UNL     1       1.045   9.886  18.765  0.00  0.00    +0.000 A 
ATOM      4  C   UNL     1       0.896   9.822  20.156  0.00  0.00    +0.000 A 
ATOM      5  C   UNL     1       1.332   8.741  20.908  0.00  0.00    +0.000 A 
ATOM      6  C   UNL     1       0.958   9.050  22.234  0.00  0.00    +0.000 A 
ATOM      7  N   UNL     1       0.378  10.247  22.340  0.00  0.00    +0.000 NA
ATOM      8  N   UNL     1       0.357  10.702  21.065  0.00  0.00    +0.000 N 
ATOM      9  C   UNL     1       1.987   7.679  20.264  0.00  0.00    +0.000 A 
ENDROOT
BRANCH   1  16
ATOM     10  O   UNL     1       1.566   4.955  18.725  0.00  0.00    +0.000 OA
ATOM     11  C   UNL     1       2.579   5.415  18.204  0.00  0.00    +0.000 A 
ATOM     12  C   UNL     1       3.511   4.468  17.528  0.00  0.00    +0.000 A 
ATOM     13  C   UNL     1       4.621   4.912  16.929  0.00  0.00    +0.000 A 
ATOM     14  C   UNL     1       4.891   6.327  16.864  0.00  0.00    +0.000 A 
ATOM     15  C   UNL     1       4.123   7.180  17.541  0.00  0.00    +0.000 A 
ATOM     16  N   UNL     1       2.995   6.761  18.232  0.00  0.00    +0.000 N 
BRANCH  13  17
ATOM     17  O   UNL     1       5.518   4.021  16.374  0.00  0.00    +0.000 OA
BRANCH  17  18
ATOM     18  C   UNL     1       6.727   4.601  15.876  0.00  0.00    +0.000 C 
BRANCH  18  19
ATOM     19  C   UNL     1       6.803   4.431  14.384  0.00  0.00    +0.000 A 
ATOM     20  C   UNL     1       5.990   3.500  13.733  0.00  0.00    +0.000 A 
ATOM     21  C   UNL     1       6.052   3.364  12.349  0.00  0.00    +0.000 A 
ATOM     22  C   UNL     1       6.924   4.161  11.605  0.00  0.00    +0.000 A 
ATOM     23  C   UNL     1       7.736   5.093  12.247  0.00  0.00    +0.000 A 
ATOM     24  C   UNL     1       7.676   5.230  13.634  0.00  0.00    +0.000 A 
ENDBRANCH  18  19
ENDBRANCH  17  18
ENDBRANCH  13  17
ENDBRANCH   1  16
BRANCH   8  25
ATOM     25  C   UNL     1      -0.247  11.987  20.765  0.00  0.00    +0.000 C 
BRANCH  25  26
ATOM     26  C   UNL     1       0.742  13.120  20.885  0.00  0.00    +0.000 C 
ATOM     27  N   UNL     1       0.884  13.775  22.013  0.00  0.00    +0.000 NA
ATOM     28  C   UNL     1       1.908  14.818  21.705  0.00  0.00    +0.000 C 
ATOM     29  C   UNL     1       2.575  14.386  20.396  0.00  0.00    +0.000 C 
ATOM     30  N   UNL     1       1.560  13.519  19.854  0.00  0.00    +0.000 N 
ATOM     31  H   UNL     1       1.795  12.867  19.114  0.00  0.00    +0.000 HD
ENDBRANCH  25  26
ENDBRANCH   8  25
TORSDOF 6
ENDMDL
MODEL 5
REMARK VINA RESULT:      -8.2      0.664      1.220
REMARK  Name = 
REMARK  6 active torsions:
REMARK  status: ('A' for Active; 'I' for Inactive)
REMARK    1  A    between atoms: C_4  and  O_5
REMARK    2  A    between atoms: O_5  and  C_6
REMARK    3  A    between atoms: C_6  and  C_7
REMARK    4  A    between atoms: N_15  and  C_16
REMARK    5  A    between atoms: N_23  and  C_24
REMARK    6  A    between atoms: C_24  and  C_25
REMARK                            x       y       z     vdW  Elec       q    Type
REMARK                         _______ _______ _______ _____ _____    ______ ____
ROOT
ATOM      1  C   UNL     1       2.237   7.699  18.770  0.00  0.00    +0.000 A 
ATOM      2  C   UNL     1       1.725   8.759  18.020  0.00  0.00    +0.000 A 
ATOM      3  C   UNL     1       1.007   9.787  18.626  0.00  0.00    +0.000 A 
ATOM      4  C   UNL     1       0.813   9.715  20.010  0.00  0.00    +0.000 A 
ATOM      5  C   UNL     1       1.270   8.653  20.778  0.00  0.00    +0.000 A 
ATOM      6  C   UNL     1       0.837   8.943  22.089  0.00  0.00    +0.000 A 
ATOM      7  N   UNL     1       0.202  10.113  22.176  0.00  0.00    +0.000 NA
ATOM      8  N   UNL     1       0.205  10.569  20.900  0.00  0.00    +0.000 N 
ATOM      9  C   UNL     1       1.993   7.622  20.156  0.00  0.00    +0.000 A 
ENDROOT
BRANCH   1  16
ATOM     10  O   UNL     1       1.669   4.912  18.451  0.00  0.00    +0.000 OA
ATOM     11  C   UNL     1       2.716   5.405  18.038  0.00  0.00    +0.000 A 
ATOM     12  C   UNL     1       3.714   4.498  17.402  0.00  0.00    +0.000 A 
ATOM     13  C   UNL     1       4.865   4.980  16.919  0.00  0.00    +0.000 A 
ATOM     14  C   UNL     1       5.119   6.399  16.939  0.00  0.00    +0.000 A 
ATOM     15  C   UNL     1       4.286   7.213  17.585  0.00  0.00    +0.000 A 
ATOM     16  N   UNL     1       3.110   6.752  18.159  0.00  0.00    +0.000 N 
BRANCH  13  17
ATOM     17  O   UNL     1       5.817   4.124  16.403  0.00  0.00    +0.000 OA
BRANCH  17  18
ATOM     18  C   UNL     1       6.891   4.756  15.700  0.00  0.00    +0.000 C 
BRANCH  18  19
ATOM     19  C   UNL     1       6.798   4.446  14.232  0.00  0.00    +0.000 A 
ATOM     20  C   UNL     1       5.825   3.565  13.752  0.00  0.00    +0.000 A 
ATOM     21  C   UNL     1       5.732   3.300  12.388  0.00  0.00    +0.000 A 
ATOM     22  C   UNL     1       6.608   3.917  11.494  0.00  0.00    +0.000 A 
ATOM     23  C   UNL     1       7.578   4.799  11.964  0.00  0.00    +0.000 A 
ATOM     24  C   UNL     1       7.674   5.064  13.330  0.00  0.00    +0.000 A 
ENDBRANCH  18  19
ENDBRANCH  17  18
ENDBRANCH  13  17
ENDBRANCH   1  16
BRANCH   8  25
ATOM     25  C   UNL     1      -0.445  11.826  20.581  0.00  0.00    +0.000 C 
BRANCH  25  26
ATOM     26  C   UNL     1      -0.949  12.533  21.815  0.00  0.00    +0.000 C 
ATOM     27  N   UNL     1      -0.405  13.658  22.217  0.00  0.00    +0.000 NA
ATOM     28  C   UNL     1      -1.150  13.999  23.466  0.00  0.00    +0.000 C 
ATOM     29  C   UNL     1      -2.411  13.129  23.461  0.00  0.00    +0.000 C 
ATOM     30  N   UNL     1      -2.001  12.073  22.570  0.00  0.00    +0.000 N 
ATOM     31  H   UNL     1      -2.698  11.467  22.151  0.00  0.00    +0.000 HD
ENDBRANCH  25  26
ENDBRANCH   8  25
TORSDOF 6
ENDMDL
MODEL 6
REMARK VINA RESULT:      -8.1      1.232      1.544
REMARK  Name = 
REMARK  6 active torsions:
REMARK  status: ('A' for Active; 'I' for Inactive)
REMARK    1  A    between atoms: C_4  and  O_5
REMARK    2  A    between atoms: O_5  and  C_6
REMARK    3  A    between atoms: C_6  and  C_7
REMARK    4  A    between atoms: N_15  and  C_16
REMARK    5  A    between atoms: N_23  and  C_24
REMARK    6  A    between atoms: C_24  and  C_25
REMARK                            x       y       z     vdW  Elec       q    Type
REMARK                         _______ _______ _______ _____ _____    ______ ____
ROOT
ATOM      1  C   UNL     1       2.204   7.662  18.671  0.00  0.00    +0.000 A 
ATOM      2  C   UNL     1       1.650   8.664  17.871  0.00  0.00    +0.000 A 
ATOM      3  C   UNL     1       0.882   9.684  18.427  0.00  0.00    +0.000 A 
ATOM      4  C   UNL     1       0.682   9.664  19.813  0.00  0.00    +0.000 A 
ATOM      5  C   UNL     1       1.182   8.659  20.629  0.00  0.00    +0.000 A 
ATOM      6  C   UNL     1       0.727   8.987  21.924  0.00  0.00    +0.000 A 
ATOM      7  N   UNL     1       0.038  10.130  21.955  0.00  0.00    +0.000 NA
ATOM      8  N   UNL     1       0.030  10.528  20.661  0.00  0.00    +0.000 N 
ATOM      9  C   UNL     1       1.955   7.636  20.057  0.00  0.00    +0.000 A 
ENDROOT
BRANCH   1  16
ATOM     10  O   UNL     1       1.754   4.845  18.448  0.00  0.00    +0.000 OA
ATOM     11  C   UNL     1       2.786   5.365  18.030  0.00  0.00    +0.000 A 
ATOM     12  C   UNL     1       3.829   4.477  17.442  0.00  0.00    +0.000 A 
ATOM     13  C   UNL     1       4.966   4.987  16.956  0.00  0.00    +0.000 A 
ATOM     14  C   UNL     1       5.163   6.415  16.927  0.00  0.00    +0.000 A 
ATOM     15  C   UNL     1       4.288   7.217  17.532  0.00  0.00    +0.000 A 
ATOM     16  N   UNL     1       3.124   6.730  18.107  0.00  0.00    +0.000 N 
BRANCH  13  17
ATOM     17  O   UNL     1       5.960   4.152  16.485  0.00  0.00    +0.000 OA
BRANCH  17  18
ATOM     18  C   UNL     1       7.042   4.806  15.816  0.00  0.00    +0.000 C 
BRANCH  18  19
ATOM     19  C   UNL     1       6.955   4.562  14.336  0.00  0.00    +0.000 A 
ATOM     20  C   UNL     1       7.792   5.248  13.452  0.00  0.00    +0.000 A 
ATOM     21  C   UNL     1       7.720   5.000  12.084  0.00  0.00    +0.000 A 
ATOM     22  C   UNL     1       6.813   4.059  11.590  0.00  0.00    +0.000 A 
ATOM     23  C   UNL     1       5.978   3.369  12.465  0.00  0.00    +0.000 A 
ATOM     24  C   UNL     1       6.049   3.618  13.836  0.00  0.00    +0.000 A 
ENDBRANCH  18  19
ENDBRANCH  17  18
ENDBRANCH  13  17
ENDBRANCH   1  16
BRANCH   8  25
ATOM     25  C   UNL     1      -0.674  11.739  20.282  0.00  0.00    +0.000 C 
BRANCH  25  26
ATOM     26  C   UNL     1       0.017  12.979  20.793  0.00  0.00    +0.000 C 
ATOM     27  N   UNL     1       0.756  13.716  19.996  0.00  0.00    +0.000 NA
ATOM     28  C   UNL     1       1.280  14.800  20.880  0.00  0.00    +0.000 C 
ATOM     29  C   UNL     1       0.417  14.772  22.145  0.00  0.00    +0.000 C 
ATOM     30  N   UNL     1      -0.095  13.426  22.088  0.00  0.00    +0.000 N 
ATOM     31  H   UNL     1      -0.903  13.169  22.644  0.00  0.00    +0.000 HD
ENDBRANCH  25  26
ENDBRANCH   8  25
TORSDOF 6
ENDMDL
MODEL 7
REMARK VINA RESULT:      -8.1      3.072     11.096
REMARK  Name = 
REMARK  6 active torsions:
REMARK  status: ('A' for Active; 'I' for Inactive)
REMARK    1  A    between atoms: C_4  and  O_5
REMARK    2  A    between atoms: O_5  and  C_6
REMARK    3  A    between atoms: C_6  and  C_7
REMARK    4  A    between atoms: N_15  and  C_16
REMARK    5  A    between atoms: N_23  and  C_24
REMARK    6  A    between atoms: C_24  and  C_25
REMARK                            x       y       z     vdW  Elec       q    Type
REMARK                         _______ _______ _______ _____ _____    ______ ____
ROOT
ATOM      1  C   UNL     1       1.467   8.337  19.803  0.00  0.00    +0.000 A 
ATOM      2  C   UNL     1       1.979   8.348  18.503  0.00  0.00    +0.000 A 
ATOM      3  C   UNL     1       2.603   7.224  17.967  0.00  0.00    +0.000 A 
ATOM      4  C   UNL     1       2.703   6.088  18.778  0.00  0.00    +0.000 A 
ATOM      5  C   UNL     1       2.245   6.059  20.088  0.00  0.00    +0.000 A 
ATOM      6  C   UNL     1       2.570   4.767  20.555  0.00  0.00    +0.000 A 
ATOM      7  N   UNL     1       3.141   4.008  19.617  0.00  0.00    +0.000 NA
ATOM      8  N   UNL     1       3.205   4.830  18.543  0.00  0.00    +0.000 N 
ATOM      9  C   UNL     1       1.617   7.197  20.618  0.00  0.00    +0.000 A 
ENDROOT
BRANCH   1  16
ATOM     10  O   UNL     1       1.614   9.454  22.433  0.00  0.00    +0.000 OA
ATOM     11  C   UNL     1       0.857   9.914  21.582  0.00  0.00    +0.000 A 
ATOM     12  C   UNL     1      -0.026  11.051  21.970  0.00  0.00    +0.000 A 
ATOM     13  C   UNL     1      -0.859  11.605  21.081  0.00  0.00    +0.000 A 
ATOM     14  C   UNL     1      -0.855  11.156  19.711  0.00  0.00    +0.000 A 
ATOM     15  C   UNL     1      -0.145  10.083  19.367  0.00  0.00    +0.000 A 
ATOM     16  N   UNL     1       0.686   9.433  20.268  0.00  0.00    +0.000 N 
BRANCH  13  17
ATOM     17  O   UNL     1      -1.729  12.604  21.470  0.00  0.00    +0.000 OA
BRANCH  17  18
ATOM     18  C   UNL     1      -1.986  12.678  22.875  0.00  0.00    +0.000 C 
BRANCH  18  19
ATOM     19  C   UNL     1      -3.465  12.780  23.123  0.00  0.00    +0.000 A 
ATOM     20  C   UNL     1      -4.326  13.228  22.116  0.00  0.00    +0.000 A 
ATOM     21  C   UNL     1      -5.697  13.299  22.348  0.00  0.00    +0.000 A 
ATOM     22  C   UNL     1      -6.219  12.918  23.586  0.00  0.00    +0.000 A 
ATOM     23  C   UNL     1      -5.368  12.468  24.592  0.00  0.00    +0.000 A 
ATOM     24  C   UNL     1      -3.994  12.398  24.362  0.00  0.00    +0.000 A 
ENDBRANCH  18  19
ENDBRANCH  17  18
ENDBRANCH  13  17
ENDBRANCH   1  16
BRANCH   8  25
ATOM     25  C   UNL     1       3.815   4.363  17.311  0.00  0.00    +0.000 C 
BRANCH  25  26
ATOM     26  C   UNL     1       5.321   4.447  17.357  0.00  0.00    +0.000 C 
ATOM     27  N   UNL     1       6.012   4.757  16.286  0.00  0.00    +0.000 NA
ATOM     28  C   UNL     1       7.435   4.693  16.736  0.00  0.00    +0.000 C 
ATOM     29  C   UNL     1       7.397   4.695  18.267  0.00  0.00    +0.000 C 
ATOM     30  N   UNL     1       6.053   4.231  18.501  0.00  0.00    +0.000 N 
ATOM     31  H   UNL     1       5.623   4.365  19.409  0.00  0.00    +0.000 HD
ENDBRANCH  25  26
ENDBRANCH   8  25
TORSDOF 6
ENDMDL
MODEL 8
REMARK VINA RESULT:      -8.0      0.737      1.146
REMARK  Name = 
REMARK  6 active torsions:
REMARK  status: ('A' for Active; 'I' for Inactive)
REMARK    1  A    between atoms: C_4  and  O_5
REMARK    2  A    between atoms: O_5  and  C_6
REMARK    3  A    between atoms: C_6  and  C_7
REMARK    4  A    between atoms: N_15  and  C_16
REMARK    5  A    between atoms: N_23  and  C_24
REMARK    6  A    between atoms: C_24  and  C_25
REMARK                            x       y       z     vdW  Elec       q    Type
REMARK                         _______ _______ _______ _____ _____    ______ ____
ROOT
ATOM      1  C   UNL     1       1.869   8.179  19.377  0.00  0.00    +0.000 A 
ATOM      2  C   UNL     1       1.430   9.310  18.687  0.00  0.00    +0.000 A 
ATOM      3  C   UNL     1       0.778  10.348  19.349  0.00  0.00    +0.000 A 
ATOM      4  C   UNL     1       0.575  10.212  20.727  0.00  0.00    +0.000 A 
ATOM      5  C   UNL     1       0.959   9.081  21.435  0.00  0.00    +0.000 A 
ATOM      6  C   UNL     1       0.541   9.327  22.760  0.00  0.00    +0.000 A 
ATOM      7  N   UNL     1      -0.017  10.529  22.912  0.00  0.00    +0.000 NA
ATOM      8  N   UNL     1       0.020  11.053  21.663  0.00  0.00    +0.000 N 
ATOM      9  C   UNL     1       1.616   8.042  20.757  0.00  0.00    +0.000 A 
ENDROOT
BRANCH   1  16
ATOM     10  O   UNL     1       1.787   5.360  19.863  0.00  0.00    +0.000 OA
ATOM     11  C   UNL     1       2.539   5.845  19.021  0.00  0.00    +0.000 A 
ATOM     12  C   UNL     1       3.453   4.924  18.285  0.00  0.00    +0.000 A 
ATOM     13  C   UNL     1       4.282   5.392  17.345  0.00  0.00    +0.000 A 
ATOM     14  C   UNL     1       4.248   6.786  16.980  0.00  0.00    +0.000 A 
ATOM     15  C   UNL     1       3.510   7.639  17.689  0.00  0.00    +0.000 A 
ATOM     16  N   UNL     1       2.680   7.213  18.715  0.00  0.00    +0.000 N 
BRANCH  13  17
ATOM     17  O   UNL     1       5.180   4.546  16.724  0.00  0.00    +0.000 OA
BRANCH  17  18
ATOM     18  C   UNL     1       6.330   5.183  16.160  0.00  0.00    +0.000 C 
BRANCH  18  19
ATOM     19  C   UNL     1       6.492   4.773  14.723  0.00  0.00    +0.000 A 
ATOM     20  C   UNL     1       5.603   3.869  14.137  0.00  0.00    +0.000 A 
ATOM     21  C   UNL     1       5.748   3.511  12.799  0.00  0.00    +0.000 A 
ATOM     22  C   UNL     1       6.781   4.058  12.036  0.00  0.00    +0.000 A 
ATOM     23  C   UNL     1       7.670   4.962  12.613  0.00  0.00    +0.000 A 
ATOM     24  C   UNL     1       7.527   5.320  13.953  0.00  0.00    +0.000 A 
ENDBRANCH  18  19
ENDBRANCH  17  18
ENDBRANCH  13  17
ENDBRANCH   1  16
BRANCH   8  25
ATOM     25  C   UNL     1      -0.545  12.366  21.414  0.00  0.00    +0.000 C 
BRANCH  25  26
ATOM     26  C   UNL     1      -1.913  12.521  22.033  0.00  0.00    +0.000 C 
ATOM     27  N   UNL     1      -2.993  12.533  21.287  0.00  0.00    +0.000 NA
ATOM     28  C   UNL     1      -4.107  12.742  22.260  0.00  0.00    +0.000 C 
ATOM     29  C   UNL     1      -3.524  12.447  23.645  0.00  0.00    +0.000 C 
ATOM     30  N   UNL     1      -2.118  12.634  23.387  0.00  0.00    +0.000 N 
ATOM     31  H   UNL     1      -1.432  12.265  24.036  0.00  0.00    +0.000 HD
ENDBRANCH  25  26
ENDBRANCH   8  25
TORSDOF 6
ENDMDL
MODEL 9
REMARK VINA RESULT:      -8.0      2.635      4.052
REMARK  Name = 
REMARK  6 active torsions:
REMARK  status: ('A' for Active; 'I' for Inactive)
REMARK    1  A    between atoms: C_4  and  O_5
REMARK    2  A    between atoms: O_5  and  C_6
REMARK    3  A    between atoms: C_6  and  C_7
REMARK    4  A    between atoms: N_15  and  C_16
REMARK    5  A    between atoms: N_23  and  C_24
REMARK    6  A    between atoms: C_24  and  C_25
REMARK                            x       y       z     vdW  Elec       q    Type
REMARK                         _______ _______ _______ _____ _____    ______ ____
ROOT
ATOM      1  C   UNL     1       0.677   9.665  20.071  0.00  0.00    +0.000 A 
ATOM      2  C   UNL     1       0.764   9.981  21.428  0.00  0.00    +0.000 A 
ATOM      3  C   UNL     1      -0.083  10.927  22.001  0.00  0.00    +0.000 A 
ATOM      4  C   UNL     1      -1.018  11.551  21.167  0.00  0.00    +0.000 A 
ATOM      5  C   UNL     1      -1.100  11.292  19.806  0.00  0.00    +0.000 A 
ATOM      6  C   UNL     1      -2.123  12.144  19.338  0.00  0.00    +0.000 A 
ATOM      7  N   UNL     1      -2.690  12.855  20.315  0.00  0.00    +0.000 NA
ATOM      8  N   UNL     1      -2.007  12.472  21.420  0.00  0.00    +0.000 N 
ATOM      9  C   UNL     1      -0.241  10.336  19.239  0.00  0.00    +0.000 A 
ENDROOT
BRANCH   1  16
ATOM     10  O   UNL     1       1.952   9.642  17.509  0.00  0.00    +0.000 OA
ATOM     11  C   UNL     1       2.035   8.685  18.276  0.00  0.00    +0.000 A 
ATOM     12  C   UNL     1       2.783   7.481  17.815  0.00  0.00    +0.000 A 
ATOM     13  C   UNL     1       2.922   6.416  18.612  0.00  0.00    +0.000 A 
ATOM     14  C   UNL     1       2.411   6.450  19.960  0.00  0.00    +0.000 A 
ATOM     15  C   UNL     1       1.659   7.476  20.358  0.00  0.00    +0.000 A 
ATOM     16  N   UNL     1       1.433   8.577  19.545  0.00  0.00    +0.000 N 
BRANCH  13  17
ATOM     17  O   UNL     1       3.548   5.275  18.150  0.00  0.00    +0.000 OA
BRANCH  17  18
ATOM     18  C   UNL     1       4.478   5.479  17.082  0.00  0.00    +0.000 C 
BRANCH  18  19
ATOM     19  C   UNL     1       5.794   5.955  17.630  0.00  0.00    +0.000 A 
ATOM     20  C   UNL     1       6.420   7.084  17.096  0.00  0.00    +0.000 A 
ATOM     21  C   UNL     1       7.629   7.531  17.624  0.00  0.00    +0.000 A 
ATOM     22  C   UNL     1       8.219   6.853  18.693  0.00  0.00    +0.000 A 
ATOM     23  C   UNL     1       7.599   5.728  19.232  0.00  0.00    +0.000 A 
ATOM     24  C   UNL     1       6.389   5.279  18.703  0.00  0.00    +0.000 A 
ENDBRANCH  18  19
ENDBRANCH  17  18
ENDBRANCH  13  17
ENDBRANCH   1  16
BRANCH   8  25
ATOM     25  C   UNL     1      -2.317  13.071  22.704  0.00  0.00    +0.000 C 
BRANCH  25  26
ATOM     26  C   UNL     1      -3.805  13.211  22.920  0.00  0.00    +0.000 C 
ATOM     27  N   UNL     1      -4.289  14.159  23.687  0.00  0.00    +0.000 NA
ATOM     28  C   UNL     1      -5.765  13.929  23.667  0.00  0.00    +0.000 C 
ATOM     29  C   UNL     1      -6.033  12.990  22.487  0.00  0.00    +0.000 C 
ATOM     30  N   UNL     1      -4.733  12.390  22.324  0.00  0.00    +0.000 N 
ATOM     31  H   UNL     1      -4.503  11.910  21.461  0.00  0.00    +0.000 HD
ENDBRANCH  25  26
ENDBRANCH   8  25
TORSDOF 6
ENDMDL
