MODEL 1
REMARK VINA RESULT:      -9.3      0.000      0.000
REMARK  Name = 
REMARK  6 active torsions:
REMARK  status: ('A' for Active; 'I' for Inactive)
REMARK    1  A    between atoms: C_4  and  C_5
REMARK    2  A    between atoms: C_5  and  C_6
REMARK    3  A    between atoms: C_14  and  N_15
REMARK    4  A    between atoms: N_15  and  C_16
REMARK    5  A    between atoms: C_16  and  C_17
REMARK    6  A    between atoms: C_17  and  N_18
REMARK                            x       y       z     vdW  Elec       q    Type
REMARK                         _______ _______ _______ _____ _____    ______ ____
ROOT
ATOM      1  C   UNL     1       2.683   4.811  18.590  0.00  0.00    +0.000 C 
ATOM      2  C   UNL     1       1.665   4.889  19.756  0.00  0.00    +0.000 C 
ATOM      3  C   UNL     1       1.411   3.511  20.380  0.00  0.00    +0.000 C 
ATOM      4  C   UNL     1       0.828   2.569  19.317  0.00  0.00    +0.000 C 
ATOM      5  C   UNL     1       1.809   2.434  18.145  0.00  0.00    +0.000 C 
ATOM      6  C   UNL     1       3.112   1.828  18.685  0.00  0.00    +0.000 C 
ATOM      7  C   UNL     1       3.727   2.772  19.726  0.00  0.00    +0.000 C 
ATOM      8  C   UNL     1       2.746   2.964  20.898  0.00  0.00    +0.000 C 
ATOM      9  C   UNL     1       4.033   4.127  19.029  0.00  0.00    +0.000 C 
ATOM     10  C   UNL     1       2.075   3.828  17.533  0.00  0.00    +0.000 C 
ENDROOT
BRANCH   9  11
ATOM     11  N   UNL     1       4.872   4.978  19.844  0.00  0.00    +0.000 NA
ATOM     12  H   UNL     1       4.910   4.726  20.832  0.00  0.00    +0.000 HD
BRANCH  11  13
ATOM     13  C   UNL     1       6.206   5.208  19.312  0.00  0.00    +0.000 C 
BRANCH  13  14
ATOM     14  C   UNL     1       6.381   4.449  17.989  0.00  0.00    +0.000 C 
BRANCH  14  15
ATOM     15  N   UNL     1       7.355   5.061  17.053  0.00  0.00    +0.000 NA
ATOM     16  C   UNL     1       7.079   4.735  15.640  0.00  0.00    +0.000 C 
ATOM     17  C   UNL     1       5.702   5.237  15.154  0.00  0.00    +0.000 C 
ATOM     18  N   UNL     1       5.433   6.657  15.426  0.00  0.00    +0.000 NA
ATOM     19  C   UNL     1       5.939   7.128  16.725  0.00  0.00    +0.000 C 
ATOM     20  C   UNL     1       7.297   6.532  17.168  0.00  0.00    +0.000 C 
ATOM     21  H   UNL     1       4.428   6.817  15.384  0.00  0.00    +0.000 HD
ENDBRANCH  14  15
ENDBRANCH  13  14
ENDBRANCH  11  13
ENDBRANCH   9  11
BRANCH   1  22
ATOM     22  C   UNL     1       2.865   6.221  17.925  0.00  0.00    +0.000 C 
BRANCH  22  26
ATOM     23  C   UNL     1       0.920   9.590  19.862  0.00  0.00    +0.000 A 
ATOM     24  C   UNL     1       1.394   8.519  20.621  0.00  0.00    +0.000 A 
ATOM     25  C   UNL     1       2.061   7.464  19.995  0.00  0.00    +0.000 A 
ATOM     26  C   UNL     1       2.225   7.434  18.604  0.00  0.00    +0.000 A 
ATOM     27  C   UNL     1       1.774   8.537  17.867  0.00  0.00    +0.000 A 
ATOM     28  C   UNL     1       1.120   9.606  18.488  0.00  0.00    +0.000 A 
ENDBRANCH  22  26
ENDBRANCH   1  22
TORSDOF 6
ENDMDL
MODEL 2
REMARK VINA RESULT:      -9.2      0.406      1.017
REMARK  Name = 
REMARK  6 active torsions:
REMARK  status: ('A' for Active; 'I' for Inactive)
REMARK    1  A    between atoms: C_4  and  C_5
REMARK    2  A    between atoms: C_5  and  C_6
REMARK    3  A    between atoms: C_14  and  N_15
REMARK    4  A    between atoms: N_15  and  C_16
REMARK    5  A    between atoms: C_16  and  C_17
REMARK    6  A    between atoms: C_17  and  N_18
REMARK                            x       y       z     vdW  Elec       q    Type
REMARK                         _______ _______ _______ _____ _____    ______ ____
ROOT
ATOM      1  C   UNL     1       2.798   5.136  18.914  0.00  0.00    +0.000 C 
ATOM      2  C   UNL     1       1.901   5.172  20.178  0.00  0.00    +0.000 C 
ATOM      3  C   UNL     1       1.484   3.764  20.618  0.00  0.00    +0.000 C 
ATOM      4  C   UNL     1       0.676   3.097  19.494  0.00  0.00    +0.000 C 
ATOM      5  C   UNL     1       1.527   3.011  18.221  0.00  0.00    +0.000 C 
ATOM      6  C   UNL     1       2.757   2.146  18.530  0.00  0.00    +0.000 C 
ATOM      7  C   UNL     1       3.594   2.813  19.628  0.00  0.00    +0.000 C 
ATOM      8  C   UNL     1       2.752   2.955  20.910  0.00  0.00    +0.000 C 
ATOM      9  C   UNL     1       4.054   4.204  19.108  0.00  0.00    +0.000 C 
ATOM     10  C   UNL     1       1.959   4.431  17.794  0.00  0.00    +0.000 C 
ENDROOT
BRANCH   9  11
ATOM     11  N   UNL     1       5.079   4.784  19.946  0.00  0.00    +0.000 NA
ATOM     12  H   UNL     1       5.287   4.261  20.797  0.00  0.00    +0.000 HD
BRANCH  11  13
ATOM     13  C   UNL     1       6.301   5.152  19.249  0.00  0.00    +0.000 C 
BRANCH  13  14
ATOM     14  C   UNL     1       6.378   4.417  17.903  0.00  0.00    +0.000 C 
BRANCH  14  15
ATOM     15  N   UNL     1       7.332   5.008  16.933  0.00  0.00    +0.000 NA
ATOM     16  C   UNL     1       7.022   4.658  15.533  0.00  0.00    +0.000 C 
ATOM     17  C   UNL     1       5.636   5.155  15.071  0.00  0.00    +0.000 C 
ATOM     18  N   UNL     1       5.377   6.580  15.322  0.00  0.00    +0.000 NA
ATOM     19  C   UNL     1       5.915   7.074  16.601  0.00  0.00    +0.000 C 
ATOM     20  C   UNL     1       7.280   6.482  17.023  0.00  0.00    +0.000 C 
ATOM     21  H   UNL     1       4.371   6.743  15.301  0.00  0.00    +0.000 HD
ENDBRANCH  14  15
ENDBRANCH  13  14
ENDBRANCH  11  13
ENDBRANCH   9  11
BRANCH   1  22
ATOM     22  C   UNL     1       3.146   6.593  18.446  0.00  0.00    +0.000 C 
BRANCH  22  26
ATOM     23  C   UNL     1       0.561   9.914  19.529  0.00  0.00    +0.000 A 
ATOM     24  C   UNL     1       0.891   9.684  18.193  0.00  0.00    +0.000 A 
ATOM     25  C   UNL     1       1.682   8.587  17.849  0.00  0.00    +0.000 A 
ATOM     26  C   UNL     1       2.196   7.728  18.831  0.00  0.00    +0.000 A 
ATOM     27  C   UNL     1       1.822   7.957  20.161  0.00  0.00    +0.000 A 
ATOM     28  C   UNL     1       1.016   9.045  20.513  0.00  0.00    +0.000 A 
ENDBRANCH  22  26
ENDBRANCH   1  22
TORSDOF 6
ENDMDL
MODEL 3
REMARK VINA RESULT:      -8.8      2.431      5.887
REMARK  Name = 
REMARK  6 active torsions:
REMARK  status: ('A' for Active; 'I' for Inactive)
REMARK    1  A    between atoms: C_4  and  C_5
REMARK    2  A    between atoms: C_5  and  C_6
REMARK    3  A    between atoms: C_14  and  N_15
REMARK    4  A    between atoms: N_15  and  C_16
REMARK    5  A    between atoms: C_16  and  C_17
REMARK    6  A    between atoms: C_17  and  N_18
REMARK                            x       y       z     vdW  Elec       q    Type
REMARK                         _______ _______ _______ _____ _____    ______ ____
ROOT
ATOM      1  C   UNL     1       3.247   4.468  18.364  0.00  0.00    +0.000 C 
ATOM      2  C   UNL     1       1.845   4.137  17.791  0.00  0.00    +0.000 C 
ATOM      3  C   UNL     1       1.032   3.263  18.753  0.00  0.00    +0.000 C 
ATOM      4  C   UNL     1       1.767   1.934  18.980  0.00  0.00    +0.000 C 
ATOM      5  C   UNL     1       3.157   2.200  19.573  0.00  0.00    +0.000 C 
ATOM      6  C   UNL     1       2.969   2.902  20.925  0.00  0.00    +0.000 C 
ATOM      7  C   UNL     1       2.265   4.247  20.715  0.00  0.00    +0.000 C 
ATOM      8  C   UNL     1       0.881   4.017  20.079  0.00  0.00    +0.000 C 
ATOM      9  C   UNL     1       3.161   5.124  19.795  0.00  0.00    +0.000 C 
ATOM     10  C   UNL     1       3.964   3.097  18.607  0.00  0.00    +0.000 C 
ENDROOT
BRANCH   9  11
ATOM     11  N   UNL     1       2.729   6.503  19.772  0.00  0.00    +0.000 NA
ATOM     12  H   UNL     1       2.405   6.839  18.865  0.00  0.00    +0.000 HD
BRANCH  11  13
ATOM     13  C   UNL     1       1.796   6.867  20.827  0.00  0.00    +0.000 C 
BRANCH  13  14
ATOM     14  C   UNL     1       1.482   8.368  20.755  0.00  0.00    +0.000 C 
BRANCH  14  15
ATOM     15  N   UNL     1       0.036   8.694  20.729  0.00  0.00    +0.000 NA
ATOM     16  C   UNL     1      -0.601   8.596  22.057  0.00  0.00    +0.000 C 
ATOM     17  C   UNL     1      -0.001   9.567  23.095  0.00  0.00    +0.000 C 
ATOM     18  N   UNL     1       0.079  10.968  22.656  0.00  0.00    +0.000 NA
ATOM     19  C   UNL     1       0.442  11.135  21.239  0.00  0.00    +0.000 C 
ATOM     20  C   UNL     1      -0.152  10.085  20.270  0.00  0.00    +0.000 C 
ATOM     21  H   UNL     1       0.760  11.459  23.232  0.00  0.00    +0.000 HD
ENDBRANCH  14  15
ENDBRANCH  13  14
ENDBRANCH  11  13
ENDBRANCH   9  11
BRANCH   1  22
ATOM     22  C   UNL     1       4.081   5.300  17.327  0.00  0.00    +0.000 C 
BRANCH  22  26
ATOM     23  C   UNL     1       7.994   6.824  18.446  0.00  0.00    +0.000 A 
ATOM     24  C   UNL     1       7.233   7.480  17.477  0.00  0.00    +0.000 A 
ATOM     25  C   UNL     1       5.957   7.011  17.159  0.00  0.00    +0.000 A 
ATOM     26  C   UNL     1       5.437   5.859  17.763  0.00  0.00    +0.000 A 
ATOM     27  C   UNL     1       6.203   5.239  18.759  0.00  0.00    +0.000 A 
ATOM     28  C   UNL     1       7.476   5.711  19.096  0.00  0.00    +0.000 A 
ENDBRANCH  22  26
ENDBRANCH   1  22
TORSDOF 6
ENDMDL
MODEL 4
REMARK VINA RESULT:      -8.8      0.716      1.214
REMARK  Name = 
REMARK  6 active torsions:
REMARK  status: ('A' for Active; 'I' for Inactive)
REMARK    1  A    between atoms: C_4  and  C_5
REMARK    2  A    between atoms: C_5  and  C_6
REMARK    3  A    between atoms: C_14  and  N_15
REMARK    4  A    between atoms: N_15  and  C_16
REMARK    5  A    between atoms: C_16  and  C_17
REMARK    6  A    between atoms: C_17  and  N_18
REMARK                            x       y       z     vdW  Elec       q    Type
REMARK                         _______ _______ _______ _____ _____    ______ ____
ROOT
ATOM      1  C   UNL     1       2.664   4.780  19.596  0.00  0.00    +0.000 C 
ATOM      2  C   UNL     1       2.177   3.664  20.556  0.00  0.00    +0.000 C 
ATOM      3  C   UNL     1       1.972   2.334  19.821  0.00  0.00    +0.000 C 
ATOM      4  C   UNL     1       0.902   2.511  18.734  0.00  0.00    +0.000 C 
ATOM      5  C   UNL     1       1.344   3.589  17.737  0.00  0.00    +0.000 C 
ATOM      6  C   UNL     1       2.649   3.120  17.079  0.00  0.00    +0.000 C 
ATOM      7  C   UNL     1       3.740   2.969  18.145  0.00  0.00    +0.000 C 
ATOM      8  C   UNL     1       3.306   1.923  19.189  0.00  0.00    +0.000 C 
ATOM      9  C   UNL     1       3.963   4.357  18.810  0.00  0.00    +0.000 C 
ATOM     10  C   UNL     1       1.567   4.923  18.486  0.00  0.00    +0.000 C 
ENDROOT
BRANCH   9  11
ATOM     11  N   UNL     1       5.161   4.385  19.618  0.00  0.00    +0.000 NA
ATOM     12  H   UNL     1       5.464   3.476  19.970  0.00  0.00    +0.000 HD
BRANCH  11  13
ATOM     13  C   UNL     1       6.274   5.116  19.033  0.00  0.00    +0.000 C 
BRANCH  13  14
ATOM     14  C   UNL     1       6.766   4.398  17.768  0.00  0.00    +0.000 C 
BRANCH  14  15
ATOM     15  N   UNL     1       7.527   5.259  16.830  0.00  0.00    +0.000 NA
ATOM     16  C   UNL     1       7.204   4.994  15.414  0.00  0.00    +0.000 C 
ATOM     17  C   UNL     1       5.723   5.253  15.066  0.00  0.00    +0.000 C 
ATOM     18  N   UNL     1       5.212   6.567  15.482  0.00  0.00    +0.000 NA
ATOM     19  C   UNL     1       5.724   7.028  16.783  0.00  0.00    +0.000 C 
ATOM     20  C   UNL     1       7.201   6.677  17.082  0.00  0.00    +0.000 C 
ATOM     21  H   UNL     1       4.195   6.531  15.520  0.00  0.00    +0.000 HD
ENDBRANCH  14  15
ENDBRANCH  13  14
ENDBRANCH  11  13
ENDBRANCH   9  11
BRANCH   1  22
ATOM     22  C   UNL     1       2.792   6.144  20.360  0.00  0.00    +0.000 C 
BRANCH  22  26
ATOM     23  C   UNL     1       1.157   9.671  18.418  0.00  0.00    +0.000 A 
ATOM     24  C   UNL     1       0.857   9.399  19.753  0.00  0.00    +0.000 A 
ATOM     25  C   UNL     1       1.425   8.290  20.383  0.00  0.00    +0.000 A 
ATOM     26  C   UNL     1       2.263   7.410  19.684  0.00  0.00    +0.000 A 
ATOM     27  C   UNL     1       2.579   7.723  18.356  0.00  0.00    +0.000 A 
ATOM     28  C   UNL     1       2.027   8.841  17.721  0.00  0.00    +0.000 A 
ENDBRANCH  22  26
ENDBRANCH   1  22
TORSDOF 6
ENDMDL
MODEL 5
REMARK VINA RESULT:      -8.7      2.558      6.178
REMARK  Name = 
REMARK  6 active torsions:
REMARK  status: ('A' for Active; 'I' for Inactive)
REMARK    1  A    between atoms: C_4  and  C_5
REMARK    2  A    between atoms: C_5  and  C_6
REMARK    3  A    between atoms: C_14  and  N_15
REMARK    4  A    between atoms: N_15  and  C_16
REMARK    5  A    between atoms: C_16  and  C_17
REMARK    6  A    between atoms: C_17  and  N_18
REMARK                            x       y       z     vdW  Elec       q    Type
REMARK                         _______ _______ _______ _____ _____    ______ ____
ROOT
ATOM      1  C   UNL     1       2.872   4.764  18.733  0.00  0.00    +0.000 C 
ATOM      2  C   UNL     1       1.737   4.057  17.949  0.00  0.00    +0.000 C 
ATOM      3  C   UNL     1       1.094   2.934  18.772  0.00  0.00    +0.000 C 
ATOM      4  C   UNL     1       2.155   1.877  19.110  0.00  0.00    +0.000 C 
ATOM      5  C   UNL     1       3.295   2.518  19.911  0.00  0.00    +0.000 C 
ATOM      6  C   UNL     1       2.706   3.065  21.219  0.00  0.00    +0.000 C 
ATOM      7  C   UNL     1       1.666   4.147  20.903  0.00  0.00    +0.000 C 
ATOM      8  C   UNL     1       0.528   3.545  20.059  0.00  0.00    +0.000 C 
ATOM      9  C   UNL     1       2.381   5.295  20.134  0.00  0.00    +0.000 C 
ATOM     10  C   UNL     1       3.927   3.660  19.084  0.00  0.00    +0.000 C 
ENDROOT
BRANCH   9  11
ATOM     11  N   UNL     1       1.559   6.481  20.046  0.00  0.00    +0.000 NA
ATOM     12  H   UNL     1       0.555   6.307  19.984  0.00  0.00    +0.000 HD
BRANCH  11  13
ATOM     13  C   UNL     1       1.852   7.500  21.041  0.00  0.00    +0.000 C 
BRANCH  13  14
ATOM     14  C   UNL     1       1.307   8.859  20.576  0.00  0.00    +0.000 C 
BRANCH  14  15
ATOM     15  N   UNL     1      -0.163   9.007  20.702  0.00  0.00    +0.000 NA
ATOM     16  C   UNL     1      -0.658   8.706  22.060  0.00  0.00    +0.000 C 
ATOM     17  C   UNL     1      -0.077   9.639  23.143  0.00  0.00    +0.000 C 
ATOM     18  N   UNL     1      -0.196  11.075  22.850  0.00  0.00    +0.000 NA
ATOM     19  C   UNL     1       0.012  11.419  21.434  0.00  0.00    +0.000 C 
ATOM     20  C   UNL     1      -0.548  10.403  20.410  0.00  0.00    +0.000 C 
ATOM     21  H   UNL     1       0.477  11.587  23.418  0.00  0.00    +0.000 HD
ENDBRANCH  14  15
ENDBRANCH  13  14
ENDBRANCH  11  13
ENDBRANCH   9  11
BRANCH   1  22
ATOM     22  C   UNL     1       3.559   5.856  17.840  0.00  0.00    +0.000 C 
BRANCH  22  26
ATOM     23  C   UNL     1       7.089   4.879  15.500  0.00  0.00    +0.000 A 
ATOM     24  C   UNL     1       7.192   5.703  16.622  0.00  0.00    +0.000 A 
ATOM     25  C   UNL     1       6.062   5.973  17.396  0.00  0.00    +0.000 A 
ATOM     26  C   UNL     1       4.804   5.466  17.041  0.00  0.00    +0.000 A 
ATOM     27  C   UNL     1       4.730   4.612  15.933  0.00  0.00    +0.000 A 
ATOM     28  C   UNL     1       5.861   4.323  15.162  0.00  0.00    +0.000 A 
ENDBRANCH  22  26
ENDBRANCH   1  22
TORSDOF 6
ENDMDL
MODEL 6
REMARK VINA RESULT:      -8.7      1.021      1.599
REMARK  Name = 
REMARK  6 active torsions:
REMARK  status: ('A' for Active; 'I' for Inactive)
REMARK    1  A    between atoms: C_4  and  C_5
REMARK    2  A    between atoms: C_5  and  C_6
REMARK    3  A    between atoms: C_14  and  N_15
REMARK    4  A    between atoms: N_15  and  C_16
REMARK    5  A    between atoms: C_16  and  C_17
REMARK    6  A    between atoms: C_17  and  N_18
REMARK                            x       y       z     vdW  Elec       q    Type
REMARK                         _______ _______ _______ _____ _____    ______ ____
ROOT
ATOM      1  C   UNL     1       2.773   4.979  19.180  0.00  0.00    +0.000 C 
ATOM      2  C   UNL     1       2.356   5.038  20.672  0.00  0.00    +0.000 C 
ATOM      3  C   UNL     1       1.813   3.690  21.162  0.00  0.00    +0.000 C 
ATOM      4  C   UNL     1       0.567   3.315  20.345  0.00  0.00    +0.000 C 
ATOM      5  C   UNL     1       0.929   3.217  18.857  0.00  0.00    +0.000 C 
ATOM      6  C   UNL     1       1.981   2.111  18.697  0.00  0.00    +0.000 C 
ATOM      7  C   UNL     1       3.245   2.484  19.480  0.00  0.00    +0.000 C 
ATOM      8  C   UNL     1       2.907   2.634  20.975  0.00  0.00    +0.000 C 
ATOM      9  C   UNL     1       3.799   3.816  18.899  0.00  0.00    +0.000 C 
ATOM     10  C   UNL     1       1.493   4.572  18.374  0.00  0.00    +0.000 C 
ENDROOT
BRANCH   9  11
ATOM     11  N   UNL     1       5.136   4.099  19.371  0.00  0.00    +0.000 NA
ATOM     12  H   UNL     1       5.509   3.423  20.039  0.00  0.00    +0.000 HD
BRANCH  11  13
ATOM     13  C   UNL     1       6.103   4.387  18.324  0.00  0.00    +0.000 C 
BRANCH  13  14
ATOM     14  C   UNL     1       5.590   3.860  16.976  0.00  0.00    +0.000 C 
BRANCH  14  15
ATOM     15  N   UNL     1       5.099   4.911  16.052  0.00  0.00    +0.000 NA
ATOM     16  C   UNL     1       5.784   6.206  16.236  0.00  0.00    +0.000 C 
ATOM     17  C   UNL     1       7.304   6.135  15.974  0.00  0.00    +0.000 C 
ATOM     18  N   UNL     1       7.681   5.520  14.693  0.00  0.00    +0.000 NA
ATOM     19  C   UNL     1       6.843   4.374  14.305  0.00  0.00    +0.000 C 
ATOM     20  C   UNL     1       5.341   4.497  14.656  0.00  0.00    +0.000 C 
ATOM     21  H   UNL     1       8.653   5.218  14.743  0.00  0.00    +0.000 HD
ENDBRANCH  14  15
ENDBRANCH  13  14
ENDBRANCH  11  13
ENDBRANCH   9  11
BRANCH   1  22
ATOM     22  C   UNL     1       3.254   6.390  18.689  0.00  0.00    +0.000 C 
BRANCH  22  26
ATOM     23  C   UNL     1       0.533   9.714  19.346  0.00  0.00    +0.000 A 
ATOM     24  C   UNL     1       0.938   8.913  20.414  0.00  0.00    +0.000 A 
ATOM     25  C   UNL     1       1.850   7.878  20.202  0.00  0.00    +0.000 A 
ATOM     26  C   UNL     1       2.338   7.593  18.919  0.00  0.00    +0.000 A 
ATOM     27  C   UNL     1       1.946   8.432  17.869  0.00  0.00    +0.000 A 
ATOM     28  C   UNL     1       1.045   9.483  18.075  0.00  0.00    +0.000 A 
ENDBRANCH  22  26
ENDBRANCH   1  22
TORSDOF 6
ENDMDL
MODEL 7
REMARK VINA RESULT:      -8.6      2.448      5.669
REMARK  Name = 
REMARK  6 active torsions:
REMARK  status: ('A' for Active; 'I' for Inactive)
REMARK    1  A    between atoms: C_4  and  C_5
REMARK    2  A    between atoms: C_5  and  C_6
REMARK    3  A    between atoms: C_14  and  N_15
REMARK    4  A    between atoms: N_15  and  C_16
REMARK    5  A    between atoms: C_16  and  C_17
REMARK    6  A    between atoms: C_17  and  N_18
REMARK                            x       y       z     vdW  Elec       q    Type
REMARK                         _______ _______ _______ _____ _____    ______ ____
ROOT
ATOM      1  C   UNL     1       3.245   4.444  18.514  0.00  0.00    +0.000 C 
ATOM      2  C   UNL     1       1.965   3.805  17.918  0.00  0.00    +0.000 C 
ATOM      3  C   UNL     1       1.062   3.220  19.011  0.00  0.00    +0.000 C 
ATOM      4  C   UNL     1       1.822   2.120  19.767  0.00  0.00    +0.000 C 
ATOM      5  C   UNL     1       3.090   2.704  20.402  0.00  0.00    +0.000 C 
ATOM      6  C   UNL     1       2.665   3.790  21.400  0.00  0.00    +0.000 C 
ATOM      7  C   UNL     1       1.932   4.914  20.658  0.00  0.00    +0.000 C 
ATOM      8  C   UNL     1       0.674   4.350  19.971  0.00  0.00    +0.000 C 
ATOM      9  C   UNL     1       2.910   5.522  19.614  0.00  0.00    +0.000 C 
ATOM     10  C   UNL     1       3.987   3.308  19.297  0.00  0.00    +0.000 C 
ENDROOT
BRANCH   9  11
ATOM     11  N   UNL     1       2.416   6.767  19.069  0.00  0.00    +0.000 NA
ATOM     12  H   UNL     1       1.736   6.668  18.314  0.00  0.00    +0.000 HD
BRANCH  11  13
ATOM     13  C   UNL     1       1.958   7.727  20.061  0.00  0.00    +0.000 C 
BRANCH  13  14
ATOM     14  C   UNL     1       1.425   8.987  19.364  0.00  0.00    +0.000 C 
BRANCH  14  15
ATOM     15  N   UNL     1       0.637   9.887  20.240  0.00  0.00    +0.000 NA
ATOM     16  C   UNL     1       1.174  11.262  20.286  0.00  0.00    +0.000 C 
ATOM     17  C   UNL     1       1.180  11.962  18.911  0.00  0.00    +0.000 C 
ATOM     18  N   UNL     1      -0.103  11.927  18.195  0.00  0.00    +0.000 NA
ATOM     19  C   UNL     1      -0.838  10.659  18.339  0.00  0.00    +0.000 C 
ATOM     20  C   UNL     1      -0.746   9.990  19.731  0.00  0.00    +0.000 C 
ATOM     21  H   UNL     1       0.065  12.101  17.205  0.00  0.00    +0.000 HD
ENDBRANCH  14  15
ENDBRANCH  13  14
ENDBRANCH  11  13
ENDBRANCH   9  11
BRANCH   1  22
ATOM     22  C   UNL     1       4.182   4.966  17.369  0.00  0.00    +0.000 C 
BRANCH  22  26
ATOM     23  C   UNL     1       7.935   6.927  18.346  0.00  0.00    +0.000 A 
ATOM     24  C   UNL     1       7.057   7.503  17.427  0.00  0.00    +0.000 A 
ATOM     25  C   UNL     1       5.833   6.891  17.155  0.00  0.00    +0.000 A 
ATOM     26  C   UNL     1       5.481   5.675  17.757  0.00  0.00    +0.000 A 
ATOM     27  C   UNL     1       6.361   5.135  18.704  0.00  0.00    +0.000 A 
ATOM     28  C   UNL     1       7.583   5.750  18.995  0.00  0.00    +0.000 A 
ENDBRANCH  22  26
ENDBRANCH   1  22
TORSDOF 6
ENDMDL
MODEL 8
REMARK VINA RESULT:      -8.5      2.397      5.749
REMARK  Name = 
REMARK  6 active torsions:
REMARK  status: ('A' for Active; 'I' for Inactive)
REMARK    1  A    between atoms: C_4  and  C_5
REMARK    2  A    between atoms: C_5  and  C_6
REMARK    3  A    between atoms: C_14  and  N_15
REMARK    4  A    between atoms: N_15  and  C_16
REMARK    5  A    between atoms: C_16  and  C_17
REMARK    6  A    between atoms: C_17  and  N_18
REMARK                            x       y       z     vdW  Elec       q    Type
REMARK                         _______ _______ _______ _____ _____    ______ ____
ROOT
ATOM      1  C   UNL     1       2.820   4.839  18.786  0.00  0.00    +0.000 C 
ATOM      2  C   UNL     1       1.764   4.059  17.961  0.00  0.00    +0.000 C 
ATOM      3  C   UNL     1       1.181   2.884  18.754  0.00  0.00    +0.000 C 
ATOM      4  C   UNL     1       2.306   1.903  19.114  0.00  0.00    +0.000 C 
ATOM      5  C   UNL     1       3.372   2.616  19.956  0.00  0.00    +0.000 C 
ATOM      6  C   UNL     1       2.706   3.105  21.249  0.00  0.00    +0.000 C 
ATOM      7  C   UNL     1       1.599   4.111  20.912  0.00  0.00    +0.000 C 
ATOM      8  C   UNL     1       0.533   3.436  20.029  0.00  0.00    +0.000 C 
ATOM      9  C   UNL     1       2.250   5.316  20.175  0.00  0.00    +0.000 C 
ATOM     10  C   UNL     1       3.942   3.811  19.158  0.00  0.00    +0.000 C 
ENDROOT
BRANCH   9  11
ATOM     11  N   UNL     1       1.346   6.440  20.073  0.00  0.00    +0.000 NA
ATOM     12  H   UNL     1       0.381   6.243  20.337  0.00  0.00    +0.000 HD
BRANCH  11  13
ATOM     13  C   UNL     1       1.820   7.662  20.704  0.00  0.00    +0.000 C 
BRANCH  13  14
ATOM     14  C   UNL     1       1.424   8.878  19.855  0.00  0.00    +0.000 C 
BRANCH  14  15
ATOM     15  N   UNL     1       0.522   9.837  20.537  0.00  0.00    +0.000 NA
ATOM     16  C   UNL     1       1.071  11.207  20.589  0.00  0.00    +0.000 C 
ATOM     17  C   UNL     1       1.313  11.822  19.195  0.00  0.00    +0.000 C 
ATOM     18  N   UNL     1       0.162  11.755  18.283  0.00  0.00    +0.000 NA
ATOM     19  C   UNL     1      -0.611  10.506  18.380  0.00  0.00    +0.000 C 
ATOM     20  C   UNL     1      -0.758   9.921  19.805  0.00  0.00    +0.000 C 
ATOM     21  H   UNL     1       0.490  11.868  17.325  0.00  0.00    +0.000 HD
ENDBRANCH  14  15
ENDBRANCH  13  14
ENDBRANCH  11  13
ENDBRANCH   9  11
BRANCH   1  22
ATOM     22  C   UNL     1       3.451   5.988  17.923  0.00  0.00    +0.000 C 
BRANCH  22  26
ATOM     23  C   UNL     1       7.198   5.073  15.920  0.00  0.00    +0.000 A 
ATOM     24  C   UNL     1       6.016   4.443  15.527  0.00  0.00    +0.000 A 
ATOM     25  C   UNL     1       4.809   4.778  16.143  0.00  0.00    +0.000 A 
ATOM     26  C   UNL     1       4.764   5.710  17.189  0.00  0.00    +0.000 A 
ATOM     27  C   UNL     1       5.956   6.357  17.542  0.00  0.00    +0.000 A 
ATOM     28  C   UNL     1       7.167   6.039  16.918  0.00  0.00    +0.000 A 
ENDBRANCH  22  26
ENDBRANCH   1  22
TORSDOF 6
ENDMDL
MODEL 9
REMARK VINA RESULT:      -8.5      0.944      1.487
REMARK  Name = 
REMARK  6 active torsions:
REMARK  status: ('A' for Active; 'I' for Inactive)
REMARK    1  A    between atoms: C_4  and  C_5
REMARK    2  A    between atoms: C_5  and  C_6
REMARK    3  A    between atoms: C_14  and  N_15
REMARK    4  A    between atoms: N_15  and  C_16
REMARK    5  A    between atoms: C_16  and  C_17
REMARK    6  A    between atoms: C_17  and  N_18
REMARK                            x       y       z     vdW  Elec       q    Type
REMARK                         _______ _______ _______ _____ _____    ______ ____
ROOT
ATOM      1  C   UNL     1       2.822   4.823  19.330  0.00  0.00    +0.000 C 
ATOM      2  C   UNL     1       2.422   4.808  20.828  0.00  0.00    +0.000 C 
ATOM      3  C   UNL     1       1.818   3.459  21.239  0.00  0.00    +0.000 C 
ATOM      4  C   UNL     1       0.549   3.196  20.416  0.00  0.00    +0.000 C 
ATOM      5  C   UNL     1       0.891   3.174  18.921  0.00  0.00    +0.000 C 
ATOM      6  C   UNL     1       1.887   2.031  18.679  0.00  0.00    +0.000 C 
ATOM      7  C   UNL     1       3.175   2.294  19.468  0.00  0.00    +0.000 C 
ATOM      8  C   UNL     1       2.858   2.365  20.973  0.00  0.00    +0.000 C 
ATOM      9  C   UNL     1       3.787   3.632  18.965  0.00  0.00    +0.000 C 
ATOM     10  C   UNL     1       1.516   4.529  18.517  0.00  0.00    +0.000 C 
ENDROOT
BRANCH   9  11
ATOM     11  N   UNL     1       5.141   3.820  19.436  0.00  0.00    +0.000 NA
ATOM     12  H   UNL     1       5.479   3.098  20.074  0.00  0.00    +0.000 HD
BRANCH  11  13
ATOM     13  C   UNL     1       6.117   4.096  18.395  0.00  0.00    +0.000 C 
BRANCH  13  14
ATOM     14  C   UNL     1       5.493   3.849  17.013  0.00  0.00    +0.000 C 
BRANCH  14  15
ATOM     15  N   UNL     1       6.319   4.315  15.874  0.00  0.00    +0.000 NA
ATOM     16  C   UNL     1       5.605   5.260  14.992  0.00  0.00    +0.000 C 
ATOM     17  C   UNL     1       5.166   6.553  15.711  0.00  0.00    +0.000 C 
ATOM     18  N   UNL     1       6.233   7.237  16.456  0.00  0.00    +0.000 NA
ATOM     19  C   UNL     1       7.166   6.329  17.142  0.00  0.00    +0.000 C 
ATOM     20  C   UNL     1       7.510   5.026  16.382  0.00  0.00    +0.000 C 
ATOM     21  H   UNL     1       5.811   7.860  17.144  0.00  0.00    +0.000 HD
ENDBRANCH  14  15
ENDBRANCH  13  14
ENDBRANCH  11  13
ENDBRANCH   9  11
BRANCH   1  22
ATOM     22  C   UNL     1       3.366   6.237  18.922  0.00  0.00    +0.000 C 
BRANCH  22  26
ATOM     23  C   UNL     1       0.780   9.724  19.123  0.00  0.00    +0.000 A 
ATOM     24  C   UNL     1       1.314   9.312  17.901  0.00  0.00    +0.000 A 
ATOM     25  C   UNL     1       2.104   8.163  17.838  0.00  0.00    +0.000 A 
ATOM     26  C   UNL     1       2.414   7.432  18.993  0.00  0.00    +0.000 A 
ATOM     27  C   UNL     1       1.837   7.842  20.202  0.00  0.00    +0.000 A 
ATOM     28  C   UNL     1       1.030   8.983  20.272  0.00  0.00    +0.000 A 
ENDBRANCH  22  26
ENDBRANCH   1  22
TORSDOF 6
ENDMDL
