MODEL 1
REMARK VINA RESULT:      -6.5      0.000      0.000
REMARK  Name = 
REMARK  7 active torsions:
REMARK  status: ('A' for Active; 'I' for Inactive)
REMARK    1  A    between atoms: C_1  and  N_2
REMARK    2  A    between atoms: N_5  and  N_6
REMARK    3  A    between atoms: C_7  and  C_8
REMARK    4  A    between atoms: C_9  and  C_10
REMARK    5  A    between atoms: N_16  and  S_17
REMARK    6  A    between atoms: S_17  and  C_20
REMARK    7  A    between atoms: N_24  and  C_25
REMARK                            x       y       z     vdW  Elec       q    Type
REMARK                         _______ _______ _______ _____ _____    ______ ____
ROOT
ATOM      1  C   UNL     1      -2.540  12.457  19.688  0.00  0.00    +0.000 A 
ATOM      2  C   UNL     1      -3.722  12.665  20.421  0.00  0.00    +0.000 A 
ATOM      3  N   UNL     1      -4.755  12.179  19.602  0.00  0.00    +0.000 N 
ATOM      4  C   UNL     1      -4.265  11.731  18.379  0.00  0.00    +0.000 A 
ATOM      5  C   UNL     1      -4.880  11.224  17.212  0.00  0.00    +0.000 A 
ATOM      6  C   UNL     1      -4.087  10.786  16.147  0.00  0.00    +0.000 A 
ATOM      7  C   UNL     1      -2.707  10.867  16.213  0.00  0.00    +0.000 A 
ATOM      8  C   UNL     1      -2.094  11.399  17.346  0.00  0.00    +0.000 A 
ATOM      9  C   UNL     1      -2.873  11.833  18.449  0.00  0.00    +0.000 A 
ENDROOT
BRANCH   2  10
ATOM     10  C   UNL     1      -3.809  13.199  21.811  0.00  0.00    +0.000 A 
ATOM     11  C   UNL     1      -3.725  12.398  22.954  0.00  0.00    +0.000 A 
ATOM     12  C   UNL     1      -3.774  12.947  24.241  0.00  0.00    +0.000 A 
ATOM     13  C   UNL     1      -4.016  14.304  24.418  0.00  0.00    +0.000 A 
ATOM     14  C   UNL     1      -4.177  15.116  23.304  0.00  0.00    +0.000 A 
ATOM     15  C   UNL     1      -4.038  14.575  22.020  0.00  0.00    +0.000 A 
ENDBRANCH   2  10
BRANCH   3  16
ATOM     16  S   UNL     1      -6.440  12.161  19.969  0.00  0.00    +0.000 S 
ATOM     17  O   UNL     1      -7.161  11.697  18.795  0.00  0.00    +0.000 OA
ATOM     18  O   UNL     1      -6.617  11.468  21.230  0.00  0.00    +0.000 OA
BRANCH  16  19
ATOM     19  C   UNL     1      -7.049  13.808  20.228  0.00  0.00    +0.000 A 
ATOM     20  N   UNL     1      -7.523  14.294  21.373  0.00  0.00    +0.000 NA
ATOM     21  C   UNL     1      -7.916  15.581  21.105  0.00  0.00    +0.000 A 
ATOM     22  C   UNL     1      -7.693  15.896  19.789  0.00  0.00    +0.000 A 
ATOM     23  N   UNL     1      -7.136  14.767  19.250  0.00  0.00    +0.000 N 
ATOM     24  C   UNL     1      -6.719  14.625  17.866  0.00  0.00    +0.000 C 
ENDBRANCH  16  19
ENDBRANCH   3  16
BRANCH   1  26
ATOM     25  N   UNL     1      -0.674  13.961  19.585  0.00  0.00    +0.000 NA
ATOM     26  C   UNL     1      -1.207  12.891  20.093  0.00  0.00    +0.000 C 
BRANCH  25  31
ATOM     27  C   UNL     1       4.258  15.321  21.880  0.00  0.00    +0.000 C 
ATOM     28  N   UNL     1       2.907  14.766  21.807  0.00  0.00    +0.000 NA
ATOM     29  C   UNL     1       2.832  13.728  20.759  0.00  0.00    +0.000 C 
ATOM     30  C   UNL     1       1.400  13.203  20.537  0.00  0.00    +0.000 C 
ATOM     31  N   UNL     1       0.493  14.315  20.189  0.00  0.00    +0.000 N 
ATOM     32  C   UNL     1       0.490  15.267  21.321  0.00  0.00    +0.000 C 
ATOM     33  C   UNL     1       1.917  15.827  21.530  0.00  0.00    +0.000 C 
ENDBRANCH  25  31
ENDBRANCH   1  26
TORSDOF 5
ENDMDL
MODEL 2
REMARK VINA RESULT:      -6.5      0.794      1.142
REMARK  Name = 
REMARK  7 active torsions:
REMARK  status: ('A' for Active; 'I' for Inactive)
REMARK    1  A    between atoms: C_1  and  N_2
REMARK    2  A    between atoms: N_5  and  N_6
REMARK    3  A    between atoms: C_7  and  C_8
REMARK    4  A    between atoms: C_9  and  C_10
REMARK    5  A    between atoms: N_16  and  S_17
REMARK    6  A    between atoms: S_17  and  C_20
REMARK    7  A    between atoms: N_24  and  C_25
REMARK                            x       y       z     vdW  Elec       q    Type
REMARK                         _______ _______ _______ _____ _____    ______ ____
ROOT
ATOM      1  C   UNL     1      -2.466  12.475  19.795  0.00  0.00    +0.000 A 
ATOM      2  C   UNL     1      -3.603  12.743  20.579  0.00  0.00    +0.000 A 
ATOM      3  N   UNL     1      -4.695  12.314  19.805  0.00  0.00    +0.000 N 
ATOM      4  C   UNL     1      -4.283  11.845  18.562  0.00  0.00    +0.000 A 
ATOM      5  C   UNL     1      -4.973  11.375  17.422  0.00  0.00    +0.000 A 
ATOM      6  C   UNL     1      -4.251  10.899  16.324  0.00  0.00    +0.000 A 
ATOM      7  C   UNL     1      -2.867  10.907  16.329  0.00  0.00    +0.000 A 
ATOM      8  C   UNL     1      -2.179  11.402  17.435  0.00  0.00    +0.000 A 
ATOM      9  C   UNL     1      -2.885  11.874  18.571  0.00  0.00    +0.000 A 
ENDROOT
BRANCH   2  10
ATOM     10  C   UNL     1      -3.601  13.278  21.971  0.00  0.00    +0.000 A 
ATOM     11  C   UNL     1      -3.810  12.484  23.104  0.00  0.00    +0.000 A 
ATOM     12  C   UNL     1      -3.762  13.022  24.396  0.00  0.00    +0.000 A 
ATOM     13  C   UNL     1      -3.610  14.390  24.583  0.00  0.00    +0.000 A 
ATOM     14  C   UNL     1      -3.473  15.215  23.476  0.00  0.00    +0.000 A 
ATOM     15  C   UNL     1      -3.432  14.660  22.192  0.00  0.00    +0.000 A 
ENDBRANCH   2  10
BRANCH   3  16
ATOM     16  S   UNL     1      -6.361  12.385  20.245  0.00  0.00    +0.000 S 
ATOM     17  O   UNL     1      -7.148  12.561  19.035  0.00  0.00    +0.000 OA
ATOM     18  O   UNL     1      -6.642  11.261  21.117  0.00  0.00    +0.000 OA
BRANCH  16  19
ATOM     19  C   UNL     1      -6.703  13.841  21.200  0.00  0.00    +0.000 A 
ATOM     20  N   UNL     1      -7.135  13.865  22.459  0.00  0.00    +0.000 NA
ATOM     21  C   UNL     1      -7.303  15.189  22.778  0.00  0.00    +0.000 A 
ATOM     22  C   UNL     1      -6.981  15.992  21.713  0.00  0.00    +0.000 A 
ATOM     23  N   UNL     1      -6.594  15.124  20.726  0.00  0.00    +0.000 N 
ATOM     24  C   UNL     1      -6.152  15.518  19.400  0.00  0.00    +0.000 C 
ENDBRANCH  16  19
ENDBRANCH   3  16
BRANCH   1  26
ATOM     25  N   UNL     1      -0.490  13.809  19.529  0.00  0.00    +0.000 NA
ATOM     26  C   UNL     1      -1.095  12.837  20.142  0.00  0.00    +0.000 C 
BRANCH  25  31
ATOM     27  C   UNL     1       4.368  15.055  22.036  0.00  0.00    +0.000 C 
ATOM     28  N   UNL     1       3.223  15.229  21.142  0.00  0.00    +0.000 NA
ATOM     29  C   UNL     1       1.964  15.230  21.913  0.00  0.00    +0.000 C 
ATOM     30  C   UNL     1       0.712  15.269  21.015  0.00  0.00    +0.000 C 
ATOM     31  N   UNL     1       0.713  14.124  20.083  0.00  0.00    +0.000 N 
ATOM     32  C   UNL     1       1.920  14.231  19.236  0.00  0.00    +0.000 C 
ATOM     33  C   UNL     1       3.184  14.159  20.125  0.00  0.00    +0.000 C 
ENDBRANCH  25  31
ENDBRANCH   1  26
TORSDOF 5
ENDMDL
MODEL 3
REMARK VINA RESULT:      -6.4      0.534      1.260
REMARK  Name = 
REMARK  7 active torsions:
REMARK  status: ('A' for Active; 'I' for Inactive)
REMARK    1  A    between atoms: C_1  and  N_2
REMARK    2  A    between atoms: N_5  and  N_6
REMARK    3  A    between atoms: C_7  and  C_8
REMARK    4  A    between atoms: C_9  and  C_10
REMARK    5  A    between atoms: N_16  and  S_17
REMARK    6  A    between atoms: S_17  and  C_20
REMARK    7  A    between atoms: N_24  and  C_25
REMARK                            x       y       z     vdW  Elec       q    Type
REMARK                         _______ _______ _______ _____ _____    ______ ____
ROOT
ATOM      1  C   UNL     1      -2.458  12.456  19.546  0.00  0.00    +0.000 A 
ATOM      2  C   UNL     1      -3.625  12.684  20.297  0.00  0.00    +0.000 A 
ATOM      3  N   UNL     1      -4.674  12.172  19.515  0.00  0.00    +0.000 N 
ATOM      4  C   UNL     1      -4.209  11.689  18.296  0.00  0.00    +0.000 A 
ATOM      5  C   UNL     1      -4.847  11.146  17.158  0.00  0.00    +0.000 A 
ATOM      6  C   UNL     1      -4.075  10.678  16.090  0.00  0.00    +0.000 A 
ATOM      7  C   UNL     1      -2.695  10.762  16.124  0.00  0.00    +0.000 A 
ATOM      8  C   UNL     1      -2.059  11.328  17.228  0.00  0.00    +0.000 A 
ATOM      9  C   UNL     1      -2.815  11.795  18.334  0.00  0.00    +0.000 A 
ENDROOT
BRANCH   2  10
ATOM     10  C   UNL     1      -3.684  13.260  21.672  0.00  0.00    +0.000 A 
ATOM     11  C   UNL     1      -3.864  14.623  21.932  0.00  0.00    +0.000 A 
ATOM     12  C   UNL     1      -3.951  15.115  23.240  0.00  0.00    +0.000 A 
ATOM     13  C   UNL     1      -3.753  14.270  24.324  0.00  0.00    +0.000 A 
ATOM     14  C   UNL     1      -3.500  12.924  24.099  0.00  0.00    +0.000 A 
ATOM     15  C   UNL     1      -3.503  12.423  22.791  0.00  0.00    +0.000 A 
ENDBRANCH   2  10
BRANCH   3  16
ATOM     16  S   UNL     1      -6.351  12.164  19.917  0.00  0.00    +0.000 S 
ATOM     17  O   UNL     1      -7.093  11.640  18.782  0.00  0.00    +0.000 OA
ATOM     18  O   UNL     1      -6.498  11.531  21.213  0.00  0.00    +0.000 OA
BRANCH  16  19
ATOM     19  C   UNL     1      -6.965  13.818  20.110  0.00  0.00    +0.000 A 
ATOM     20  N   UNL     1      -7.394  14.364  21.245  0.00  0.00    +0.000 NA
ATOM     21  C   UNL     1      -7.812  15.631  20.923  0.00  0.00    +0.000 A 
ATOM     22  C   UNL     1      -7.647  15.873  19.583  0.00  0.00    +0.000 A 
ATOM     23  N   UNL     1      -7.102  14.720  19.084  0.00  0.00    +0.000 N 
ATOM     24  C   UNL     1      -6.742  14.504  17.694  0.00  0.00    +0.000 C 
ENDBRANCH  16  19
ENDBRANCH   3  16
BRANCH   1  26
ATOM     25  N   UNL     1      -0.523  13.838  19.232  0.00  0.00    +0.000 NA
ATOM     26  C   UNL     1      -1.118  12.903  19.910  0.00  0.00    +0.000 C 
BRANCH  25  31
ATOM     27  C   UNL     1       4.156  15.725  21.680  0.00  0.00    +0.000 C 
ATOM     28  N   UNL     1       3.292  15.243  20.601  0.00  0.00    +0.000 NA
ATOM     29  C   UNL     1       2.123  16.131  20.443  0.00  0.00    +0.000 C 
ATOM     30  C   UNL     1       1.103  15.600  19.416  0.00  0.00    +0.000 C 
ATOM     31  N   UNL     1       0.643  14.250  19.800  0.00  0.00    +0.000 N 
ATOM     32  C   UNL     1       1.823  13.359  19.815  0.00  0.00    +0.000 C 
ATOM     33  C   UNL     1       2.839  13.863  20.868  0.00  0.00    +0.000 C 
ENDBRANCH  25  31
ENDBRANCH   1  26
TORSDOF 5
ENDMDL
MODEL 4
REMARK VINA RESULT:      -6.4      1.522      1.999
REMARK  Name = 
REMARK  7 active torsions:
REMARK  status: ('A' for Active; 'I' for Inactive)
REMARK    1  A    between atoms: C_1  and  N_2
REMARK    2  A    between atoms: N_5  and  N_6
REMARK    3  A    between atoms: C_7  and  C_8
REMARK    4  A    between atoms: C_9  and  C_10
REMARK    5  A    between atoms: N_16  and  S_17
REMARK    6  A    between atoms: S_17  and  C_20
REMARK    7  A    between atoms: N_24  and  C_25
REMARK                            x       y       z     vdW  Elec       q    Type
REMARK                         _______ _______ _______ _____ _____    ______ ____
ROOT
ATOM      1  C   UNL     1      -2.452  12.435  19.560  0.00  0.00    +0.000 A 
ATOM      2  C   UNL     1      -3.722  12.930  19.903  0.00  0.00    +0.000 A 
ATOM      3  N   UNL     1      -4.610  12.334  18.990  0.00  0.00    +0.000 N 
ATOM      4  C   UNL     1      -3.933  11.538  18.071  0.00  0.00    +0.000 A 
ATOM      5  C   UNL     1      -4.343  10.794  16.942  0.00  0.00    +0.000 A 
ATOM      6  C   UNL     1      -3.408  10.023  16.245  0.00  0.00    +0.000 A 
ATOM      7  C   UNL     1      -2.079  10.000  16.633  0.00  0.00    +0.000 A 
ATOM      8  C   UNL     1      -1.661  10.759  17.725  0.00  0.00    +0.000 A 
ATOM      9  C   UNL     1      -2.591  11.535  18.462  0.00  0.00    +0.000 A 
ENDROOT
BRANCH   2  10
ATOM     10  C   UNL     1      -4.034  13.820  21.058  0.00  0.00    +0.000 A 
ATOM     11  C   UNL     1      -4.136  13.366  22.377  0.00  0.00    +0.000 A 
ATOM     12  C   UNL     1      -4.394  14.244  23.438  0.00  0.00    +0.000 A 
ATOM     13  C   UNL     1      -4.663  15.585  23.191  0.00  0.00    +0.000 A 
ATOM     14  C   UNL     1      -4.641  16.053  21.885  0.00  0.00    +0.000 A 
ATOM     15  C   UNL     1      -4.295  15.188  20.839  0.00  0.00    +0.000 A 
ENDBRANCH   2  10
BRANCH   3  16
ATOM     16  S   UNL     1      -6.318  12.559  18.916  0.00  0.00    +0.000 S 
ATOM     17  O   UNL     1      -6.586  13.974  18.718  0.00  0.00    +0.000 OA
ATOM     18  O   UNL     1      -6.855  11.597  17.974  0.00  0.00    +0.000 OA
BRANCH  16  19
ATOM     19  C   UNL     1      -7.074  12.188  20.477  0.00  0.00    +0.000 A 
ATOM     20  N   UNL     1      -7.382  13.071  21.426  0.00  0.00    +0.000 NA
ATOM     21  C   UNL     1      -7.903  12.344  22.466  0.00  0.00    +0.000 A 
ATOM     22  C   UNL     1      -7.915  11.005  22.169  0.00  0.00    +0.000 A 
ATOM     23  N   UNL     1      -7.395  10.923  20.904  0.00  0.00    +0.000 N 
ATOM     24  C   UNL     1      -7.216   9.691  20.157  0.00  0.00    +0.000 C 
ENDBRANCH  16  19
ENDBRANCH   3  16
BRANCH   1  26
ATOM     25  N   UNL     1      -0.425  13.719  19.591  0.00  0.00    +0.000 NA
ATOM     26  C   UNL     1      -1.191  12.845  20.171  0.00  0.00    +0.000 C 
BRANCH  25  31
ATOM     27  C   UNL     1       4.034  15.311  22.595  0.00  0.00    +0.000 C 
ATOM     28  N   UNL     1       2.817  14.567  22.270  0.00  0.00    +0.000 NA
ATOM     29  C   UNL     1       2.995  13.813  21.013  0.00  0.00    +0.000 C 
ATOM     30  C   UNL     1       1.701  13.120  20.542  0.00  0.00    +0.000 C 
ATOM     31  N   UNL     1       0.621  14.111  20.368  0.00  0.00    +0.000 N 
ATOM     32  C   UNL     1       0.379  14.750  21.680  0.00  0.00    +0.000 C 
ATOM     33  C   UNL     1       1.661  15.478  22.146  0.00  0.00    +0.000 C 
ENDBRANCH  25  31
ENDBRANCH   1  26
TORSDOF 5
ENDMDL
MODEL 5
REMARK VINA RESULT:      -6.3      0.946      1.813
REMARK  Name = 
REMARK  7 active torsions:
REMARK  status: ('A' for Active; 'I' for Inactive)
REMARK    1  A    between atoms: C_1  and  N_2
REMARK    2  A    between atoms: N_5  and  N_6
REMARK    3  A    between atoms: C_7  and  C_8
REMARK    4  A    between atoms: C_9  and  C_10
REMARK    5  A    between atoms: N_16  and  S_17
REMARK    6  A    between atoms: S_17  and  C_20
REMARK    7  A    between atoms: N_24  and  C_25
REMARK                            x       y       z     vdW  Elec       q    Type
REMARK                         _______ _______ _______ _____ _____    ______ ____
ROOT
ATOM      1  C   UNL     1      -2.434  12.500  19.687  0.00  0.00    +0.000 A 
ATOM      2  C   UNL     1      -3.573  12.759  20.470  0.00  0.00    +0.000 A 
ATOM      3  N   UNL     1      -4.658  12.282  19.714  0.00  0.00    +0.000 N 
ATOM      4  C   UNL     1      -4.240  11.791  18.482  0.00  0.00    +0.000 A 
ATOM      5  C   UNL     1      -4.924  11.272  17.358  0.00  0.00    +0.000 A 
ATOM      6  C   UNL     1      -4.195  10.786  16.269  0.00  0.00    +0.000 A 
ATOM      7  C   UNL     1      -2.812  10.829  16.266  0.00  0.00    +0.000 A 
ATOM      8  C   UNL     1      -2.131  11.371  17.355  0.00  0.00    +0.000 A 
ATOM      9  C   UNL     1      -2.843  11.855  18.482  0.00  0.00    +0.000 A 
ENDROOT
BRANCH   2  10
ATOM     10  C   UNL     1      -3.579  13.330  21.848  0.00  0.00    +0.000 A 
ATOM     11  C   UNL     1      -3.404  14.691  22.121  0.00  0.00    +0.000 A 
ATOM     12  C   UNL     1      -3.454  15.190  23.429  0.00  0.00    +0.000 A 
ATOM     13  C   UNL     1      -3.573  14.323  24.508  0.00  0.00    +0.000 A 
ATOM     14  C   UNL     1      -3.675  12.958  24.274  0.00  0.00    +0.000 A 
ATOM     15  C   UNL     1      -3.714  12.476  22.960  0.00  0.00    +0.000 A 
ENDBRANCH   2  10
BRANCH   3  16
ATOM     16  S   UNL     1      -6.323  12.322  20.161  0.00  0.00    +0.000 S 
ATOM     17  O   UNL     1      -7.121  12.411  18.949  0.00  0.00    +0.000 OA
ATOM     18  O   UNL     1      -6.563  11.236  21.091  0.00  0.00    +0.000 OA
BRANCH  16  19
ATOM     19  C   UNL     1      -6.707  13.813  21.044  0.00  0.00    +0.000 A 
ATOM     20  N   UNL     1      -6.605  15.052  20.566  0.00  0.00    +0.000 NA
ATOM     21  C   UNL     1      -6.960  15.886  21.596  0.00  0.00    +0.000 A 
ATOM     22  C   UNL     1      -7.277  15.167  22.720  0.00  0.00    +0.000 A 
ATOM     23  N   UNL     1      -7.121  13.857  22.352  0.00  0.00    +0.000 N 
ATOM     24  C   UNL     1      -7.353  12.716  23.220  0.00  0.00    +0.000 C 
ENDBRANCH  16  19
ENDBRANCH   3  16
BRANCH   1  26
ATOM     25  N   UNL     1      -0.503  13.891  19.391  0.00  0.00    +0.000 NA
ATOM     26  C   UNL     1      -1.072  12.905  20.016  0.00  0.00    +0.000 C 
BRANCH  25  31
ATOM     27  C   UNL     1       4.321  15.542  21.726  0.00  0.00    +0.000 C 
ATOM     28  N   UNL     1       3.406  15.115  20.667  0.00  0.00    +0.000 NA
ATOM     29  C   UNL     1       2.271  16.053  20.558  0.00  0.00    +0.000 C 
ATOM     30  C   UNL     1       1.199  15.582  19.554  0.00  0.00    +0.000 C 
ATOM     31  N   UNL     1       0.695  14.246  19.930  0.00  0.00    +0.000 N 
ATOM     32  C   UNL     1       1.837  13.306  19.896  0.00  0.00    +0.000 C 
ATOM     33  C   UNL     1       2.904  13.750  20.925  0.00  0.00    +0.000 C 
ENDBRANCH  25  31
ENDBRANCH   1  26
TORSDOF 5
ENDMDL
MODEL 6
REMARK VINA RESULT:      -6.2      1.019      1.201
REMARK  Name = 
REMARK  7 active torsions:
REMARK  status: ('A' for Active; 'I' for Inactive)
REMARK    1  A    between atoms: C_1  and  N_2
REMARK    2  A    between atoms: N_5  and  N_6
REMARK    3  A    between atoms: C_7  and  C_8
REMARK    4  A    between atoms: C_9  and  C_10
REMARK    5  A    between atoms: N_16  and  S_17
REMARK    6  A    between atoms: S_17  and  C_20
REMARK    7  A    between atoms: N_24  and  C_25
REMARK                            x       y       z     vdW  Elec       q    Type
REMARK                         _______ _______ _______ _____ _____    ______ ____
ROOT
ATOM      1  C   UNL     1      -2.066  12.310  19.517  0.00  0.00    +0.000 A 
ATOM      2  C   UNL     1      -3.227  12.675  20.222  0.00  0.00    +0.000 A 
ATOM      3  N   UNL     1      -4.291  12.099  19.507  0.00  0.00    +0.000 N 
ATOM      4  C   UNL     1      -3.838  11.443  18.366  0.00  0.00    +0.000 A 
ATOM      5  C   UNL     1      -4.491  10.775  17.305  0.00  0.00    +0.000 A 
ATOM      6  C   UNL     1      -3.732  10.144  16.315  0.00  0.00    +0.000 A 
ATOM      7  C   UNL     1      -2.350  10.186  16.348  0.00  0.00    +0.000 A 
ATOM      8  C   UNL     1      -1.699  10.873  17.372  0.00  0.00    +0.000 A 
ATOM      9  C   UNL     1      -2.442  11.506  18.400  0.00  0.00    +0.000 A 
ENDROOT
BRANCH   2  10
ATOM     10  C   UNL     1      -3.270  13.429  21.508  0.00  0.00    +0.000 A 
ATOM     11  C   UNL     1      -3.174  12.822  22.764  0.00  0.00    +0.000 A 
ATOM     12  C   UNL     1      -3.182  13.574  23.946  0.00  0.00    +0.000 A 
ATOM     13  C   UNL     1      -3.394  14.946  23.904  0.00  0.00    +0.000 A 
ATOM     14  C   UNL     1      -3.566  15.570  22.677  0.00  0.00    +0.000 A 
ATOM     15  C   UNL     1      -3.468  14.825  21.495  0.00  0.00    +0.000 A 
ENDBRANCH   2  10
BRANCH   3  16
ATOM     16  S   UNL     1      -5.968  12.199  19.894  0.00  0.00    +0.000 S 
ATOM     17  O   UNL     1      -6.707  11.372  18.954  0.00  0.00    +0.000 OA
ATOM     18  O   UNL     1      -6.114  11.961  21.316  0.00  0.00    +0.000 OA
BRANCH  16  19
ATOM     19  C   UNL     1      -6.586  13.838  19.608  0.00  0.00    +0.000 A 
ATOM     20  N   UNL     1      -6.898  14.730  20.547  0.00  0.00    +0.000 NA
ATOM     21  C   UNL     1      -7.371  15.832  19.881  0.00  0.00    +0.000 A 
ATOM     22  C   UNL     1      -7.361  15.625  18.525  0.00  0.00    +0.000 A 
ATOM     23  N   UNL     1      -6.853  14.363  18.368  0.00  0.00    +0.000 N 
ATOM     24  C   UNL     1      -6.646  13.702  17.091  0.00  0.00    +0.000 C 
ENDBRANCH  16  19
ENDBRANCH   3  16
BRANCH   1  26
ATOM     25  N   UNL     1      -0.112  13.629  19.076  0.00  0.00    +0.000 NA
ATOM     26  C   UNL     1      -0.712  12.757  19.828  0.00  0.00    +0.000 C 
BRANCH  25  31
ATOM     27  C   UNL     1       4.674  15.635  21.202  0.00  0.00    +0.000 C 
ATOM     28  N   UNL     1       3.808  14.842  20.329  0.00  0.00    +0.000 NA
ATOM     29  C   UNL     1       2.905  15.724  19.561  0.00  0.00    +0.000 C 
ATOM     30  C   UNL     1       1.873  14.941  18.726  0.00  0.00    +0.000 C 
ATOM     31  N   UNL     1       1.070  14.059  19.596  0.00  0.00    +0.000 N 
ATOM     32  C   UNL     1       1.994  13.103  20.244  0.00  0.00    +0.000 C 
ATOM     33  C   UNL     1       3.014  13.875  21.113  0.00  0.00    +0.000 C 
ENDBRANCH  25  31
ENDBRANCH   1  26
TORSDOF 5
ENDMDL
MODEL 7
REMARK VINA RESULT:      -6.1     12.018     13.725
REMARK  Name = 
REMARK  7 active torsions:
REMARK  status: ('A' for Active; 'I' for Inactive)
REMARK    1  A    between atoms: C_1  and  N_2
REMARK    2  A    between atoms: N_5  and  N_6
REMARK    3  A    between atoms: C_7  and  C_8
REMARK    4  A    between atoms: C_9  and  C_10
REMARK    5  A    between atoms: N_16  and  S_17
REMARK    6  A    between atoms: S_17  and  C_20
REMARK    7  A    between atoms: N_24  and  C_25
REMARK                            x       y       z     vdW  Elec       q    Type
REMARK                         _______ _______ _______ _____ _____    ______ ____
ROOT
ATOM      1  C   UNL     1       9.260  13.017  21.468  0.00  0.00    +0.000 A 
ATOM      2  C   UNL     1       9.801  14.213  20.965  0.00  0.00    +0.000 A 
ATOM      3  N   UNL     1      10.222  13.908  19.659  0.00  0.00    +0.000 N 
ATOM      4  C   UNL     1      10.011  12.566  19.358  0.00  0.00    +0.000 A 
ATOM      5  C   UNL     1      10.311  11.762  18.235  0.00  0.00    +0.000 A 
ATOM      6  C   UNL     1       9.898  10.426  18.211  0.00  0.00    +0.000 A 
ATOM      7  C   UNL     1       9.222   9.875  19.285  0.00  0.00    +0.000 A 
ATOM      8  C   UNL     1       8.954  10.652  20.411  0.00  0.00    +0.000 A 
ATOM      9  C   UNL     1       9.343  12.014  20.456  0.00  0.00    +0.000 A 
ENDROOT
BRANCH   2  10
ATOM     10  C   UNL     1       9.817  15.530  21.664  0.00  0.00    +0.000 A 
ATOM     11  C   UNL     1       8.697  16.362  21.770  0.00  0.00    +0.000 A 
ATOM     12  C   UNL     1       8.747  17.575  22.469  0.00  0.00    +0.000 A 
ATOM     13  C   UNL     1       9.949  18.038  22.989  0.00  0.00    +0.000 A 
ATOM     14  C   UNL     1      11.095  17.269  22.837  0.00  0.00    +0.000 A 
ATOM     15  C   UNL     1      11.019  16.017  22.216  0.00  0.00    +0.000 A 
ENDBRANCH   2  10
BRANCH   3  16
ATOM     16  S   UNL     1      10.967  14.985  18.537  0.00  0.00    +0.000 S 
ATOM     17  O   UNL     1      12.284  15.335  19.042  0.00  0.00    +0.000 OA
ATOM     18  O   UNL     1      10.844  14.408  17.213  0.00  0.00    +0.000 OA
BRANCH  16  19
ATOM     19  C   UNL     1      10.101  16.533  18.476  0.00  0.00    +0.000 A 
ATOM     20  N   UNL     1      10.626  17.732  18.724  0.00  0.00    +0.000 NA
ATOM     21  C   UNL     1       9.595  18.630  18.603  0.00  0.00    +0.000 A 
ATOM     22  C   UNL     1       8.425  17.990  18.284  0.00  0.00    +0.000 A 
ATOM     23  N   UNL     1       8.764  16.665  18.198  0.00  0.00    +0.000 N 
ATOM     24  C   UNL     1       7.842  15.591  17.873  0.00  0.00    +0.000 C 
ENDBRANCH  16  19
ENDBRANCH   3  16
BRANCH   1  26
ATOM     25  N   UNL     1       7.576  13.178  23.169  0.00  0.00    +0.000 NA
ATOM     26  C   UNL     1       8.776  12.814  22.830  0.00  0.00    +0.000 C 
BRANCH  25  31
ATOM     27  C   UNL     1       6.166  11.723  28.398  0.00  0.00    +0.000 C 
ATOM     28  N   UNL     1       6.868  11.653  27.117  0.00  0.00    +0.000 NA
ATOM     29  C   UNL     1       7.605  12.909  26.864  0.00  0.00    +0.000 C 
ATOM     30  C   UNL     1       8.252  12.952  25.466  0.00  0.00    +0.000 C 
ATOM     31  N   UNL     1       7.227  12.768  24.419  0.00  0.00    +0.000 N 
ATOM     32  C   UNL     1       6.605  11.442  24.624  0.00  0.00    +0.000 C 
ATOM     33  C   UNL     1       5.922  11.399  26.011  0.00  0.00    +0.000 C 
ENDBRANCH  25  31
ENDBRANCH   1  26
TORSDOF 5
ENDMDL
MODEL 8
REMARK VINA RESULT:      -6.1      4.191      6.454
REMARK  Name = 
REMARK  7 active torsions:
REMARK  status: ('A' for Active; 'I' for Inactive)
REMARK    1  A    between atoms: C_1  and  N_2
REMARK    2  A    between atoms: N_5  and  N_6
REMARK    3  A    between atoms: C_7  and  C_8
REMARK    4  A    between atoms: C_9  and  C_10
REMARK    5  A    between atoms: N_16  and  S_17
REMARK    6  A    between atoms: S_17  and  C_20
REMARK    7  A    between atoms: N_24  and  C_25
REMARK                            x       y       z     vdW  Elec       q    Type
REMARK                         _______ _______ _______ _____ _____    ______ ____
ROOT
ATOM      1  C   UNL     1       1.153  13.606  19.588  0.00  0.00    +0.000 A 
ATOM      2  C   UNL     1       0.131  14.282  20.277  0.00  0.00    +0.000 A 
ATOM      3  N   UNL     1       0.273  15.633  19.917  0.00  0.00    +0.000 N 
ATOM      4  C   UNL     1       1.370  15.823  19.081  0.00  0.00    +0.000 A 
ATOM      5  C   UNL     1       1.968  16.967  18.506  0.00  0.00    +0.000 A 
ATOM      6  C   UNL     1       3.050  16.816  17.633  0.00  0.00    +0.000 A 
ATOM      7  C   UNL     1       3.557  15.561  17.345  0.00  0.00    +0.000 A 
ATOM      8  C   UNL     1       2.995  14.431  17.935  0.00  0.00    +0.000 A 
ATOM      9  C   UNL     1       1.885  14.551  18.810  0.00  0.00    +0.000 A 
ENDROOT
BRANCH   2  10
ATOM     10  C   UNL     1      -0.923  13.651  21.122  0.00  0.00    +0.000 A 
ATOM     11  C   UNL     1      -0.695  13.181  22.419  0.00  0.00    +0.000 A 
ATOM     12  C   UNL     1      -1.725  12.628  23.192  0.00  0.00    +0.000 A 
ATOM     13  C   UNL     1      -2.987  12.433  22.645  0.00  0.00    +0.000 A 
ATOM     14  C   UNL     1      -3.227  12.822  21.335  0.00  0.00    +0.000 A 
ATOM     15  C   UNL     1      -2.218  13.455  20.599  0.00  0.00    +0.000 A 
ENDBRANCH   2  10
BRANCH   3  16
ATOM     16  S   UNL     1      -0.703  16.951  20.449  0.00  0.00    +0.000 S 
ATOM     17  O   UNL     1       0.116  18.152  20.467  0.00  0.00    +0.000 OA
ATOM     18  O   UNL     1      -1.929  16.940  19.675  0.00  0.00    +0.000 OA
BRANCH  16  19
ATOM     19  C   UNL     1      -1.193  16.734  22.141  0.00  0.00    +0.000 A 
ATOM     20  N   UNL     1      -2.445  16.675  22.590  0.00  0.00    +0.000 NA
ATOM     21  C   UNL     1      -2.354  16.544  23.953  0.00  0.00    +0.000 A 
ATOM     22  C   UNL     1      -1.042  16.528  24.355  0.00  0.00    +0.000 A 
ATOM     23  N   UNL     1      -0.321  16.640  23.196  0.00  0.00    +0.000 N 
ATOM     24  C   UNL     1       1.130  16.660  23.119  0.00  0.00    +0.000 C 
ENDBRANCH  16  19
ENDBRANCH   3  16
BRANCH   1  26
ATOM     25  N   UNL     1       0.805  11.295  19.046  0.00  0.00    +0.000 NA
ATOM     26  C   UNL     1       1.467  12.187  19.720  0.00  0.00    +0.000 C 
BRANCH  25  31
ATOM     27  C   UNL     1       3.165   6.218  19.364  0.00  0.00    +0.000 C 
ATOM     28  N   UNL     1       2.115   7.210  19.132  0.00  0.00    +0.000 NA
ATOM     29  C   UNL     1       2.530   8.162  18.080  0.00  0.00    +0.000 C 
ATOM     30  C   UNL     1       1.526   9.315  17.887  0.00  0.00    +0.000 C 
ATOM     31  N   UNL     1       1.331  10.044  19.156  0.00  0.00    +0.000 N 
ATOM     32  C   UNL     1       0.787   9.090  20.146  0.00  0.00    +0.000 C 
ATOM     33  C   UNL     1       1.802   7.945  20.374  0.00  0.00    +0.000 C 
ENDBRANCH  25  31
ENDBRANCH   1  26
TORSDOF 5
ENDMDL
MODEL 9
REMARK VINA RESULT:      -6.0      2.667      5.606
REMARK  Name = 
REMARK  7 active torsions:
REMARK  status: ('A' for Active; 'I' for Inactive)
REMARK    1  A    between atoms: C_1  and  N_2
REMARK    2  A    between atoms: N_5  and  N_6
REMARK    3  A    between atoms: C_7  and  C_8
REMARK    4  A    between atoms: C_9  and  C_10
REMARK    5  A    between atoms: N_16  and  S_17
REMARK    6  A    between atoms: S_17  and  C_20
REMARK    7  A    between atoms: N_24  and  C_25
REMARK                            x       y       z     vdW  Elec       q    Type
REMARK                         _______ _______ _______ _____ _____    ______ ____
ROOT
ATOM      1  C   UNL     1      -0.221  14.783  22.536  0.00  0.00    +0.000 A 
ATOM      2  C   UNL     1      -1.156  13.745  22.377  0.00  0.00    +0.000 A 
ATOM      3  N   UNL     1      -2.044  13.879  23.458  0.00  0.00    +0.000 N 
ATOM      4  C   UNL     1      -1.664  14.918  24.301  0.00  0.00    +0.000 A 
ATOM      5  C   UNL     1      -2.168  15.410  25.526  0.00  0.00    +0.000 A 
ATOM      6  C   UNL     1      -1.589  16.543  26.107  0.00  0.00    +0.000 A 
ATOM      7  C   UNL     1      -0.513  17.174  25.508  0.00  0.00    +0.000 A 
ATOM      8  C   UNL     1       0.012  16.674  24.317  0.00  0.00    +0.000 A 
ATOM      9  C   UNL     1      -0.566  15.538  23.696  0.00  0.00    +0.000 A 
ENDROOT
BRANCH   2  10
ATOM     10  C   UNL     1      -1.217  12.788  21.235  0.00  0.00    +0.000 A 
ATOM     11  C   UNL     1      -2.044  12.965  20.121  0.00  0.00    +0.000 A 
ATOM     12  C   UNL     1      -2.042  12.059  19.053  0.00  0.00    +0.000 A 
ATOM     13  C   UNL     1      -1.289  10.894  19.121  0.00  0.00    +0.000 A 
ATOM     14  C   UNL     1      -0.512  10.652  20.246  0.00  0.00    +0.000 A 
ATOM     15  C   UNL     1      -0.451  11.605  21.270  0.00  0.00    +0.000 A 
ENDBRANCH   2  10
BRANCH   3  16
ATOM     16  S   UNL     1      -3.412  12.886  23.797  0.00  0.00    +0.000 S 
ATOM     17  O   UNL     1      -3.032  11.497  23.600  0.00  0.00    +0.000 OA
ATOM     18  O   UNL     1      -3.958  13.297  25.076  0.00  0.00    +0.000 OA
BRANCH  16  19
ATOM     19  C   UNL     1      -4.701  13.155  22.608  0.00  0.00    +0.000 A 
ATOM     20  N   UNL     1      -5.216  12.237  21.793  0.00  0.00    +0.000 NA
ATOM     21  C   UNL     1      -6.146  12.890  21.024  0.00  0.00    +0.000 A 
ATOM     22  C   UNL     1      -6.207  14.220  21.356  0.00  0.00    +0.000 A 
ATOM     23  N   UNL     1      -5.293  14.369  22.365  0.00  0.00    +0.000 N 
ATOM     24  C   UNL     1      -5.008  15.618  23.050  0.00  0.00    +0.000 C 
ENDBRANCH  16  19
ENDBRANCH   3  16
BRANCH   1  26
ATOM     25  N   UNL     1       2.137  14.642  22.117  0.00  0.00    +0.000 NA
ATOM     26  C   UNL     1       0.958  14.994  21.702  0.00  0.00    +0.000 C 
BRANCH  25  31
ATOM     27  C   UNL     1       5.924  15.216  18.021  0.00  0.00    +0.000 C 
ATOM     28  N   UNL     1       5.143  14.539  19.057  0.00  0.00    +0.000 NA
ATOM     29  C   UNL     1       3.699  14.635  18.758  0.00  0.00    +0.000 C 
ATOM     30  C   UNL     1       2.816  14.063  19.884  0.00  0.00    +0.000 C 
ATOM     31  N   UNL     1       3.097  14.753  21.158  0.00  0.00    +0.000 N 
ATOM     32  C   UNL     1       4.519  14.521  21.494  0.00  0.00    +0.000 C 
ATOM     33  C   UNL     1       5.417  15.122  20.387  0.00  0.00    +0.000 C 
ENDBRANCH  25  31
ENDBRANCH   1  26
TORSDOF 5
ENDMDL
