MODEL 1
REMARK VINA RESULT:      -8.4      0.000      0.000
REMARK  Name = 
REMARK  2 active torsions:
REMARK  status: ('A' for Active; 'I' for Inactive)
REMARK    1  A    between atoms: C_2  and  C_3
REMARK    2  A    between atoms: C_23  and  C_24
REMARK                            x       y       z     vdW  Elec       q    Type
REMARK                         _______ _______ _______ _____ _____    ______ ____
ROOT
ATOM      1  O   UNL     1       2.009   9.840  17.526  0.00  0.00    +0.000 OA
ATOM      2  C   UNL     1       1.777   9.186  18.537  0.00  0.00    +0.000 C 
ATOM      3  N   UNL     1       1.038   9.687  19.624  0.00  0.00    +0.000 N 
ATOM      4  C   UNL     1       0.802   8.905  20.828  0.00  0.00    +0.000 C 
ATOM      5  C   UNL     1       0.213   9.839  21.842  0.00  0.00    +0.000 C 
ATOM      6  N   UNL     1       0.471  11.171  21.329  0.00  0.00    +0.000 N 
ATOM      7  C   UNL     1      -0.593  12.007  21.691  0.00  0.00    +0.000 C 
ATOM      8  O   UNL     1      -0.873  12.406  22.805  0.00  0.00    +0.000 OA
ATOM      9  C   UNL     1      -1.477  12.052  20.532  0.00  0.00    +0.000 A 
ATOM     10  C   UNL     1      -2.808  12.452  20.547  0.00  0.00    +0.000 A 
ATOM     11  C   UNL     1      -3.536  12.180  19.396  0.00  0.00    +0.000 A 
ATOM     12  C   UNL     1      -2.922  11.543  18.297  0.00  0.00    +0.000 A 
ATOM     13  C   UNL     1      -1.565  11.164  18.315  0.00  0.00    +0.000 A 
ATOM     14  C   UNL     1      -0.838  11.415  19.462  0.00  0.00    +0.000 A 
ATOM     15  C   UNL     1       0.611  11.111  19.853  0.00  0.00    +0.000 C 
ENDROOT
BRANCH   2  16
ATOM     16  C   UNL     1       2.438   7.813  18.648  0.00  0.00    +0.000 A 
ATOM     17  C   UNL     1       3.409   7.425  17.701  0.00  0.00    +0.000 A 
ATOM     18  C   UNL     1       4.128   6.214  17.854  0.00  0.00    +0.000 A 
ATOM     19  C   UNL     1       3.881   5.392  18.939  0.00  0.00    +0.000 A 
ATOM     20  F   UNL     1       4.594   4.266  19.103  0.00  0.00    +0.000 F 
ATOM     21  C   UNL     1       2.894   5.740  19.847  0.00  0.00    +0.000 A 
ATOM     22  F   UNL     1       2.660   4.971  20.921  0.00  0.00    +0.000 F 
ATOM     23  C   UNL     1       2.142   6.906  19.675  0.00  0.00    +0.000 A 
ENDBRANCH   2  16
BRANCH  15  24
ATOM     24  C   UNL     1       1.560  12.263  19.276  0.00  0.00    +0.000 C 
ATOM     25  C   UNL     1       0.927  13.290  18.277  0.00  0.00    +0.000 C 
ATOM     26  C   UNL     1       0.244  14.508  18.910  0.00  0.00    +0.000 C 
ATOM     27  C   UNL     1       1.138  15.205  19.922  0.00  0.00    +0.000 C 
ATOM     28  C   UNL     1       1.651  14.219  20.960  0.00  0.00    +0.000 C 
ATOM     29  C   UNL     1       2.388  13.058  20.307  0.00  0.00    +0.000 C 
ENDBRANCH  15  24
TORSDOF 2
ENDMDL
MODEL 2
REMARK VINA RESULT:      -8.2      0.548      1.258
REMARK  Name = 
REMARK  2 active torsions:
REMARK  status: ('A' for Active; 'I' for Inactive)
REMARK    1  A    between atoms: C_2  and  C_3
REMARK    2  A    between atoms: C_23  and  C_24
REMARK                            x       y       z     vdW  Elec       q    Type
REMARK                         _______ _______ _______ _____ _____    ______ ____
ROOT
ATOM      1  O   UNL     1       2.007   9.882  17.507  0.00  0.00    +0.000 OA
ATOM      2  C   UNL     1       1.786   9.227  18.519  0.00  0.00    +0.000 C 
ATOM      3  N   UNL     1       1.046   9.721  19.609  0.00  0.00    +0.000 N 
ATOM      4  C   UNL     1       0.822   8.937  20.814  0.00  0.00    +0.000 C 
ATOM      5  C   UNL     1       0.229   9.866  21.830  0.00  0.00    +0.000 C 
ATOM      6  N   UNL     1       0.471  11.200  21.315  0.00  0.00    +0.000 N 
ATOM      7  C   UNL     1      -0.600  12.026  21.682  0.00  0.00    +0.000 C 
ATOM      8  O   UNL     1      -0.879  12.422  22.797  0.00  0.00    +0.000 OA
ATOM      9  C   UNL     1      -1.489  12.062  20.526  0.00  0.00    +0.000 A 
ATOM     10  C   UNL     1      -2.824  12.449  20.546  0.00  0.00    +0.000 A 
ATOM     11  C   UNL     1      -3.553  12.169  19.398  0.00  0.00    +0.000 A 
ATOM     12  C   UNL     1      -2.937  11.538  18.297  0.00  0.00    +0.000 A 
ATOM     13  C   UNL     1      -1.576  11.172  18.309  0.00  0.00    +0.000 A 
ATOM     14  C   UNL     1      -0.847  11.431  19.454  0.00  0.00    +0.000 A 
ATOM     15  C   UNL     1       0.606  11.141  19.839  0.00  0.00    +0.000 C 
ENDROOT
BRANCH   2  16
ATOM     16  C   UNL     1       2.461   7.861  18.628  0.00  0.00    +0.000 A 
ATOM     17  C   UNL     1       2.179   7.026  19.730  0.00  0.00    +0.000 A 
ATOM     18  C   UNL     1       2.690   5.707  19.792  0.00  0.00    +0.000 A 
ATOM     19  C   UNL     1       3.479   5.220  18.764  0.00  0.00    +0.000 A 
ATOM     20  F   UNL     1       3.927   3.955  18.806  0.00  0.00    +0.000 F 
ATOM     21  C   UNL     1       3.803   6.049  17.702  0.00  0.00    +0.000 A 
ATOM     22  F   UNL     1       4.543   5.586  16.684  0.00  0.00    +0.000 F 
ATOM     23  C   UNL     1       3.348   7.370  17.661  0.00  0.00    +0.000 A 
ENDBRANCH   2  16
BRANCH  15  24
ATOM     24  C   UNL     1       1.542  12.302  19.258  0.00  0.00    +0.000 C 
ATOM     25  C   UNL     1       0.892  13.329  18.269  0.00  0.00    +0.000 C 
ATOM     26  C   UNL     1       0.207  14.540  18.915  0.00  0.00    +0.000 C 
ATOM     27  C   UNL     1       1.106  15.238  19.921  0.00  0.00    +0.000 C 
ATOM     28  C   UNL     1       1.636  14.252  20.950  0.00  0.00    +0.000 C 
ATOM     29  C   UNL     1       2.374  13.099  20.285  0.00  0.00    +0.000 C 
ENDBRANCH  15  24
TORSDOF 2
ENDMDL
MODEL 3
REMARK VINA RESULT:      -7.8      2.584      4.396
REMARK  Name = 
REMARK  2 active torsions:
REMARK  status: ('A' for Active; 'I' for Inactive)
REMARK    1  A    between atoms: C_2  and  C_3
REMARK    2  A    between atoms: C_23  and  C_24
REMARK                            x       y       z     vdW  Elec       q    Type
REMARK                         _______ _______ _______ _____ _____    ______ ____
ROOT
ATOM      1  O   UNL     1       1.145  11.842  21.615  0.00  0.00    +0.000 OA
ATOM      2  C   UNL     1       0.461  11.478  20.665  0.00  0.00    +0.000 C 
ATOM      3  N   UNL     1      -0.797  12.030  20.366  0.00  0.00    +0.000 N 
ATOM      4  C   UNL     1      -1.606  11.561  19.251  0.00  0.00    +0.000 C 
ATOM      5  C   UNL     1      -2.957  12.192  19.400  0.00  0.00    +0.000 C 
ATOM      6  N   UNL     1      -2.997  12.693  20.761  0.00  0.00    +0.000 N 
ATOM      7  C   UNL     1      -3.757  13.869  20.787  0.00  0.00    +0.000 C 
ATOM      8  O   UNL     1      -4.958  13.975  20.631  0.00  0.00    +0.000 OA
ATOM      9  C   UNL     1      -2.798  14.965  20.726  0.00  0.00    +0.000 A 
ATOM     10  C   UNL     1      -3.092  16.276  20.369  0.00  0.00    +0.000 A 
ATOM     11  C   UNL     1      -1.999  17.099  20.129  0.00  0.00    +0.000 A 
ATOM     12  C   UNL     1      -0.687  16.598  20.258  0.00  0.00    +0.000 A 
ATOM     13  C   UNL     1      -0.428  15.265  20.635  0.00  0.00    +0.000 A 
ATOM     14  C   UNL     1      -1.509  14.434  20.859  0.00  0.00    +0.000 A 
ATOM     15  C   UNL     1      -1.613  12.953  21.230  0.00  0.00    +0.000 C 
ENDROOT
BRANCH   2  16
ATOM     16  C   UNL     1       0.967  10.284  19.858  0.00  0.00    +0.000 A 
ATOM     17  C   UNL     1       1.333  10.456  18.506  0.00  0.00    +0.000 A 
ATOM     18  C   UNL     1       1.924   9.397  17.774  0.00  0.00    +0.000 A 
ATOM     19  C   UNL     1       2.148   8.174  18.380  0.00  0.00    +0.000 A 
ATOM     20  F   UNL     1       2.746   7.187  17.695  0.00  0.00    +0.000 F 
ATOM     21  C   UNL     1       1.745   7.979  19.692  0.00  0.00    +0.000 A 
ATOM     22  F   UNL     1       1.979   6.809  20.305  0.00  0.00    +0.000 F 
ATOM     23  C   UNL     1       1.111   9.001  20.404  0.00  0.00    +0.000 A 
ENDBRANCH   2  16
BRANCH  15  24
ATOM     24  C   UNL     1      -1.460  12.799  22.816  0.00  0.00    +0.000 C 
ATOM     25  C   UNL     1      -1.319  14.112  23.660  0.00  0.00    +0.000 C 
ATOM     26  C   UNL     1      -2.633  14.772  24.097  0.00  0.00    +0.000 C 
ATOM     27  C   UNL     1      -3.575  13.785  24.765  0.00  0.00    +0.000 C 
ATOM     28  C   UNL     1      -3.801  12.568  23.882  0.00  0.00    +0.000 C 
ATOM     29  C   UNL     1      -2.486  11.890  23.525  0.00  0.00    +0.000 C 
ENDBRANCH  15  24
TORSDOF 2
ENDMDL
MODEL 4
REMARK VINA RESULT:      -7.7      7.894     10.659
REMARK  Name = 
REMARK  2 active torsions:
REMARK  status: ('A' for Active; 'I' for Inactive)
REMARK    1  A    between atoms: C_2  and  C_3
REMARK    2  A    between atoms: C_23  and  C_24
REMARK                            x       y       z     vdW  Elec       q    Type
REMARK                         _______ _______ _______ _____ _____    ______ ____
ROOT
ATOM      1  O   UNL     1       6.717  13.732  17.114  0.00  0.00    +0.000 OA
ATOM      2  C   UNL     1       6.393  14.516  18.000  0.00  0.00    +0.000 C 
ATOM      3  N   UNL     1       7.289  14.988  18.976  0.00  0.00    +0.000 N 
ATOM      4  C   UNL     1       6.875  15.893  20.037  0.00  0.00    +0.000 C 
ATOM      5  C   UNL     1       8.013  15.969  21.010  0.00  0.00    +0.000 C 
ATOM      6  N   UNL     1       8.872  14.847  20.680  0.00  0.00    +0.000 N 
ATOM      7  C   UNL     1      10.203  15.214  20.919  0.00  0.00    +0.000 C 
ATOM      8  O   UNL     1      10.734  15.405  21.996  0.00  0.00    +0.000 OA
ATOM      9  C   UNL     1      10.741  15.625  19.628  0.00  0.00    +0.000 A 
ATOM     10  C   UNL     1      11.883  16.393  19.437  0.00  0.00    +0.000 A 
ATOM     11  C   UNL     1      12.077  16.882  18.151  0.00  0.00    +0.000 A 
ATOM     12  C   UNL     1      11.151  16.586  17.128  0.00  0.00    +0.000 A 
ATOM     13  C   UNL     1      10.011  15.792  17.358  0.00  0.00    +0.000 A 
ATOM     14  C   UNL     1       9.801  15.315  18.637  0.00  0.00    +0.000 A 
ATOM     15  C   UNL     1       8.677  14.480  19.256  0.00  0.00    +0.000 C 
ENDROOT
BRANCH   2  16
ATOM     16  C   UNL     1       4.913  14.883  18.100  0.00  0.00    +0.000 A 
ATOM     17  C   UNL     1       4.076  14.180  18.992  0.00  0.00    +0.000 A 
ATOM     18  C   UNL     1       2.734  14.582  19.197  0.00  0.00    +0.000 A 
ATOM     19  C   UNL     1       2.225  15.675  18.518  0.00  0.00    +0.000 A 
ATOM     20  F   UNL     1       0.966  16.079  18.747  0.00  0.00    +0.000 F 
ATOM     21  C   UNL     1       3.024  16.341  17.603  0.00  0.00    +0.000 A 
ATOM     22  F   UNL     1       2.558  17.420  16.956  0.00  0.00    +0.000 F 
ATOM     23  C   UNL     1       4.332  15.917  17.353  0.00  0.00    +0.000 A 
ENDBRANCH   2  16
BRANCH  15  24
ATOM     24  C   UNL     1       8.962  12.930  18.974  0.00  0.00    +0.000 C 
ATOM     25  C   UNL     1       9.960  12.576  17.820  0.00  0.00    +0.000 C 
ATOM     26  C   UNL     1      11.443  12.527  18.207  0.00  0.00    +0.000 C 
ATOM     27  C   UNL     1      11.687  11.660  19.431  0.00  0.00    +0.000 C 
ATOM     28  C   UNL     1      10.797  12.092  20.586  0.00  0.00    +0.000 C 
ATOM     29  C   UNL     1       9.327  12.061  20.196  0.00  0.00    +0.000 C 
ENDBRANCH  15  24
TORSDOF 2
ENDMDL
MODEL 5
REMARK VINA RESULT:      -7.6      7.692     10.506
REMARK  Name = 
REMARK  2 active torsions:
REMARK  status: ('A' for Active; 'I' for Inactive)
REMARK    1  A    between atoms: C_2  and  C_3
REMARK    2  A    between atoms: C_23  and  C_24
REMARK                            x       y       z     vdW  Elec       q    Type
REMARK                         _______ _______ _______ _____ _____    ______ ____
ROOT
ATOM      1  O   UNL     1       6.604  13.862  17.292  0.00  0.00    +0.000 OA
ATOM      2  C   UNL     1       6.337  14.634  18.206  0.00  0.00    +0.000 C 
ATOM      3  N   UNL     1       7.292  15.088  19.133  0.00  0.00    +0.000 N 
ATOM      4  C   UNL     1       6.946  15.980  20.230  0.00  0.00    +0.000 C 
ATOM      5  C   UNL     1       8.140  16.037  21.135  0.00  0.00    +0.000 C 
ATOM      6  N   UNL     1       8.972  14.916  20.739  0.00  0.00    +0.000 N 
ATOM      7  C   UNL     1      10.317  15.273  20.904  0.00  0.00    +0.000 C 
ATOM      8  O   UNL     1      10.912  15.446  21.950  0.00  0.00    +0.000 OA
ATOM      9  C   UNL     1      10.780  15.699  19.589  0.00  0.00    +0.000 A 
ATOM     10  C   UNL     1      11.913  16.465  19.341  0.00  0.00    +0.000 A 
ATOM     11  C   UNL     1      12.033  16.971  18.054  0.00  0.00    +0.000 A 
ATOM     12  C   UNL     1      11.047  16.694  17.083  0.00  0.00    +0.000 A 
ATOM     13  C   UNL     1       9.918  15.902  17.368  0.00  0.00    +0.000 A 
ATOM     14  C   UNL     1       9.781  15.408  18.652  0.00  0.00    +0.000 A 
ATOM     15  C   UNL     1       8.692  14.570  19.324  0.00  0.00    +0.000 C 
ENDROOT
BRANCH   2  16
ATOM     16  C   UNL     1       4.868  15.007  18.398  0.00  0.00    +0.000 A 
ATOM     17  C   UNL     1       4.349  16.158  17.768  0.00  0.00    +0.000 A 
ATOM     18  C   UNL     1       2.965  16.455  17.826  0.00  0.00    +0.000 A 
ATOM     19  C   UNL     1       2.103  15.615  18.507  0.00  0.00    +0.000 A 
ATOM     20  F   UNL     1       0.786  15.878  18.524  0.00  0.00    +0.000 F 
ATOM     21  C   UNL     1       2.610  14.510  19.172  0.00  0.00    +0.000 A 
ATOM     22  F   UNL     1       1.786  13.669  19.815  0.00  0.00    +0.000 F 
ATOM     23  C   UNL     1       3.981  14.240  19.167  0.00  0.00    +0.000 A 
ENDBRANCH   2  16
BRANCH  15  24
ATOM     24  C   UNL     1       8.950  13.023  19.004  0.00  0.00    +0.000 C 
ATOM     25  C   UNL     1       9.923  12.681  17.825  0.00  0.00    +0.000 C 
ATOM     26  C   UNL     1      11.412  12.603  18.185  0.00  0.00    +0.000 C 
ATOM     27  C   UNL     1      11.666  11.707  19.385  0.00  0.00    +0.000 C 
ATOM     28  C   UNL     1      10.802  12.126  20.565  0.00  0.00    +0.000 C 
ATOM     29  C   UNL     1       9.324  12.123  20.200  0.00  0.00    +0.000 C 
ENDBRANCH  15  24
TORSDOF 2
ENDMDL
MODEL 6
REMARK VINA RESULT:      -7.6      4.104      6.886
REMARK  Name = 
REMARK  2 active torsions:
REMARK  status: ('A' for Active; 'I' for Inactive)
REMARK    1  A    between atoms: C_2  and  C_3
REMARK    2  A    between atoms: C_23  and  C_24
REMARK                            x       y       z     vdW  Elec       q    Type
REMARK                         _______ _______ _______ _____ _____    ______ ____
ROOT
ATOM      1  O   UNL     1      -1.893  13.693  23.372  0.00  0.00    +0.000 OA
ATOM      2  C   UNL     1      -2.094  12.983  22.393  0.00  0.00    +0.000 C 
ATOM      3  N   UNL     1      -3.205  13.137  21.545  0.00  0.00    +0.000 N 
ATOM      4  C   UNL     1      -3.441  12.262  20.407  0.00  0.00    +0.000 C 
ATOM      5  C   UNL     1      -4.821  12.563  19.907  0.00  0.00    +0.000 C 
ATOM      6  N   UNL     1      -5.458  13.314  20.974  0.00  0.00    +0.000 N 
ATOM      7  C   UNL     1      -6.333  14.248  20.406  0.00  0.00    +0.000 C 
ATOM      8  O   UNL     1      -7.382  14.025  19.832  0.00  0.00    +0.000 OA
ATOM      9  C   UNL     1      -5.598  15.507  20.360  0.00  0.00    +0.000 A 
ATOM     10  C   UNL     1      -5.921  16.602  19.568  0.00  0.00    +0.000 A 
ATOM     11  C   UNL     1      -4.955  17.596  19.484  0.00  0.00    +0.000 A 
ATOM     12  C   UNL     1      -3.736  17.467  20.183  0.00  0.00    +0.000 A 
ATOM     13  C   UNL     1      -3.450  16.347  20.988  0.00  0.00    +0.000 A 
ATOM     14  C   UNL     1      -4.398  15.345  21.064  0.00  0.00    +0.000 A 
ATOM     15  C   UNL     1      -4.418  13.995  21.784  0.00  0.00    +0.000 C 
ENDROOT
BRANCH   2  16
ATOM     16  C   UNL     1      -1.145  11.804  22.179  0.00  0.00    +0.000 A 
ATOM     17  C   UNL     1      -1.165  10.716  23.077  0.00  0.00    +0.000 A 
ATOM     18  C   UNL     1      -0.389   9.558  22.831  0.00  0.00    +0.000 A 
ATOM     19  C   UNL     1       0.405   9.481  21.700  0.00  0.00    +0.000 A 
ATOM     20  F   UNL     1       1.106   8.365  21.449  0.00  0.00    +0.000 F 
ATOM     21  C   UNL     1       0.470  10.564  20.839  0.00  0.00    +0.000 A 
ATOM     22  F   UNL     1       1.213  10.498  19.723  0.00  0.00    +0.000 F 
ATOM     23  C   UNL     1      -0.249  11.733  21.103  0.00  0.00    +0.000 A 
ENDBRANCH   2  16
BRANCH  15  24
ATOM     24  C   UNL     1      -4.869  14.219  23.303  0.00  0.00    +0.000 C 
ATOM     25  C   UNL     1      -5.776  15.459  23.613  0.00  0.00    +0.000 C 
ATOM     26  C   UNL     1      -7.285  15.243  23.453  0.00  0.00    +0.000 C 
ATOM     27  C   UNL     1      -7.770  14.008  24.195  0.00  0.00    +0.000 C 
ATOM     28  C   UNL     1      -6.960  12.784  23.795  0.00  0.00    +0.000 C 
ATOM     29  C   UNL     1      -5.472  13.000  24.033  0.00  0.00    +0.000 C 
ENDBRANCH  15  24
TORSDOF 2
ENDMDL
MODEL 7
REMARK VINA RESULT:      -7.5      4.825      8.298
REMARK  Name = 
REMARK  2 active torsions:
REMARK  status: ('A' for Active; 'I' for Inactive)
REMARK    1  A    between atoms: C_2  and  C_3
REMARK    2  A    between atoms: C_23  and  C_24
REMARK                            x       y       z     vdW  Elec       q    Type
REMARK                         _______ _______ _______ _____ _____    ______ ____
ROOT
ATOM      1  O   UNL     1      -1.826  14.583  23.459  0.00  0.00    +0.000 OA
ATOM      2  C   UNL     1      -2.759  14.227  22.748  0.00  0.00    +0.000 C 
ATOM      3  N   UNL     1      -2.609  13.331  21.674  0.00  0.00    +0.000 N 
ATOM      4  C   UNL     1      -3.724  12.946  20.823  0.00  0.00    +0.000 C 
ATOM      5  C   UNL     1      -3.144  12.198  19.661  0.00  0.00    +0.000 C 
ATOM      6  N   UNL     1      -1.724  12.493  19.688  0.00  0.00    +0.000 N 
ATOM      7  C   UNL     1      -1.021  11.369  19.235  0.00  0.00    +0.000 C 
ATOM      8  O   UNL     1      -0.986  10.926  18.104  0.00  0.00    +0.000 OA
ATOM      9  C   UNL     1      -0.595  10.657  20.434  0.00  0.00    +0.000 A 
ATOM     10  C   UNL     1      -0.190   9.327  20.482  0.00  0.00    +0.000 A 
ATOM     11  C   UNL     1      -0.071   8.776  21.751  0.00  0.00    +0.000 A 
ATOM     12  C   UNL     1      -0.343   9.554  22.896  0.00  0.00    +0.000 A 
ATOM     13  C   UNL     1      -0.738  10.904  22.807  0.00  0.00    +0.000 A 
ATOM     14  C   UNL     1      -0.877  11.456  21.548  0.00  0.00    +0.000 A 
ATOM     15  C   UNL     1      -1.320  12.841  21.072  0.00  0.00    +0.000 C 
ENDROOT
BRANCH   2  16
ATOM     16  C   UNL     1      -4.111  14.898  22.981  0.00  0.00    +0.000 A 
ATOM     17  C   UNL     1      -4.377  16.157  22.404  0.00  0.00    +0.000 A 
ATOM     18  C   UNL     1      -5.664  16.742  22.498  0.00  0.00    +0.000 A 
ATOM     19  C   UNL     1      -6.680  16.080  23.165  0.00  0.00    +0.000 A 
ATOM     20  F   UNL     1      -7.909  16.618  23.216  0.00  0.00    +0.000 F 
ATOM     21  C   UNL     1      -6.415  14.866  23.778  0.00  0.00    +0.000 A 
ATOM     22  F   UNL     1      -7.394  14.197  24.405  0.00  0.00    +0.000 F 
ATOM     23  C   UNL     1      -5.134  14.309  23.738  0.00  0.00    +0.000 A 
ENDBRANCH   2  16
BRANCH  15  24
ATOM     24  C   UNL     1      -0.066  13.835  21.118  0.00  0.00    +0.000 C 
ATOM     25  C   UNL     1       1.360  13.210  20.946  0.00  0.00    +0.000 C 
ATOM     26  C   UNL     1       1.852  13.047  19.503  0.00  0.00    +0.000 C 
ATOM     27  C   UNL     1       1.715  14.331  18.703  0.00  0.00    +0.000 C 
ATOM     28  C   UNL     1       0.293  14.866  18.777  0.00  0.00    +0.000 C 
ATOM     29  C   UNL     1      -0.143  15.087  20.218  0.00  0.00    +0.000 C 
ENDBRANCH  15  24
TORSDOF 2
ENDMDL
MODEL 8
REMARK VINA RESULT:      -7.5      7.530     10.491
REMARK  Name = 
REMARK  2 active torsions:
REMARK  status: ('A' for Active; 'I' for Inactive)
REMARK    1  A    between atoms: C_2  and  C_3
REMARK    2  A    between atoms: C_23  and  C_24
REMARK                            x       y       z     vdW  Elec       q    Type
REMARK                         _______ _______ _______ _____ _____    ______ ____
ROOT
ATOM      1  O   UNL     1       6.142  16.580  20.625  0.00  0.00    +0.000 OA
ATOM      2  C   UNL     1       5.809  15.834  19.711  0.00  0.00    +0.000 C 
ATOM      3  N   UNL     1       6.712  14.996  19.034  0.00  0.00    +0.000 N 
ATOM      4  C   UNL     1       6.301  14.141  17.931  0.00  0.00    +0.000 C 
ATOM      5  C   UNL     1       7.555  13.603  17.309  0.00  0.00    +0.000 C 
ATOM      6  N   UNL     1       8.624  14.438  17.824  0.00  0.00    +0.000 N 
ATOM      7  C   UNL     1       9.776  13.654  17.970  0.00  0.00    +0.000 C 
ATOM      8  O   UNL     1      10.465  13.181  17.087  0.00  0.00    +0.000 OA
ATOM      9  C   UNL     1       9.812  13.257  19.373  0.00  0.00    +0.000 A 
ATOM     10  C   UNL     1      10.554  12.203  19.894  0.00  0.00    +0.000 A 
ATOM     11  C   UNL     1      10.251  11.836  21.199  0.00  0.00    +0.000 A 
ATOM     12  C   UNL     1       9.251  12.523  21.920  0.00  0.00    +0.000 A 
ATOM     13  C   UNL     1       8.529  13.595  21.361  0.00  0.00    +0.000 A 
ATOM     14  C   UNL     1       8.811  13.956  20.057  0.00  0.00    +0.000 A 
ATOM     15  C   UNL     1       8.214  15.015  19.127  0.00  0.00    +0.000 C 
ENDROOT
BRANCH   2  16
ATOM     16  C   UNL     1       4.364  15.930  19.222  0.00  0.00    +0.000 A 
ATOM     17  C   UNL     1       3.332  15.321  19.966  0.00  0.00    +0.000 A 
ATOM     18  C   UNL     1       1.974  15.502  19.606  0.00  0.00    +0.000 A 
ATOM     19  C   UNL     1       1.644  16.282  18.511  0.00  0.00    +0.000 A 
ATOM     20  F   UNL     1       0.355  16.485  18.198  0.00  0.00    +0.000 F 
ATOM     21  C   UNL     1       2.654  16.842  17.745  0.00  0.00    +0.000 A 
ATOM     22  F   UNL     1       2.353  17.623  16.696  0.00  0.00    +0.000 F 
ATOM     23  C   UNL     1       3.997  16.623  18.060  0.00  0.00    +0.000 A 
ENDBRANCH   2  16
BRANCH  15  24
ATOM     24  C   UNL     1       8.912  16.425  19.425  0.00  0.00    +0.000 C 
ATOM     25  C   UNL     1      10.276  16.409  20.196  0.00  0.00    +0.000 C 
ATOM     26  C   UNL     1      11.532  16.245  19.333  0.00  0.00    +0.000 C 
ATOM     27  C   UNL     1      11.566  17.230  18.176  0.00  0.00    +0.000 C 
ATOM     28  C   UNL     1      10.284  17.151  17.361  0.00  0.00    +0.000 C 
ATOM     29  C   UNL     1       9.058  17.390  18.229  0.00  0.00    +0.000 C 
ENDBRANCH  15  24
TORSDOF 2
ENDMDL
MODEL 9
REMARK VINA RESULT:      -7.4      4.178      6.939
REMARK  Name = 
REMARK  2 active torsions:
REMARK  status: ('A' for Active; 'I' for Inactive)
REMARK    1  A    between atoms: C_2  and  C_3
REMARK    2  A    between atoms: C_23  and  C_24
REMARK                            x       y       z     vdW  Elec       q    Type
REMARK                         _______ _______ _______ _____ _____    ______ ____
ROOT
ATOM      1  O   UNL     1      -2.051  13.779  23.296  0.00  0.00    +0.000 OA
ATOM      2  C   UNL     1      -2.250  13.045  22.334  0.00  0.00    +0.000 C 
ATOM      3  N   UNL     1      -3.375  13.159  21.499  0.00  0.00    +0.000 N 
ATOM      4  C   UNL     1      -3.608  12.257  20.381  0.00  0.00    +0.000 C 
ATOM      5  C   UNL     1      -5.002  12.520  19.895  0.00  0.00    +0.000 C 
ATOM      6  N   UNL     1      -5.639  13.278  20.955  0.00  0.00    +0.000 N 
ATOM      7  C   UNL     1      -6.541  14.183  20.382  0.00  0.00    +0.000 C 
ATOM      8  O   UNL     1      -7.593  13.926  19.827  0.00  0.00    +0.000 OA
ATOM      9  C   UNL     1      -5.833  15.455  20.301  0.00  0.00    +0.000 A 
ATOM     10  C   UNL     1      -6.190  16.527  19.491  0.00  0.00    +0.000 A 
ATOM     11  C   UNL     1      -5.246  17.539  19.375  0.00  0.00    +0.000 A 
ATOM     12  C   UNL     1      -4.015  17.449  20.059  0.00  0.00    +0.000 A 
ATOM     13  C   UNL     1      -3.695  16.351  20.882  0.00  0.00    +0.000 A 
ATOM     14  C   UNL     1      -4.621  15.332  20.990  0.00  0.00    +0.000 A 
ATOM     15  C   UNL     1      -4.603  13.996  21.737  0.00  0.00    +0.000 C 
ENDROOT
BRANCH   2  16
ATOM     16  C   UNL     1      -1.279  11.883  22.130  0.00  0.00    +0.000 A 
ATOM     17  C   UNL     1      -0.421  11.875  21.010  0.00  0.00    +0.000 A 
ATOM     18  C   UNL     1       0.574  10.877  20.864  0.00  0.00    +0.000 A 
ATOM     19  C   UNL     1       0.714   9.892  21.825  0.00  0.00    +0.000 A 
ATOM     20  F   UNL     1       1.685   8.973  21.706  0.00  0.00    +0.000 F 
ATOM     21  C   UNL     1      -0.157   9.862  22.903  0.00  0.00    +0.000 A 
ATOM     22  F   UNL     1      -0.019   8.930  23.859  0.00  0.00    +0.000 F 
ATOM     23  C   UNL     1      -1.177  10.809  23.026  0.00  0.00    +0.000 A 
ENDBRANCH   2  16
BRANCH  15  24
ATOM     24  C   UNL     1      -5.038  14.242  23.258  0.00  0.00    +0.000 C 
ATOM     25  C   UNL     1      -5.977  15.460  23.554  0.00  0.00    +0.000 C 
ATOM     26  C   UNL     1      -7.481  15.195  23.423  0.00  0.00    +0.000 C 
ATOM     27  C   UNL     1      -7.917  13.964  24.199  0.00  0.00    +0.000 C 
ATOM     28  C   UNL     1      -7.076  12.756  23.814  0.00  0.00    +0.000 C 
ATOM     29  C   UNL     1      -5.593  13.022  24.024  0.00  0.00    +0.000 C 
ENDBRANCH  15  24
TORSDOF 2
ENDMDL
