MODEL 1
REMARK VINA RESULT:      -7.7      0.000      0.000
REMARK  Name = 
REMARK  4 active torsions:
REMARK  status: ('A' for Active; 'I' for Inactive)
REMARK    1  A    between atoms: C_2  and  C_12
REMARK    2  A    between atoms: N_3  and  C_4
REMARK    3  A    between atoms: C_4  and  C_5
REMARK    4  A    between atoms: C_5  and  N_6
REMARK                            x       y       z     vdW  Elec       q    Type
REMARK                         _______ _______ _______ _____ _____    ______ ____
ROOT
ATOM      1  O   UNL     1       5.887   4.076  19.254  0.00  0.00    +0.000 OA
ATOM      2  C   UNL     1       5.491   4.832  18.372  0.00  0.00    +0.000 C 
ATOM      3  N   UNL     1       4.377   5.625  18.513  0.00  0.00    +0.000 N 
ATOM      4  H   UNL     1       4.244   6.385  17.847  0.00  0.00    +0.000 HD
ENDROOT
BRANCH   2   5
ATOM      5  C   UNL     1       6.171   4.900  17.049  0.00  0.00    +0.000 A 
ATOM      6  C   UNL     1       5.761   3.999  16.141  0.00  0.00    +0.000 A 
ATOM      7  C   UNL     1       6.253   4.050  14.776  0.00  0.00    +0.000 A 
ATOM      8  C   UNL     1       5.766   3.197  13.787  0.00  0.00    +0.000 A 
ATOM      9  C   UNL     1       6.219   3.339  12.474  0.00  0.00    +0.000 A 
ATOM     10 BR   UNL     1       5.528   2.212  11.123  0.00  0.00    +0.000 Br
ATOM     11  C   UNL     1       7.164   4.315  12.144  0.00  0.00    +0.000 A 
ATOM     12  C   UNL     1       7.664   5.159  13.139  0.00  0.00    +0.000 A 
ATOM     13  C   UNL     1       7.196   5.016  14.440  0.00  0.00    +0.000 A 
ATOM     14  O   UNL     1       7.686   5.909  15.412  0.00  0.00    +0.000 OA
ATOM     15  C   UNL     1       7.186   5.918  16.711  0.00  0.00    +0.000 A 
ATOM     16  O   UNL     1       7.573   6.744  17.535  0.00  0.00    +0.000 OA
ENDBRANCH   2   5
BRANCH   3  17
ATOM     17  C   UNL     1       3.662   5.671  19.773  0.00  0.00    +0.000 C 
BRANCH  17  18
ATOM     18  C   UNL     1       2.216   5.155  19.655  0.00  0.00    +0.000 C 
BRANCH  18  19
ATOM     19  N   UNL     1       1.914   4.025  20.555  0.00  0.00    +0.000 NA
ATOM     20  C   UNL     1       2.974   2.991  20.502  0.00  0.00    +0.000 C 
ATOM     21  C   UNL     1       2.953   2.129  19.224  0.00  0.00    +0.000 C 
ATOM     22  O   UNL     1       1.661   1.559  18.974  0.00  0.00    +0.000 OA
ATOM     23  C   UNL     1       0.648   2.572  18.940  0.00  0.00    +0.000 C 
ATOM     24  C   UNL     1       0.628   3.358  20.259  0.00  0.00    +0.000 C 
ENDBRANCH  18  19
ENDBRANCH  17  18
ENDBRANCH   3  17
TORSDOF 4
ENDMDL
MODEL 2
REMARK VINA RESULT:      -7.5      0.846      1.070
REMARK  Name = 
REMARK  4 active torsions:
REMARK  status: ('A' for Active; 'I' for Inactive)
REMARK    1  A    between atoms: C_2  and  C_12
REMARK    2  A    between atoms: N_3  and  C_4
REMARK    3  A    between atoms: C_4  and  C_5
REMARK    4  A    between atoms: C_5  and  N_6
REMARK                            x       y       z     vdW  Elec       q    Type
REMARK                         _______ _______ _______ _____ _____    ______ ____
ROOT
ATOM      1  O   UNL     1       5.336   5.172  19.367  0.00  0.00    +0.000 OA
ATOM      2  C   UNL     1       4.972   5.626  18.285  0.00  0.00    +0.000 C 
ATOM      3  N   UNL     1       3.777   6.282  18.114  0.00  0.00    +0.000 N 
ATOM      4  H   UNL     1       3.649   6.827  17.262  0.00  0.00    +0.000 HD
ENDROOT
BRANCH   2   5
ATOM      5  C   UNL     1       5.792   5.442  17.056  0.00  0.00    +0.000 A 
ATOM      6  C   UNL     1       5.308   4.564  16.163  0.00  0.00    +0.000 A 
ATOM      7  C   UNL     1       5.947   4.397  14.870  0.00  0.00    +0.000 A 
ATOM      8  C   UNL     1       5.406   3.574  13.884  0.00  0.00    +0.000 A 
ATOM      9  C   UNL     1       6.020   3.508  12.631  0.00  0.00    +0.000 A 
ATOM     10 BR   UNL     1       5.263   2.426  11.278  0.00  0.00    +0.000 Br
ATOM     11  C   UNL     1       7.175   4.246  12.360  0.00  0.00    +0.000 A 
ATOM     12  C   UNL     1       7.726   5.059  13.354  0.00  0.00    +0.000 A 
ATOM     13  C   UNL     1       7.099   5.126  14.593  0.00  0.00    +0.000 A 
ATOM     14  O   UNL     1       7.653   5.986  15.560  0.00  0.00    +0.000 OA
ATOM     15  C   UNL     1       7.026   6.207  16.784  0.00  0.00    +0.000 A 
ATOM     16  O   UNL     1       7.482   7.010  17.595  0.00  0.00    +0.000 OA
ENDBRANCH   2   5
BRANCH   3  17
ATOM     17  C   UNL     1       2.919   6.554  19.250  0.00  0.00    +0.000 C 
BRANCH  17  18
ATOM     18  C   UNL     1       2.542   5.281  20.028  0.00  0.00    +0.000 C 
BRANCH  18  19
ATOM     19  N   UNL     1       1.356   4.585  19.489  0.00  0.00    +0.000 NA
ATOM     20  C   UNL     1       0.902   3.506  20.397  0.00  0.00    +0.000 C 
ATOM     21  C   UNL     1       1.792   2.248  20.379  0.00  0.00    +0.000 C 
ATOM     22  O   UNL     1       2.004   1.751  19.051  0.00  0.00    +0.000 OA
ATOM     23  C   UNL     1       2.526   2.774  18.194  0.00  0.00    +0.000 C 
ATOM     24  C   UNL     1       1.577   3.981  18.157  0.00  0.00    +0.000 C 
ENDBRANCH  18  19
ENDBRANCH  17  18
ENDBRANCH   3  17
TORSDOF 4
ENDMDL
MODEL 3
REMARK VINA RESULT:      -7.2      0.860      1.216
REMARK  Name = 
REMARK  4 active torsions:
REMARK  status: ('A' for Active; 'I' for Inactive)
REMARK    1  A    between atoms: C_2  and  C_12
REMARK    2  A    between atoms: N_3  and  C_4
REMARK    3  A    between atoms: C_4  and  C_5
REMARK    4  A    between atoms: C_5  and  N_6
REMARK                            x       y       z     vdW  Elec       q    Type
REMARK                         _______ _______ _______ _____ _____    ______ ____
ROOT
ATOM      1  O   UNL     1       5.627   5.537  19.332  0.00  0.00    +0.000 OA
ATOM      2  C   UNL     1       5.132   5.760  18.231  0.00  0.00    +0.000 C 
ATOM      3  N   UNL     1       3.839   6.196  18.067  0.00  0.00    +0.000 N 
ATOM      4  H   UNL     1       3.575   6.579  17.160  0.00  0.00    +0.000 HD
ENDROOT
BRANCH   2   5
ATOM      5  C   UNL     1       5.897   5.516  16.977  0.00  0.00    +0.000 A 
ATOM      6  C   UNL     1       5.326   4.666  16.107  0.00  0.00    +0.000 A 
ATOM      7  C   UNL     1       5.909   4.451  14.795  0.00  0.00    +0.000 A 
ATOM      8  C   UNL     1       5.283   3.660  13.834  0.00  0.00    +0.000 A 
ATOM      9  C   UNL     1       5.849   3.547  12.562  0.00  0.00    +0.000 A 
ATOM     10 BR   UNL     1       4.978   2.509  11.243  0.00  0.00    +0.000 Br
ATOM     11  C   UNL     1       7.041   4.205  12.248  0.00  0.00    +0.000 A 
ATOM     12  C   UNL     1       7.677   4.985  13.217  0.00  0.00    +0.000 A 
ATOM     13  C   UNL     1       7.097   5.100  14.475  0.00  0.00    +0.000 A 
ATOM     14  O   UNL     1       7.739   5.927  15.416  0.00  0.00    +0.000 OA
ATOM     15  C   UNL     1       7.169   6.196  16.658  0.00  0.00    +0.000 A 
ATOM     16  O   UNL     1       7.703   6.971  17.448  0.00  0.00    +0.000 OA
ENDBRANCH   2   5
BRANCH   3  17
ATOM     17  C   UNL     1       3.016   6.507  19.220  0.00  0.00    +0.000 C 
BRANCH  17  18
ATOM     18  C   UNL     1       2.157   5.314  19.675  0.00  0.00    +0.000 C 
BRANCH  18  19
ATOM     19  N   UNL     1       2.763   4.000  19.381  0.00  0.00    +0.000 NA
ATOM     20  C   UNL     1       1.989   3.263  18.355  0.00  0.00    +0.000 C 
ATOM     21  C   UNL     1       0.664   2.666  18.870  0.00  0.00    +0.000 C 
ATOM     22  O   UNL     1       0.849   1.872  20.049  0.00  0.00    +0.000 OA
ATOM     23  C   UNL     1       1.521   2.615  21.073  0.00  0.00    +0.000 C 
ATOM     24  C   UNL     1       2.879   3.122  20.566  0.00  0.00    +0.000 C 
ENDBRANCH  18  19
ENDBRANCH  17  18
ENDBRANCH   3  17
TORSDOF 4
ENDMDL
MODEL 4
REMARK VINA RESULT:      -7.2      1.044      1.044
REMARK  Name = 
REMARK  4 active torsions:
REMARK  status: ('A' for Active; 'I' for Inactive)
REMARK    1  A    between atoms: C_2  and  C_12
REMARK    2  A    between atoms: N_3  and  C_4
REMARK    3  A    between atoms: C_4  and  C_5
REMARK    4  A    between atoms: C_5  and  N_6
REMARK                            x       y       z     vdW  Elec       q    Type
REMARK                         _______ _______ _______ _____ _____    ______ ____
ROOT
ATOM      1  O   UNL     1       4.164   7.351  17.681  0.00  0.00    +0.000 OA
ATOM      2  C   UNL     1       4.711   6.252  17.695  0.00  0.00    +0.000 C 
ATOM      3  N   UNL     1       4.592   5.371  18.743  0.00  0.00    +0.000 N 
ATOM      4  H   UNL     1       4.874   4.404  18.589  0.00  0.00    +0.000 HD
ENDROOT
BRANCH   2   5
ATOM      5  C   UNL     1       5.600   5.818  16.582  0.00  0.00    +0.000 A 
ATOM      6  C   UNL     1       5.064   4.933  15.725  0.00  0.00    +0.000 A 
ATOM      7  C   UNL     1       5.783   4.536  14.528  0.00  0.00    +0.000 A 
ATOM      8  C   UNL     1       5.209   3.705  13.568  0.00  0.00    +0.000 A 
ATOM      9  C   UNL     1       5.917   3.415  12.399  0.00  0.00    +0.000 A 
ATOM     10 BR   UNL     1       5.122   2.323  11.076  0.00  0.00    +0.000 Br
ATOM     11  C   UNL     1       7.196   3.937  12.188  0.00  0.00    +0.000 A 
ATOM     12  C   UNL     1       7.777   4.757  13.158  0.00  0.00    +0.000 A 
ATOM     13  C   UNL     1       7.058   5.049  14.312  0.00  0.00    +0.000 A 
ATOM     14  O   UNL     1       7.654   5.912  15.251  0.00  0.00    +0.000 OA
ATOM     15  C   UNL     1       6.961   6.353  16.376  0.00  0.00    +0.000 A 
ATOM     16  O   UNL     1       7.464   7.159  17.156  0.00  0.00    +0.000 OA
ENDBRANCH   2   5
BRANCH   3  17
ATOM     17  C   UNL     1       3.719   5.672  19.861  0.00  0.00    +0.000 C 
BRANCH  17  18
ATOM     18  C   UNL     1       2.286   5.150  19.652  0.00  0.00    +0.000 C 
BRANCH  18  19
ATOM     19  N   UNL     1       1.937   4.010  20.522  0.00  0.00    +0.000 NA
ATOM     20  C   UNL     1       3.028   3.008  20.566  0.00  0.00    +0.000 C 
ATOM     21  C   UNL     1       3.149   2.148  19.292  0.00  0.00    +0.000 C 
ATOM     22  O   UNL     1       1.902   1.541  18.927  0.00  0.00    +0.000 OA
ATOM     23  C   UNL     1       0.867   2.522  18.800  0.00  0.00    +0.000 C 
ATOM     24  C   UNL     1       0.703   3.305  20.111  0.00  0.00    +0.000 C 
ENDBRANCH  18  19
ENDBRANCH  17  18
ENDBRANCH   3  17
TORSDOF 4
ENDMDL
MODEL 5
REMARK VINA RESULT:      -7.2      5.117      8.132
REMARK  Name = 
REMARK  4 active torsions:
REMARK  status: ('A' for Active; 'I' for Inactive)
REMARK    1  A    between atoms: C_2  and  C_12
REMARK    2  A    between atoms: N_3  and  C_4
REMARK    3  A    between atoms: C_4  and  C_5
REMARK    4  A    between atoms: C_5  and  N_6
REMARK                            x       y       z     vdW  Elec       q    Type
REMARK                         _______ _______ _______ _____ _____    ______ ____
ROOT
ATOM      1  O   UNL     1       3.418   5.815  20.075  0.00  0.00    +0.000 OA
ATOM      2  C   UNL     1       2.787   6.173  19.084  0.00  0.00    +0.000 C 
ATOM      3  N   UNL     1       2.622   5.378  17.975  0.00  0.00    +0.000 N 
ATOM      4  H   UNL     1       1.904   5.642  17.302  0.00  0.00    +0.000 HD
ENDROOT
BRANCH   2   5
ATOM      5  C   UNL     1       2.195   7.537  18.997  0.00  0.00    +0.000 A 
ATOM      6  C   UNL     1       1.424   7.900  20.035  0.00  0.00    +0.000 A 
ATOM      7  C   UNL     1       0.900   9.251  20.128  0.00  0.00    +0.000 A 
ATOM      8  C   UNL     1       0.189   9.688  21.244  0.00  0.00    +0.000 A 
ATOM      9  C   UNL     1      -0.228  11.019  21.315  0.00  0.00    +0.000 A 
ATOM     10 BR   UNL     1      -1.155  11.625  22.847  0.00  0.00    +0.000 Br
ATOM     11  C   UNL     1       0.049  11.913  20.277  0.00  0.00    +0.000 A 
ATOM     12  C   UNL     1       0.749  11.470  19.151  0.00  0.00    +0.000 A 
ATOM     13  C   UNL     1       1.169  10.146  19.098  0.00  0.00    +0.000 A 
ATOM     14  O   UNL     1       1.909   9.741  17.970  0.00  0.00    +0.000 OA
ATOM     15  C   UNL     1       2.471   8.470  17.886  0.00  0.00    +0.000 A 
ATOM     16  O   UNL     1       3.170   8.147  16.929  0.00  0.00    +0.000 OA
ENDBRANCH   2   5
BRANCH   3  17
ATOM     17  C   UNL     1       3.119   4.017  17.966  0.00  0.00    +0.000 C 
BRANCH  17  18
ATOM     18  C   UNL     1       4.411   3.862  17.143  0.00  0.00    +0.000 C 
BRANCH  18  19
ATOM     19  N   UNL     1       5.037   5.147  16.775  0.00  0.00    +0.000 NA
ATOM     20  C   UNL     1       5.454   5.159  15.353  0.00  0.00    +0.000 C 
ATOM     21  C   UNL     1       6.718   4.327  15.058  0.00  0.00    +0.000 C 
ATOM     22  O   UNL     1       7.809   4.672  15.921  0.00  0.00    +0.000 OA
ATOM     23  C   UNL     1       7.429   4.577  17.299  0.00  0.00    +0.000 C 
ATOM     24  C   UNL     1       6.225   5.484  17.589  0.00  0.00    +0.000 C 
ENDBRANCH  18  19
ENDBRANCH  17  18
ENDBRANCH   3  17
TORSDOF 4
ENDMDL
MODEL 6
REMARK VINA RESULT:      -7.1      4.803      8.043
REMARK  Name = 
REMARK  4 active torsions:
REMARK  status: ('A' for Active; 'I' for Inactive)
REMARK    1  A    between atoms: C_2  and  C_12
REMARK    2  A    between atoms: N_3  and  C_4
REMARK    3  A    between atoms: C_4  and  C_5
REMARK    4  A    between atoms: C_5  and  N_6
REMARK                            x       y       z     vdW  Elec       q    Type
REMARK                         _______ _______ _______ _____ _____    ______ ____
ROOT
ATOM      1  O   UNL     1       8.171   6.166  18.959  0.00  0.00    +0.000 OA
ATOM      2  C   UNL     1       7.291   6.678  18.273  0.00  0.00    +0.000 C 
ATOM      3  N   UNL     1       7.389   7.948  17.757  0.00  0.00    +0.000 N 
ATOM      4  H   UNL     1       6.740   8.215  17.018  0.00  0.00    +0.000 HD
ENDROOT
BRANCH   2   5
ATOM      5  C   UNL     1       6.013   5.965  17.998  0.00  0.00    +0.000 A 
ATOM      6  C   UNL     1       5.486   5.299  19.038  0.00  0.00    +0.000 A 
ATOM      7  C   UNL     1       4.179   4.676  18.931  0.00  0.00    +0.000 A 
ATOM      8  C   UNL     1       3.561   4.072  20.024  0.00  0.00    +0.000 A 
ATOM      9  C   UNL     1       2.271   3.554  19.884  0.00  0.00    +0.000 A 
ATOM     10 BR   UNL     1       1.414   2.774  21.377  0.00  0.00    +0.000 Br
ATOM     11  C   UNL     1       1.601   3.623  18.660  0.00  0.00    +0.000 A 
ATOM     12  C   UNL     1       2.228   4.214  17.560  0.00  0.00    +0.000 A 
ATOM     13  C   UNL     1       3.506   4.737  17.715  0.00  0.00    +0.000 A 
ATOM     14  O   UNL     1       4.094   5.364  16.600  0.00  0.00    +0.000 OA
ATOM     15  C   UNL     1       5.320   6.019  16.695  0.00  0.00    +0.000 A 
ATOM     16  O   UNL     1       5.794   6.621  15.734  0.00  0.00    +0.000 OA
ENDBRANCH   2   5
BRANCH   3  17
ATOM     17  C   UNL     1       8.606   8.718  17.927  0.00  0.00    +0.000 C 
BRANCH  17  18
ATOM     18  C   UNL     1       8.333  10.214  18.166  0.00  0.00    +0.000 C 
BRANCH  18  19
ATOM     19  N   UNL     1       9.555  11.042  18.203  0.00  0.00    +0.000 NA
ATOM     20  C   UNL     1      10.089  11.159  19.581  0.00  0.00    +0.000 C 
ATOM     21  C   UNL     1       9.282  12.103  20.493  0.00  0.00    +0.000 C 
ATOM     22  O   UNL     1       9.088  13.395  19.902  0.00  0.00    +0.000 OA
ATOM     23  C   UNL     1       8.491  13.285  18.604  0.00  0.00    +0.000 C 
ATOM     24  C   UNL     1       9.359  12.413  17.685  0.00  0.00    +0.000 C 
ENDBRANCH  18  19
ENDBRANCH  17  18
ENDBRANCH   3  17
TORSDOF 4
ENDMDL
MODEL 7
REMARK VINA RESULT:      -6.9      5.452      8.503
REMARK  Name = 
REMARK  4 active torsions:
REMARK  status: ('A' for Active; 'I' for Inactive)
REMARK    1  A    between atoms: C_2  and  C_12
REMARK    2  A    between atoms: N_3  and  C_4
REMARK    3  A    between atoms: C_4  and  C_5
REMARK    4  A    between atoms: C_5  and  N_6
REMARK                            x       y       z     vdW  Elec       q    Type
REMARK                         _______ _______ _______ _____ _____    ______ ____
ROOT
ATOM      1  O   UNL     1       1.876   5.709  20.346  0.00  0.00    +0.000 OA
ATOM      2  C   UNL     1       2.509   6.570  19.741  0.00  0.00    +0.000 C 
ATOM      3  N   UNL     1       3.806   6.389  19.324  0.00  0.00    +0.000 N 
ATOM      4  H   UNL     1       4.181   7.040  18.636  0.00  0.00    +0.000 HD
ENDROOT
BRANCH   2   5
ATOM      5  C   UNL     1       1.919   7.909  19.462  0.00  0.00    +0.000 A 
ATOM      6  C   UNL     1       1.196   8.442  20.459  0.00  0.00    +0.000 A 
ATOM      7  C   UNL     1       0.682   9.796  20.357  0.00  0.00    +0.000 A 
ATOM      8  C   UNL     1       0.021  10.413  21.418  0.00  0.00    +0.000 A 
ATOM      9  C   UNL     1      -0.386  11.743  21.293  0.00  0.00    +0.000 A 
ATOM     10 BR   UNL     1      -1.244  12.595  22.746  0.00  0.00    +0.000 Br
ATOM     11  C   UNL     1      -0.151  12.456  20.115  0.00  0.00    +0.000 A 
ATOM     12  C   UNL     1       0.498  11.832  19.045  0.00  0.00    +0.000 A 
ATOM     13  C   UNL     1       0.910  10.512  19.186  0.00  0.00    +0.000 A 
ATOM     14  O   UNL     1       1.598   9.924  18.108  0.00  0.00    +0.000 OA
ATOM     15  C   UNL     1       2.150   8.649  18.205  0.00  0.00    +0.000 A 
ATOM     16  O   UNL     1       2.806   8.170  17.283  0.00  0.00    +0.000 OA
ENDBRANCH   2   5
BRANCH   3  17
ATOM     17  C   UNL     1       4.465   5.110  19.505  0.00  0.00    +0.000 C 
BRANCH  17  18
ATOM     18  C   UNL     1       5.079   4.569  18.201  0.00  0.00    +0.000 C 
BRANCH  18  19
ATOM     19  N   UNL     1       6.556   4.559  18.201  0.00  0.00    +0.000 NA
ATOM     20  C   UNL     1       7.107   5.849  18.676  0.00  0.00    +0.000 C 
ATOM     21  C   UNL     1       7.000   6.998  17.653  0.00  0.00    +0.000 C 
ATOM     22  O   UNL     1       7.545   6.640  16.376  0.00  0.00    +0.000 OA
ATOM     23  C   UNL     1       6.948   5.437  15.878  0.00  0.00    +0.000 C 
ATOM     24  C   UNL     1       7.147   4.285  16.873  0.00  0.00    +0.000 C 
ENDBRANCH  18  19
ENDBRANCH  17  18
ENDBRANCH   3  17
TORSDOF 4
ENDMDL
MODEL 8
REMARK VINA RESULT:      -6.9      4.783      8.077
REMARK  Name = 
REMARK  4 active torsions:
REMARK  status: ('A' for Active; 'I' for Inactive)
REMARK    1  A    between atoms: C_2  and  C_12
REMARK    2  A    between atoms: N_3  and  C_4
REMARK    3  A    between atoms: C_4  and  C_5
REMARK    4  A    between atoms: C_5  and  N_6
REMARK                            x       y       z     vdW  Elec       q    Type
REMARK                         _______ _______ _______ _____ _____    ______ ____
ROOT
ATOM      1  O   UNL     1       8.515   6.567  19.297  0.00  0.00    +0.000 OA
ATOM      2  C   UNL     1       7.748   6.918  18.405  0.00  0.00    +0.000 C 
ATOM      3  N   UNL     1       7.806   8.156  17.812  0.00  0.00    +0.000 N 
ATOM      4  H   UNL     1       7.303   8.291  16.936  0.00  0.00    +0.000 HD
ENDROOT
BRANCH   2   5
ATOM      5  C   UNL     1       6.649   6.027  17.937  0.00  0.00    +0.000 A 
ATOM      6  C   UNL     1       5.753   5.674  18.872  0.00  0.00    +0.000 A 
ATOM      7  C   UNL     1       4.567   4.919  18.511  0.00  0.00    +0.000 A 
ATOM      8  C   UNL     1       3.567   4.632  19.439  0.00  0.00    +0.000 A 
ATOM      9  C   UNL     1       2.412   3.968  19.021  0.00  0.00    +0.000 A 
ATOM     10 BR   UNL     1       1.036   3.615  20.269  0.00  0.00    +0.000 Br
ATOM     11  C   UNL     1       2.253   3.578  17.688  0.00  0.00    +0.000 A 
ATOM     12  C   UNL     1       3.262   3.852  16.761  0.00  0.00    +0.000 A 
ATOM     13  C   UNL     1       4.402   4.525  17.187  0.00  0.00    +0.000 A 
ATOM     14  O   UNL     1       5.381   4.824  16.221  0.00  0.00    +0.000 OA
ATOM     15  C   UNL     1       6.498   5.597  16.532  0.00  0.00    +0.000 A 
ATOM     16  O   UNL     1       7.314   5.910  15.668  0.00  0.00    +0.000 OA
ENDBRANCH   2   5
BRANCH   3  17
ATOM     17  C   UNL     1       8.861   9.088  18.159  0.00  0.00    +0.000 C 
BRANCH  17  18
ATOM     18  C   UNL     1       8.385  10.552  18.157  0.00  0.00    +0.000 C 
BRANCH  18  19
ATOM     19  N   UNL     1       9.101  11.411  19.121  0.00  0.00    +0.000 NA
ATOM     20  C   UNL     1       8.818  12.846  18.884  0.00  0.00    +0.000 C 
ATOM     21  C   UNL     1       9.533  13.435  17.651  0.00  0.00    +0.000 C 
ATOM     22  O   UNL     1      10.944  13.181  17.669  0.00  0.00    +0.000 OA
ATOM     23  C   UNL     1      11.216  11.782  17.813  0.00  0.00    +0.000 C 
ATOM     24  C   UNL     1      10.569  11.237  19.094  0.00  0.00    +0.000 C 
ENDBRANCH  18  19
ENDBRANCH  17  18
ENDBRANCH   3  17
TORSDOF 4
ENDMDL
MODEL 9
REMARK VINA RESULT:      -6.9      6.227      7.638
REMARK  Name = 
REMARK  4 active torsions:
REMARK  status: ('A' for Active; 'I' for Inactive)
REMARK    1  A    between atoms: C_2  and  C_12
REMARK    2  A    between atoms: N_3  and  C_4
REMARK    3  A    between atoms: C_4  and  C_5
REMARK    4  A    between atoms: C_5  and  N_6
REMARK                            x       y       z     vdW  Elec       q    Type
REMARK                         _______ _______ _______ _____ _____    ______ ____
ROOT
ATOM      1  O   UNL     1       0.452   9.080  21.060  0.00  0.00    +0.000 OA
ATOM      2  C   UNL     1       0.751   9.202  19.876  0.00  0.00    +0.000 C 
ATOM      3  N   UNL     1       0.132  10.098  19.037  0.00  0.00    +0.000 N 
ATOM      4  H   UNL     1       0.581  10.308  18.147  0.00  0.00    +0.000 HD
ENDROOT
BRANCH   2   5
ATOM      5  C   UNL     1       1.785   8.335  19.247  0.00  0.00    +0.000 A 
ATOM      6  C   UNL     1       2.063   7.196  19.903  0.00  0.00    +0.000 A 
ATOM      7  C   UNL     1       2.954   6.208  19.322  0.00  0.00    +0.000 A 
ATOM      8  C   UNL     1       3.176   4.973  19.928  0.00  0.00    +0.000 A 
ATOM      9  C   UNL     1       3.983   4.029  19.290  0.00  0.00    +0.000 A 
ATOM     10 BR   UNL     1       4.250   2.337  20.089  0.00  0.00    +0.000 Br
ATOM     11  C   UNL     1       4.582   4.314  18.060  0.00  0.00    +0.000 A 
ATOM     12  C   UNL     1       4.372   5.559  17.460  0.00  0.00    +0.000 A 
ATOM     13  C   UNL     1       3.556   6.485  18.099  0.00  0.00    +0.000 A 
ATOM     14  O   UNL     1       3.330   7.714  17.450  0.00  0.00    +0.000 OA
ATOM     15  C   UNL     1       2.433   8.651  17.958  0.00  0.00    +0.000 A 
ATOM     16  O   UNL     1       2.192   9.692  17.351  0.00  0.00    +0.000 OA
ENDBRANCH   2   5
BRANCH   3  17
ATOM     17  C   UNL     1      -0.860  11.022  19.551  0.00  0.00    +0.000 C 
BRANCH  17  18
ATOM     18  C   UNL     1      -1.910  11.413  18.497  0.00  0.00    +0.000 C 
BRANCH  18  19
ATOM     19  N   UNL     1      -2.718  10.275  18.013  0.00  0.00    +0.000 NA
ATOM     20  C   UNL     1      -2.316   9.866  16.647  0.00  0.00    +0.000 C 
ATOM     21  C   UNL     1      -2.789  10.825  15.536  0.00  0.00    +0.000 C 
ATOM     22  O   UNL     1      -4.198  11.083  15.605  0.00  0.00    +0.000 OA
ATOM     23  C   UNL     1      -4.572  11.560  16.903  0.00  0.00    +0.000 C 
ATOM     24  C   UNL     1      -4.171  10.548  17.986  0.00  0.00    +0.000 C 
ENDBRANCH  18  19
ENDBRANCH  17  18
ENDBRANCH   3  17
TORSDOF 4
ENDMDL
