MODEL 1
REMARK VINA RESULT:      -8.6      0.000      0.000
REMARK  Name = 
REMARK  8 active torsions:
REMARK  status: ('A' for Active; 'I' for Inactive)
REMARK    1  A    between atoms: C_1  and  C_2
REMARK    2  A    between atoms: C_2  and  C_3
REMARK    3  A    between atoms: C_2  and  C_4
REMARK    4  A    between atoms: C_2  and  N_5
REMARK    5  A    between atoms: C_8  and  S_9
REMARK    6  A    between atoms: S_9  and  C_10
REMARK    7  A    between atoms: C_10  and  C_11
REMARK    8  A    between atoms: C_14  and  C_15
REMARK                            x       y       z     vdW  Elec       q    Type
REMARK                         _______ _______ _______ _____ _____    ______ ____
ROOT
ATOM      1  S   UNL     1       7.168   4.759  17.626  0.00  0.00    +0.000 S 
ENDROOT
BRANCH   1   5
ATOM      2  N   UNL     1       3.044   3.920  19.325  0.00  0.00    +0.000 N 
ATOM      3  N   UNL     1       4.178   3.265  19.767  0.00  0.00    +0.000 NA
ATOM      4  C   UNL     1       5.306   3.558  19.209  0.00  0.00    +0.000 A 
ATOM      5  C   UNL     1       5.523   4.519  18.115  0.00  0.00    +0.000 A 
ATOM      6  C   UNL     1       4.431   5.180  17.718  0.00  0.00    +0.000 A 
ATOM      7 CL   UNL     1       4.462   6.416  16.504  0.00  0.00    +0.000 Cl
ATOM      8  C   UNL     1       3.085   4.902  18.331  0.00  0.00    +0.000 A 
ATOM      9  O   UNL     1       2.099   5.525  17.942  0.00  0.00    +0.000 OA
BRANCH   2  11
ATOM     10  C   UNL     1       1.989   2.551  21.170  0.00  0.00    +0.000 C 
ATOM     11  C   UNL     1       1.748   3.501  19.970  0.00  0.00    +0.000 C 
ATOM     12  C   UNL     1       0.865   2.746  18.956  0.00  0.00    +0.000 C 
ATOM     13  C   UNL     1       0.966   4.716  20.510  0.00  0.00    +0.000 C 
ENDBRANCH   2  11
ENDBRANCH   1   5
BRANCH   1  14
ATOM     14  C   UNL     1       7.821   5.907  18.885  0.00  0.00    +0.000 C 
BRANCH  14  15
ATOM     15  C   UNL     1       7.974   7.286  18.352  0.00  0.00    +0.000 A 
ATOM     16  N   UNL     1       7.349   7.880  17.355  0.00  0.00    +0.000 NA
ATOM     17  N   UNL     1       7.781   9.196  17.352  0.00  0.00    +0.000 NA
ATOM     18  C   UNL     1       8.637   9.314  18.347  0.00  0.00    +0.000 A 
ATOM     19  O   UNL     1       8.810   8.134  19.027  0.00  0.00    +0.000 OA
BRANCH  18  20
ATOM     20  C   UNL     1       9.366  10.477  18.850  0.00  0.00    +0.000 A 
ATOM     21  C   UNL     1       9.421  10.742  20.227  0.00  0.00    +0.000 A 
ATOM     22  C   UNL     1      10.149  11.833  20.712  0.00  0.00    +0.000 A 
ATOM     23  C   UNL     1      10.830  12.674  19.829  0.00  0.00    +0.000 A 
ATOM     24  C   UNL     1      10.774  12.429  18.461  0.00  0.00    +0.000 A 
ATOM     25  C   UNL     1      10.048  11.339  17.977  0.00  0.00    +0.000 A 
ENDBRANCH  18  20
ENDBRANCH  14  15
ENDBRANCH   1  14
TORSDOF 5
ENDMDL
MODEL 2
REMARK VINA RESULT:      -8.4      0.854      1.519
REMARK  Name = 
REMARK  8 active torsions:
REMARK  status: ('A' for Active; 'I' for Inactive)
REMARK    1  A    between atoms: C_1  and  C_2
REMARK    2  A    between atoms: C_2  and  C_3
REMARK    3  A    between atoms: C_2  and  C_4
REMARK    4  A    between atoms: C_2  and  N_5
REMARK    5  A    between atoms: C_8  and  S_9
REMARK    6  A    between atoms: S_9  and  C_10
REMARK    7  A    between atoms: C_10  and  C_11
REMARK    8  A    between atoms: C_14  and  C_15
REMARK                            x       y       z     vdW  Elec       q    Type
REMARK                         _______ _______ _______ _____ _____    ______ ____
ROOT
ATOM      1  S   UNL     1       7.252   4.760  17.368  0.00  0.00    +0.000 S 
ENDROOT
BRANCH   1   5
ATOM      2  N   UNL     1       3.166   3.665  19.014  0.00  0.00    +0.000 N 
ATOM      3  N   UNL     1       4.245   3.951  19.829  0.00  0.00    +0.000 NA
ATOM      4  C   UNL     1       5.373   4.234  19.269  0.00  0.00    +0.000 A 
ATOM      5  C   UNL     1       5.654   4.267  17.824  0.00  0.00    +0.000 A 
ATOM      6  C   UNL     1       4.599   4.030  17.037  0.00  0.00    +0.000 A 
ATOM      7 CL   UNL     1       4.675   4.098  15.308  0.00  0.00    +0.000 Cl
ATOM      8  C   UNL     1       3.249   3.707  17.618  0.00  0.00    +0.000 A 
ATOM      9  O   UNL     1       2.299   3.491  16.868  0.00  0.00    +0.000 OA
BRANCH   2  11
ATOM     10  C   UNL     1       1.034   2.314  18.869  0.00  0.00    +0.000 C 
ATOM     11  C   UNL     1       1.889   3.287  19.719  0.00  0.00    +0.000 C 
ATOM     12  C   UNL     1       1.032   4.542  19.983  0.00  0.00    +0.000 C 
ATOM     13  C   UNL     1       2.171   2.581  21.061  0.00  0.00    +0.000 C 
ENDBRANCH   2  11
ENDBRANCH   1   5
BRANCH   1  14
ATOM     14  C   UNL     1       7.746   5.889  18.715  0.00  0.00    +0.000 C 
BRANCH  14  15
ATOM     15  C   UNL     1       7.892   7.289  18.237  0.00  0.00    +0.000 A 
ATOM     16  N   UNL     1       7.244   7.929  17.286  0.00  0.00    +0.000 NA
ATOM     17  N   UNL     1       7.684   9.242  17.328  0.00  0.00    +0.000 NA
ATOM     18  C   UNL     1       8.569   9.312  18.302  0.00  0.00    +0.000 A 
ATOM     19  O   UNL     1       8.753   8.102  18.925  0.00  0.00    +0.000 OA
BRANCH  18  20
ATOM     20  C   UNL     1       9.318  10.448  18.835  0.00  0.00    +0.000 A 
ATOM     21  C   UNL     1       9.922  11.373  17.971  0.00  0.00    +0.000 A 
ATOM     22  C   UNL     1      10.608  12.480  18.480  0.00  0.00    +0.000 A 
ATOM     23  C   UNL     1      10.701  12.677  19.860  0.00  0.00    +0.000 A 
ATOM     24  C   UNL     1      10.118  11.760  20.728  0.00  0.00    +0.000 A 
ATOM     25  C   UNL     1       9.432  10.656  20.220  0.00  0.00    +0.000 A 
ENDBRANCH  18  20
ENDBRANCH  14  15
ENDBRANCH   1  14
TORSDOF 5
ENDMDL
MODEL 3
REMARK VINA RESULT:      -7.7      4.450      6.822
REMARK  Name = 
REMARK  8 active torsions:
REMARK  status: ('A' for Active; 'I' for Inactive)
REMARK    1  A    between atoms: C_1  and  C_2
REMARK    2  A    between atoms: C_2  and  C_3
REMARK    3  A    between atoms: C_2  and  C_4
REMARK    4  A    between atoms: C_2  and  N_5
REMARK    5  A    between atoms: C_8  and  S_9
REMARK    6  A    between atoms: S_9  and  C_10
REMARK    7  A    between atoms: C_10  and  C_11
REMARK    8  A    between atoms: C_14  and  C_15
REMARK                            x       y       z     vdW  Elec       q    Type
REMARK                         _______ _______ _______ _____ _____    ______ ____
ROOT
ATOM      1  S   UNL     1       6.961   5.736  18.194  0.00  0.00    +0.000 S 
ENDROOT
BRANCH   1   5
ATOM      2  N   UNL     1       2.921   4.055  19.399  0.00  0.00    +0.000 N 
ATOM      3  N   UNL     1       4.113   3.525  19.856  0.00  0.00    +0.000 NA
ATOM      4  C   UNL     1       5.214   4.060  19.442  0.00  0.00    +0.000 A 
ATOM      5  C   UNL     1       5.347   5.184  18.501  0.00  0.00    +0.000 A 
ATOM      6  C   UNL     1       4.192   5.720  18.093  0.00  0.00    +0.000 A 
ATOM      7 CL   UNL     1       4.106   7.101  17.051  0.00  0.00    +0.000 Cl
ATOM      8  C   UNL     1       2.869   5.160  18.543  0.00  0.00    +0.000 A 
ATOM      9  O   UNL     1       1.825   5.673  18.149  0.00  0.00    +0.000 OA
BRANCH   2  11
ATOM     10  C   UNL     1       0.635   4.364  20.434  0.00  0.00    +0.000 C 
ATOM     11  C   UNL     1       1.669   3.359  19.868  0.00  0.00    +0.000 C 
ATOM     12  C   UNL     1       2.002   2.358  20.993  0.00  0.00    +0.000 C 
ATOM     13  C   UNL     1       0.975   2.605  18.714  0.00  0.00    +0.000 C 
ENDBRANCH   2  11
ENDBRANCH   1   5
BRANCH   1  14
ATOM     14  C   UNL     1       7.652   4.441  17.108  0.00  0.00    +0.000 C 
BRANCH  14  15
ATOM     15  C   UNL     1       7.366   4.711  15.675  0.00  0.00    +0.000 A 
ATOM     16  N   UNL     1       7.808   5.675  14.892  0.00  0.00    +0.000 NA
ATOM     17  N   UNL     1       7.329   5.397  13.622  0.00  0.00    +0.000 NA
ATOM     18  C   UNL     1       6.630   4.284  13.718  0.00  0.00    +0.000 A 
ATOM     19  O   UNL     1       6.609   3.792  14.999  0.00  0.00    +0.000 OA
BRANCH  18  20
ATOM     20  C   UNL     1       5.941   3.495  12.698  0.00  0.00    +0.000 A 
ATOM     21  C   UNL     1       4.642   3.834  12.291  0.00  0.00    +0.000 A 
ATOM     22  C   UNL     1       3.997   3.102  11.289  0.00  0.00    +0.000 A 
ATOM     23  C   UNL     1       4.640   2.021  10.682  0.00  0.00    +0.000 A 
ATOM     24  C   UNL     1       5.923   1.667  11.085  0.00  0.00    +0.000 A 
ATOM     25  C   UNL     1       6.568   2.398  12.084  0.00  0.00    +0.000 A 
ENDBRANCH  18  20
ENDBRANCH  14  15
ENDBRANCH   1  14
TORSDOF 5
ENDMDL
MODEL 4
REMARK VINA RESULT:      -7.7      4.433      6.762
REMARK  Name = 
REMARK  8 active torsions:
REMARK  status: ('A' for Active; 'I' for Inactive)
REMARK    1  A    between atoms: C_1  and  C_2
REMARK    2  A    between atoms: C_2  and  C_3
REMARK    3  A    between atoms: C_2  and  C_4
REMARK    4  A    between atoms: C_2  and  N_5
REMARK    5  A    between atoms: C_8  and  S_9
REMARK    6  A    between atoms: S_9  and  C_10
REMARK    7  A    between atoms: C_10  and  C_11
REMARK    8  A    between atoms: C_14  and  C_15
REMARK                            x       y       z     vdW  Elec       q    Type
REMARK                         _______ _______ _______ _____ _____    ______ ____
ROOT
ATOM      1  S   UNL     1       6.932   5.801  18.189  0.00  0.00    +0.000 S 
ENDROOT
BRANCH   1   5
ATOM      2  N   UNL     1       2.912   4.077  19.401  0.00  0.00    +0.000 N 
ATOM      3  N   UNL     1       4.111   3.483  19.747  0.00  0.00    +0.000 NA
ATOM      4  C   UNL     1       5.204   4.037  19.340  0.00  0.00    +0.000 A 
ATOM      5  C   UNL     1       5.321   5.249  18.511  0.00  0.00    +0.000 A 
ATOM      6  C   UNL     1       4.161   5.844  18.213  0.00  0.00    +0.000 A 
ATOM      7 CL   UNL     1       4.060   7.325  17.320  0.00  0.00    +0.000 Cl
ATOM      8  C   UNL     1       2.848   5.264  18.664  0.00  0.00    +0.000 A 
ATOM      9  O   UNL     1       1.798   5.833  18.371  0.00  0.00    +0.000 OA
BRANCH   2  11
ATOM     10  C   UNL     1       1.976   2.325  20.964  0.00  0.00    +0.000 C 
ATOM     11  C   UNL     1       1.667   3.359  19.854  0.00  0.00    +0.000 C 
ATOM     12  C   UNL     1       1.031   2.594  18.675  0.00  0.00    +0.000 C 
ATOM     13  C   UNL     1       0.626   4.341  20.433  0.00  0.00    +0.000 C 
ENDBRANCH   2  11
ENDBRANCH   1   5
BRANCH   1  14
ATOM     14  C   UNL     1       7.624   4.489  17.125  0.00  0.00    +0.000 C 
BRANCH  14  15
ATOM     15  C   UNL     1       7.373   4.754  15.685  0.00  0.00    +0.000 A 
ATOM     16  N   UNL     1       7.838   5.712  14.909  0.00  0.00    +0.000 NA
ATOM     17  N   UNL     1       7.387   5.432  13.629  0.00  0.00    +0.000 NA
ATOM     18  C   UNL     1       6.680   4.323  13.713  0.00  0.00    +0.000 A 
ATOM     19  O   UNL     1       6.627   3.836  14.995  0.00  0.00    +0.000 OA
BRANCH  18  20
ATOM     20  C   UNL     1       6.011   3.534  12.681  0.00  0.00    +0.000 A 
ATOM     21  C   UNL     1       6.654   2.432  12.097  0.00  0.00    +0.000 A 
ATOM     22  C   UNL     1       6.001   1.654  11.136  0.00  0.00    +0.000 A 
ATOM     23  C   UNL     1       4.697   1.967  10.745  0.00  0.00    +0.000 A 
ATOM     24  C   UNL     1       4.052   3.064  11.307  0.00  0.00    +0.000 A 
ATOM     25  C   UNL     1       4.704   3.839  12.267  0.00  0.00    +0.000 A 
ENDBRANCH  18  20
ENDBRANCH  14  15
ENDBRANCH   1  14
TORSDOF 5
ENDMDL
MODEL 5
REMARK VINA RESULT:      -7.7      5.039      6.983
REMARK  Name = 
REMARK  8 active torsions:
REMARK  status: ('A' for Active; 'I' for Inactive)
REMARK    1  A    between atoms: C_1  and  C_2
REMARK    2  A    between atoms: C_2  and  C_3
REMARK    3  A    between atoms: C_2  and  C_4
REMARK    4  A    between atoms: C_2  and  N_5
REMARK    5  A    between atoms: C_8  and  S_9
REMARK    6  A    between atoms: S_9  and  C_10
REMARK    7  A    between atoms: C_10  and  C_11
REMARK    8  A    between atoms: C_14  and  C_15
REMARK                            x       y       z     vdW  Elec       q    Type
REMARK                         _______ _______ _______ _____ _____    ______ ____
ROOT
ATOM      1  S   UNL     1       3.269   5.459  18.068  0.00  0.00    +0.000 S 
ENDROOT
BRANCH   1   5
ATOM      2  N   UNL     1       1.409   9.425  19.260  0.00  0.00    +0.000 N 
ATOM      3  N   UNL     1       2.053   9.238  18.050  0.00  0.00    +0.000 NA
ATOM      4  C   UNL     1       2.567   8.079  17.808  0.00  0.00    +0.000 A 
ATOM      5  C   UNL     1       2.565   6.910  18.704  0.00  0.00    +0.000 A 
ATOM      6  C   UNL     1       1.907   7.081  19.855  0.00  0.00    +0.000 A 
ATOM      7 CL   UNL     1       1.703   5.820  21.025  0.00  0.00    +0.000 Cl
ATOM      8  C   UNL     1       1.269   8.400  20.201  0.00  0.00    +0.000 A 
ATOM      9  O   UNL     1       0.673   8.527  21.269  0.00  0.00    +0.000 OA
BRANCH   2  11
ATOM     10  C   UNL     1      -0.616  10.932  19.116  0.00  0.00    +0.000 C 
ATOM     11  C   UNL     1       0.876  10.811  19.515  0.00  0.00    +0.000 C 
ATOM     12  C   UNL     1       1.660  11.848  18.685  0.00  0.00    +0.000 C 
ATOM     13  C   UNL     1       0.972  11.188  21.008  0.00  0.00    +0.000 C 
ENDBRANCH   2  11
ENDBRANCH   1   5
BRANCH   1  14
ATOM     14  C   UNL     1       4.888   5.372  18.906  0.00  0.00    +0.000 C 
BRANCH  14  15
ATOM     15  C   UNL     1       5.993   5.104  17.948  0.00  0.00    +0.000 A 
ATOM     16  N   UNL     1       7.247   4.772  18.178  0.00  0.00    +0.000 NA
ATOM     17  N   UNL     1       7.819   4.525  16.940  0.00  0.00    +0.000 NA
ATOM     18  C   UNL     1       6.874   4.722  16.042  0.00  0.00    +0.000 A 
ATOM     19  O   UNL     1       5.683   5.095  16.615  0.00  0.00    +0.000 OA
BRANCH  18  20
ATOM     20  C   UNL     1       6.884   4.561  14.590  0.00  0.00    +0.000 A 
ATOM     21  C   UNL     1       7.758   5.317  13.795  0.00  0.00    +0.000 A 
ATOM     22  C   UNL     1       7.795   5.137  12.409  0.00  0.00    +0.000 A 
ATOM     23  C   UNL     1       6.958   4.200  11.798  0.00  0.00    +0.000 A 
ATOM     24  C   UNL     1       6.078   3.452  12.574  0.00  0.00    +0.000 A 
ATOM     25  C   UNL     1       6.043   3.631  13.957  0.00  0.00    +0.000 A 
ENDBRANCH  18  20
ENDBRANCH  14  15
ENDBRANCH   1  14
TORSDOF 5
ENDMDL
MODEL 6
REMARK VINA RESULT:      -7.4      5.142      7.374
REMARK  Name = 
REMARK  8 active torsions:
REMARK  status: ('A' for Active; 'I' for Inactive)
REMARK    1  A    between atoms: C_1  and  C_2
REMARK    2  A    between atoms: C_2  and  C_3
REMARK    3  A    between atoms: C_2  and  C_4
REMARK    4  A    between atoms: C_2  and  N_5
REMARK    5  A    between atoms: C_8  and  S_9
REMARK    6  A    between atoms: S_9  and  C_10
REMARK    7  A    between atoms: C_10  and  C_11
REMARK    8  A    between atoms: C_14  and  C_15
REMARK                            x       y       z     vdW  Elec       q    Type
REMARK                         _______ _______ _______ _____ _____    ______ ____
ROOT
ATOM      1  S   UNL     1       2.361   5.811  20.829  0.00  0.00    +0.000 S 
ENDROOT
BRANCH   1   5
ATOM      2  N   UNL     1       0.548   9.848  19.820  0.00  0.00    +0.000 N 
ATOM      3  N   UNL     1       0.256   9.173  20.991  0.00  0.00    +0.000 NA
ATOM      4  C   UNL     1       0.807   8.020  21.181  0.00  0.00    +0.000 A 
ATOM      5  C   UNL     1       1.716   7.316  20.262  0.00  0.00    +0.000 A 
ATOM      6  C   UNL     1       2.027   7.990  19.149  0.00  0.00    +0.000 A 
ATOM      7 CL   UNL     1       3.142   7.394  17.964  0.00  0.00    +0.000 Cl
ATOM      8  C   UNL     1       1.436   9.344  18.865  0.00  0.00    +0.000 A 
ATOM      9  O   UNL     1       1.740   9.937  17.832  0.00  0.00    +0.000 OA
BRANCH   2  11
ATOM     10  C   UNL     1      -1.008  11.546  20.864  0.00  0.00    +0.000 C 
ATOM     11  C   UNL     1      -0.164  11.162  19.623  0.00  0.00    +0.000 C 
ATOM     12  C   UNL     1      -1.126  11.074  18.421  0.00  0.00    +0.000 C 
ATOM     13  C   UNL     1       0.833  12.315  19.385  0.00  0.00    +0.000 C 
ENDBRANCH   2  11
ENDBRANCH   1   5
BRANCH   1  14
ATOM     14  C   UNL     1       1.317   4.564  19.999  0.00  0.00    +0.000 C 
BRANCH  14  15
ATOM     15  C   UNL     1       1.963   4.031  18.771  0.00  0.00    +0.000 A 
ATOM     16  N   UNL     1       1.459   3.286  17.808  0.00  0.00    +0.000 NA
ATOM     17  N   UNL     1       2.450   3.169  16.846  0.00  0.00    +0.000 NA
ATOM     18  C   UNL     1       3.487   3.851  17.289  0.00  0.00    +0.000 A 
ATOM     19  O   UNL     1       3.247   4.427  18.512  0.00  0.00    +0.000 OA
BRANCH  18  20
ATOM     20  C   UNL     1       4.786   4.122  16.677  0.00  0.00    +0.000 A 
ATOM     21  C   UNL     1       4.915   4.207  15.283  0.00  0.00    +0.000 A 
ATOM     22  C   UNL     1       6.150   4.503  14.699  0.00  0.00    +0.000 A 
ATOM     23  C   UNL     1       7.275   4.717  15.500  0.00  0.00    +0.000 A 
ATOM     24  C   UNL     1       7.163   4.624  16.883  0.00  0.00    +0.000 A 
ATOM     25  C   UNL     1       5.930   4.330  17.466  0.00  0.00    +0.000 A 
ENDBRANCH  18  20
ENDBRANCH  14  15
ENDBRANCH   1  14
TORSDOF 5
ENDMDL
MODEL 7
REMARK VINA RESULT:      -7.4      1.747      2.038
REMARK  Name = 
REMARK  8 active torsions:
REMARK  status: ('A' for Active; 'I' for Inactive)
REMARK    1  A    between atoms: C_1  and  C_2
REMARK    2  A    between atoms: C_2  and  C_3
REMARK    3  A    between atoms: C_2  and  C_4
REMARK    4  A    between atoms: C_2  and  N_5
REMARK    5  A    between atoms: C_8  and  S_9
REMARK    6  A    between atoms: S_9  and  C_10
REMARK    7  A    between atoms: C_10  and  C_11
REMARK    8  A    between atoms: C_14  and  C_15
REMARK                            x       y       z     vdW  Elec       q    Type
REMARK                         _______ _______ _______ _____ _____    ______ ____
ROOT
ATOM      1  S   UNL     1       5.194   6.745  16.184  0.00  0.00    +0.000 S 
ENDROOT
BRANCH   1   5
ATOM      2  N   UNL     1       2.780   3.994  18.869  0.00  0.00    +0.000 N 
ATOM      3  N   UNL     1       2.694   5.372  18.944  0.00  0.00    +0.000 NA
ATOM      4  C   UNL     1       3.435   6.072  18.151  0.00  0.00    +0.000 A 
ATOM      5  C   UNL     1       4.400   5.558  17.165  0.00  0.00    +0.000 A 
ATOM      6  C   UNL     1       4.451   4.225  17.067  0.00  0.00    +0.000 A 
ATOM      7 CL   UNL     1       5.451   3.399  15.918  0.00  0.00    +0.000 Cl
ATOM      8  C   UNL     1       3.607   3.344  17.948  0.00  0.00    +0.000 A 
ATOM      9  O   UNL     1       3.679   2.122  17.835  0.00  0.00    +0.000 OA
BRANCH   2  11
ATOM     10  C   UNL     1       2.803   2.579  20.964  0.00  0.00    +0.000 C 
ATOM     11  C   UNL     1       1.937   3.227  19.854  0.00  0.00    +0.000 C 
ATOM     12  C   UNL     1       1.178   2.090  19.139  0.00  0.00    +0.000 C 
ATOM     13  C   UNL     1       0.917   4.144  20.561  0.00  0.00    +0.000 C 
ENDBRANCH   2  11
ENDBRANCH   1   5
BRANCH   1  14
ATOM     14  C   UNL     1       6.965   6.358  16.403  0.00  0.00    +0.000 C 
BRANCH  14  15
ATOM     15  C   UNL     1       7.591   7.206  17.451  0.00  0.00    +0.000 A 
ATOM     16  N   UNL     1       8.082   6.871  18.626  0.00  0.00    +0.000 NA
ATOM     17  N   UNL     1       8.649   8.020  19.155  0.00  0.00    +0.000 NA
ATOM     18  C   UNL     1       8.466   8.974  18.265  0.00  0.00    +0.000 A 
ATOM     19  O   UNL     1       7.796   8.526  17.153  0.00  0.00    +0.000 OA
BRANCH  18  20
ATOM     20  C   UNL     1       8.895  10.371  18.257  0.00  0.00    +0.000 A 
ATOM     21  C   UNL     1      10.098  10.751  18.869  0.00  0.00    +0.000 A 
ATOM     22  C   UNL     1      10.528  12.081  18.829  0.00  0.00    +0.000 A 
ATOM     23  C   UNL     1       9.760  13.050  18.179  0.00  0.00    +0.000 A 
ATOM     24  C   UNL     1       8.559  12.689  17.578  0.00  0.00    +0.000 A 
ATOM     25  C   UNL     1       8.131  11.360  17.616  0.00  0.00    +0.000 A 
ENDBRANCH  18  20
ENDBRANCH  14  15
ENDBRANCH   1  14
TORSDOF 5
ENDMDL
MODEL 8
REMARK VINA RESULT:      -7.2      5.161      7.308
REMARK  Name = 
REMARK  8 active torsions:
REMARK  status: ('A' for Active; 'I' for Inactive)
REMARK    1  A    between atoms: C_1  and  C_2
REMARK    2  A    between atoms: C_2  and  C_3
REMARK    3  A    between atoms: C_2  and  C_4
REMARK    4  A    between atoms: C_2  and  N_5
REMARK    5  A    between atoms: C_8  and  S_9
REMARK    6  A    between atoms: S_9  and  C_10
REMARK    7  A    between atoms: C_10  and  C_11
REMARK    8  A    between atoms: C_14  and  C_15
REMARK                            x       y       z     vdW  Elec       q    Type
REMARK                         _______ _______ _______ _____ _____    ______ ____
ROOT
ATOM      1  S   UNL     1       2.505   5.809  20.661  0.00  0.00    +0.000 S 
ENDROOT
BRANCH   1   5
ATOM      2  N   UNL     1       0.635   9.790  19.539  0.00  0.00    +0.000 N 
ATOM      3  N   UNL     1       0.334   9.131  20.716  0.00  0.00    +0.000 NA
ATOM      4  C   UNL     1       0.903   7.994  20.940  0.00  0.00    +0.000 A 
ATOM      5  C   UNL     1       1.843   7.290  20.052  0.00  0.00    +0.000 A 
ATOM      6  C   UNL     1       2.163   7.948  18.933  0.00  0.00    +0.000 A 
ATOM      7 CL   UNL     1       3.312   7.351  17.781  0.00  0.00    +0.000 Cl
ATOM      8  C   UNL     1       1.551   9.284  18.611  0.00  0.00    +0.000 A 
ATOM      9  O   UNL     1       1.865   9.863  17.572  0.00  0.00    +0.000 OA
BRANCH   2  11
ATOM     10  C   UNL     1      -0.913  11.515  20.546  0.00  0.00    +0.000 C 
ATOM     11  C   UNL     1      -0.097  11.085  19.302  0.00  0.00    +0.000 C 
ATOM     12  C   UNL     1      -1.090  10.932  18.131  0.00  0.00    +0.000 C 
ATOM     13  C   UNL     1       0.878  12.237  18.985  0.00  0.00    +0.000 C 
ENDBRANCH   2  11
ENDBRANCH   1   5
BRANCH   1  14
ATOM     14  C   UNL     1       1.461   4.528  19.886  0.00  0.00    +0.000 C 
BRANCH  14  15
ATOM     15  C   UNL     1       2.060   4.013  18.627  0.00  0.00    +0.000 A 
ATOM     16  N   UNL     1       1.524   3.274  17.677  0.00  0.00    +0.000 NA
ATOM     17  N   UNL     1       2.475   3.176  16.674  0.00  0.00    +0.000 NA
ATOM     18  C   UNL     1       3.524   3.863  17.081  0.00  0.00    +0.000 A 
ATOM     19  O   UNL     1       3.330   4.423  18.320  0.00  0.00    +0.000 OA
BRANCH  18  20
ATOM     20  C   UNL     1       4.795   4.152  16.420  0.00  0.00    +0.000 A 
ATOM     21  C   UNL     1       5.942   4.437  17.174  0.00  0.00    +0.000 A 
ATOM     22  C   UNL     1       7.167   4.677  16.543  0.00  0.00    +0.000 A 
ATOM     23  C   UNL     1       7.261   4.637  15.150  0.00  0.00    +0.000 A 
ATOM     24  C   UNL     1       6.128   4.367  14.390  0.00  0.00    +0.000 A 
ATOM     25  C   UNL     1       4.906   4.126  15.020  0.00  0.00    +0.000 A 
ENDBRANCH  18  20
ENDBRANCH  14  15
ENDBRANCH   1  14
TORSDOF 5
ENDMDL
MODEL 9
REMARK VINA RESULT:      -7.2      3.757      6.057
REMARK  Name = 
REMARK  8 active torsions:
REMARK  status: ('A' for Active; 'I' for Inactive)
REMARK    1  A    between atoms: C_1  and  C_2
REMARK    2  A    between atoms: C_2  and  C_3
REMARK    3  A    between atoms: C_2  and  C_4
REMARK    4  A    between atoms: C_2  and  N_5
REMARK    5  A    between atoms: C_8  and  S_9
REMARK    6  A    between atoms: S_9  and  C_10
REMARK    7  A    between atoms: C_10  and  C_11
REMARK    8  A    between atoms: C_14  and  C_15
REMARK                            x       y       z     vdW  Elec       q    Type
REMARK                         _______ _______ _______ _____ _____    ______ ____
ROOT
ATOM      1  S   UNL     1       4.278   7.674  17.257  0.00  0.00    +0.000 S 
ENDROOT
BRANCH   1   5
ATOM      2  N   UNL     1       2.557   3.964  19.227  0.00  0.00    +0.000 N 
ATOM      3  N   UNL     1       3.474   3.901  18.194  0.00  0.00    +0.000 NA
ATOM      4  C   UNL     1       3.892   5.012  17.685  0.00  0.00    +0.000 A 
ATOM      5  C   UNL     1       3.479   6.370  18.073  0.00  0.00    +0.000 A 
ATOM      6  C   UNL     1       2.623   6.428  19.099  0.00  0.00    +0.000 A 
ATOM      7 CL   UNL     1       2.064   7.920  19.780  0.00  0.00    +0.000 Cl
ATOM      8  C   UNL     1       2.102   5.177  19.753  0.00  0.00    +0.000 A 
ATOM      9  O   UNL     1       1.314   5.265  20.693  0.00  0.00    +0.000 OA
BRANCH   2  11
ATOM     10  C   UNL     1       2.838   1.454  19.127  0.00  0.00    +0.000 C 
ATOM     11  C   UNL     1       2.059   2.641  19.747  0.00  0.00    +0.000 C 
ATOM     12  C   UNL     1       0.570   2.451  19.392  0.00  0.00    +0.000 C 
ATOM     13  C   UNL     1       2.227   2.535  21.278  0.00  0.00    +0.000 C 
ENDBRANCH   2  11
ENDBRANCH   1   5
BRANCH   1  14
ATOM     14  C   UNL     1       6.030   7.453  17.720  0.00  0.00    +0.000 C 
BRANCH  14  15
ATOM     15  C   UNL     1       6.675   6.365  16.939  0.00  0.00    +0.000 A 
ATOM     16  N   UNL     1       7.590   5.491  17.305  0.00  0.00    +0.000 NA
ATOM     17  N   UNL     1       7.758   4.629  16.234  0.00  0.00    +0.000 NA
ATOM     18  C   UNL     1       6.933   5.036  15.290  0.00  0.00    +0.000 A 
ATOM     19  O   UNL     1       6.212   6.141  15.671  0.00  0.00    +0.000 OA
BRANCH  18  20
ATOM     20  C   UNL     1       6.642   4.483  13.969  0.00  0.00    +0.000 A 
ATOM     21  C   UNL     1       7.563   4.619  12.920  0.00  0.00    +0.000 A 
ATOM     22  C   UNL     1       7.302   4.058  11.666  0.00  0.00    +0.000 A 
ATOM     23  C   UNL     1       6.115   3.356  11.442  0.00  0.00    +0.000 A 
ATOM     24  C   UNL     1       5.187   3.224  12.470  0.00  0.00    +0.000 A 
ATOM     25  C   UNL     1       5.449   3.783  13.722  0.00  0.00    +0.000 A 
ENDBRANCH  18  20
ENDBRANCH  14  15
ENDBRANCH   1  14
TORSDOF 5
ENDMDL
