MODEL 1
REMARK VINA RESULT:      -6.5      0.000      0.000
REMARK  Name = 
REMARK  4 active torsions:
REMARK  status: ('A' for Active; 'I' for Inactive)
REMARK    1  A    between atoms: C_1  and  O_2
REMARK    2  A    between atoms: O_2  and  C_3
REMARK    3  A    between atoms: CA_8  and  C_9
REMARK    4  A    between atoms: C_9  and  OXT_11
REMARK                            x       y       z     vdW  Elec       q    Type
REMARK                         _______ _______ _______ _____ _____    ______ ____
ROOT
ATOM      1  C   UNL     1       1.878   3.612  19.553  0.00  0.00    +0.000 A 
ATOM      2  C   UNL     1       1.584   3.259  18.237  0.00  0.00    +0.000 A 
ATOM      3  C   UNL     1       2.536   3.405  17.217  0.00  0.00    +0.000 A 
ATOM      4  C   UNL     1       3.789   3.916  17.569  0.00  0.00    +0.000 A 
ATOM      5  N   UNL     1       4.895   4.187  16.794  0.00  0.00    +0.000 N 
ATOM      6  CA  UNL     1       5.934   4.658  17.567  0.00  0.00    +0.000 A 
ATOM      7  C   UNL     1       5.454   4.740  18.864  0.00  0.00    +0.000 A 
ATOM      8  C   UNL     1       4.111   4.275  18.874  0.00  0.00    +0.000 A 
ATOM      9  C   UNL     1       3.135   4.135  19.877  0.00  0.00    +0.000 A 
ATOM     10  H   UNL     1       4.953   4.048  15.793  0.00  0.00    +0.000 HD
ENDROOT
BRANCH   1  12
ATOM     11  C   UNL     1       1.435   2.729  21.706  0.00  0.00    +0.000 C 
ATOM     12  O   UNL     1       1.010   3.531  20.610  0.00  0.00    +0.000 OA
ENDBRANCH   1  12
BRANCH   6  13
ATOM     13  C   UNL     1       7.209   5.004  16.992  0.00  0.00    +0.000 C 
ATOM     14  O   UNL     1       7.408   5.969  16.272  0.00  0.00    +0.000 OA
BRANCH  13  15
ATOM     15  OXT UNL     1       8.173   4.102  17.297  0.00  0.00    +0.000 OA
ATOM     16  HXT UNL     1       7.813   3.266  17.639  0.00  0.00    +0.000 HD
ENDBRANCH  13  15
ENDBRANCH   6  13
TORSDOF 3
ENDMDL
MODEL 2
REMARK VINA RESULT:      -6.3      2.391      5.555
REMARK  Name = 
REMARK  4 active torsions:
REMARK  status: ('A' for Active; 'I' for Inactive)
REMARK    1  A    between atoms: C_1  and  O_2
REMARK    2  A    between atoms: O_2  and  C_3
REMARK    3  A    between atoms: CA_8  and  C_9
REMARK    4  A    between atoms: C_9  and  OXT_11
REMARK                            x       y       z     vdW  Elec       q    Type
REMARK                         _______ _______ _______ _____ _____    ______ ____
ROOT
ATOM      1  C   UNL     1       7.038   6.830  17.566  0.00  0.00    +0.000 A 
ATOM      2  C   UNL     1       7.549   6.259  18.730  0.00  0.00    +0.000 A 
ATOM      3  C   UNL     1       6.995   5.087  19.267  0.00  0.00    +0.000 A 
ATOM      4  C   UNL     1       5.913   4.514  18.591  0.00  0.00    +0.000 A 
ATOM      5  N   UNL     1       5.164   3.397  18.887  0.00  0.00    +0.000 N 
ATOM      6  CA  UNL     1       4.204   3.179  17.922  0.00  0.00    +0.000 A 
ATOM      7  C   UNL     1       4.313   4.221  17.015  0.00  0.00    +0.000 A 
ATOM      8  C   UNL     1       5.384   5.061  17.427  0.00  0.00    +0.000 A 
ATOM      9  C   UNL     1       5.946   6.246  16.916  0.00  0.00    +0.000 A 
ATOM     10  H   UNL     1       5.300   2.800  19.693  0.00  0.00    +0.000 HD
ENDROOT
BRANCH   1  12
ATOM     11  C   UNL     1       8.113   8.921  17.851  0.00  0.00    +0.000 C 
ATOM     12  O   UNL     1       7.493   7.983  16.981  0.00  0.00    +0.000 OA
ENDBRANCH   1  12
BRANCH   6  13
ATOM     13  C   UNL     1       3.297   2.063  17.995  0.00  0.00    +0.000 C 
ATOM     14  O   UNL     1       2.081   2.150  17.933  0.00  0.00    +0.000 OA
BRANCH  13  15
ATOM     15  OXT UNL     1       3.940   0.887  18.195  0.00  0.00    +0.000 OA
ATOM     16  HXT UNL     1       4.001   0.349  17.387  0.00  0.00    +0.000 HD
ENDBRANCH  13  15
ENDBRANCH   6  13
TORSDOF 3
ENDMDL
MODEL 3
REMARK VINA RESULT:      -6.3      1.473      5.725
REMARK  Name = 
REMARK  4 active torsions:
REMARK  status: ('A' for Active; 'I' for Inactive)
REMARK    1  A    between atoms: C_1  and  O_2
REMARK    2  A    between atoms: O_2  and  C_3
REMARK    3  A    between atoms: CA_8  and  C_9
REMARK    4  A    between atoms: C_9  and  OXT_11
REMARK                            x       y       z     vdW  Elec       q    Type
REMARK                         _______ _______ _______ _____ _____    ______ ____
ROOT
ATOM      1  C   UNL     1       6.443   4.618  17.002  0.00  0.00    +0.000 A 
ATOM      2  C   UNL     1       6.546   5.097  18.307  0.00  0.00    +0.000 A 
ATOM      3  C   UNL     1       5.493   4.945  19.221  0.00  0.00    +0.000 A 
ATOM      4  C   UNL     1       4.338   4.294  18.776  0.00  0.00    +0.000 A 
ATOM      5  N   UNL     1       3.156   4.024  19.428  0.00  0.00    +0.000 N 
ATOM      6  CA  UNL     1       2.291   3.328  18.610  0.00  0.00    +0.000 A 
ATOM      7  C   UNL     1       2.924   3.203  17.384  0.00  0.00    +0.000 A 
ATOM      8  C   UNL     1       4.207   3.804  17.480  0.00  0.00    +0.000 A 
ATOM      9  C   UNL     1       5.271   3.983  16.577  0.00  0.00    +0.000 A 
ATOM     10  H   UNL     1       2.945   4.282  20.384  0.00  0.00    +0.000 HD
ENDROOT
BRANCH   1  12
ATOM     11  C   UNL     1       6.931   4.807  14.692  0.00  0.00    +0.000 C 
ATOM     12  O   UNL     1       7.403   4.741  16.032  0.00  0.00    +0.000 OA
ENDBRANCH   1  12
BRANCH   6  13
ATOM     13  C   UNL     1       0.988   2.915  19.064  0.00  0.00    +0.000 C 
ATOM     14  O   UNL     1       0.251   2.150  18.462  0.00  0.00    +0.000 OA
BRANCH  13  15
ATOM     15  OXT UNL     1       0.634   3.511  20.228  0.00  0.00    +0.000 OA
ATOM     16  HXT UNL     1      -0.326   3.498  20.382  0.00  0.00    +0.000 HD
ENDBRANCH  13  15
ENDBRANCH   6  13
TORSDOF 3
ENDMDL
MODEL 4
REMARK VINA RESULT:      -6.3      1.939      5.741
REMARK  Name = 
REMARK  4 active torsions:
REMARK  status: ('A' for Active; 'I' for Inactive)
REMARK    1  A    between atoms: C_1  and  O_2
REMARK    2  A    between atoms: O_2  and  C_3
REMARK    3  A    between atoms: CA_8  and  C_9
REMARK    4  A    between atoms: C_9  and  OXT_11
REMARK                            x       y       z     vdW  Elec       q    Type
REMARK                         _______ _______ _______ _____ _____    ______ ____
ROOT
ATOM      1  C   UNL     1       5.457   5.700  16.208  0.00  0.00    +0.000 A 
ATOM      2  C   UNL     1       4.939   6.784  16.915  0.00  0.00    +0.000 A 
ATOM      3  C   UNL     1       3.815   6.641  17.742  0.00  0.00    +0.000 A 
ATOM      4  C   UNL     1       3.235   5.372  17.832  0.00  0.00    +0.000 A 
ATOM      5  N   UNL     1       2.131   4.940  18.533  0.00  0.00    +0.000 N 
ATOM      6  CA  UNL     1       1.934   3.587  18.356  0.00  0.00    +0.000 A 
ATOM      7  C   UNL     1       2.911   3.159  17.471  0.00  0.00    +0.000 A 
ATOM      8  C   UNL     1       3.731   4.271  17.140  0.00  0.00    +0.000 A 
ATOM      9  C   UNL     1       4.850   4.444  16.304  0.00  0.00    +0.000 A 
ATOM     10  H   UNL     1       1.545   5.525  19.116  0.00  0.00    +0.000 HD
ENDROOT
BRANCH   1  12
ATOM     11  C   UNL     1       6.785   4.564  14.610  0.00  0.00    +0.000 C 
ATOM     12  O   UNL     1       6.531   5.746  15.359  0.00  0.00    +0.000 OA
ENDBRANCH   1  12
BRANCH   6  13
ATOM     13  C   UNL     1       0.848   2.891  18.996  0.00  0.00    +0.000 C 
ATOM     14  O   UNL     1       0.220   1.971  18.496  0.00  0.00    +0.000 OA
BRANCH  13  15
ATOM     15  OXT UNL     1       0.554   3.404  20.216  0.00  0.00    +0.000 OA
ATOM     16  HXT UNL     1       0.729   4.359  20.275  0.00  0.00    +0.000 HD
ENDBRANCH  13  15
ENDBRANCH   6  13
TORSDOF 3
ENDMDL
MODEL 5
REMARK VINA RESULT:      -6.3      2.672      3.984
REMARK  Name = 
REMARK  4 active torsions:
REMARK  status: ('A' for Active; 'I' for Inactive)
REMARK    1  A    between atoms: C_1  and  O_2
REMARK    2  A    between atoms: O_2  and  C_3
REMARK    3  A    between atoms: CA_8  and  C_9
REMARK    4  A    between atoms: C_9  and  OXT_11
REMARK                            x       y       z     vdW  Elec       q    Type
REMARK                         _______ _______ _______ _____ _____    ______ ____
ROOT
ATOM      1  C   UNL     1       5.068   4.296  18.426  0.00  0.00    +0.000 A 
ATOM      2  C   UNL     1       6.204   5.029  18.767  0.00  0.00    +0.000 A 
ATOM      3  C   UNL     1       7.125   5.436  17.790  0.00  0.00    +0.000 A 
ATOM      4  C   UNL     1       6.862   5.080  16.464  0.00  0.00    +0.000 A 
ATOM      5  N   UNL     1       7.583   5.314  15.314  0.00  0.00    +0.000 N 
ATOM      6  CA  UNL     1       6.930   4.806  14.212  0.00  0.00    +0.000 A 
ATOM      7  C   UNL     1       5.787   4.181  14.684  0.00  0.00    +0.000 A 
ATOM      8  C   UNL     1       5.736   4.350  16.094  0.00  0.00    +0.000 A 
ATOM      9  C   UNL     1       4.835   3.940  17.094  0.00  0.00    +0.000 A 
ATOM     10  H   UNL     1       8.467   5.807  15.271  0.00  0.00    +0.000 HD
ENDROOT
BRANCH   1  12
ATOM     11  C   UNL     1       4.279   2.483  19.730  0.00  0.00    +0.000 C 
ATOM     12  O   UNL     1       4.128   3.833  19.308  0.00  0.00    +0.000 OA
ENDBRANCH   1  12
BRANCH   6  13
ATOM     13  C   UNL     1       7.476   4.933  12.884  0.00  0.00    +0.000 C 
ATOM     14  O   UNL     1       7.203   4.200  11.947  0.00  0.00    +0.000 OA
BRANCH  13  15
ATOM     15  OXT UNL     1       8.378   5.940  12.792  0.00  0.00    +0.000 OA
ATOM     16  HXT UNL     1       8.191   6.547  12.056  0.00  0.00    +0.000 HD
ENDBRANCH  13  15
ENDBRANCH   6  13
TORSDOF 3
ENDMDL
MODEL 6
REMARK VINA RESULT:      -6.1      1.606      5.720
REMARK  Name = 
REMARK  4 active torsions:
REMARK  status: ('A' for Active; 'I' for Inactive)
REMARK    1  A    between atoms: C_1  and  O_2
REMARK    2  A    between atoms: O_2  and  C_3
REMARK    3  A    between atoms: CA_8  and  C_9
REMARK    4  A    between atoms: C_9  and  OXT_11
REMARK                            x       y       z     vdW  Elec       q    Type
REMARK                         _______ _______ _______ _____ _____    ______ ____
ROOT
ATOM      1  C   UNL     1       6.687   5.170  16.579  0.00  0.00    +0.000 A 
ATOM      2  C   UNL     1       6.999   5.536  17.887  0.00  0.00    +0.000 A 
ATOM      3  C   UNL     1       6.203   5.125  18.966  0.00  0.00    +0.000 A 
ATOM      4  C   UNL     1       5.086   4.333  18.681  0.00  0.00    +0.000 A 
ATOM      5  N   UNL     1       4.124   3.808  19.515  0.00  0.00    +0.000 N 
ATOM      6  CA  UNL     1       3.213   3.056  18.804  0.00  0.00    +0.000 A 
ATOM      7  C   UNL     1       3.577   3.154  17.471  0.00  0.00    +0.000 A 
ATOM      8  C   UNL     1       4.750   3.951  17.385  0.00  0.00    +0.000 A 
ATOM      9  C   UNL     1       5.556   4.390  16.318  0.00  0.00    +0.000 A 
ATOM     10  H   UNL     1       4.090   3.936  20.519  0.00  0.00    +0.000 HD
ENDROOT
BRANCH   1  12
ATOM     11  C   UNL     1       7.037   4.877  14.255  0.00  0.00    +0.000 C 
ATOM     12  O   UNL     1       7.386   5.544  15.462  0.00  0.00    +0.000 OA
ENDBRANCH   1  12
BRANCH   6  13
ATOM     13  C   UNL     1       2.113   2.389  19.452  0.00  0.00    +0.000 C 
ATOM     14  O   UNL     1       1.875   2.442  20.648  0.00  0.00    +0.000 OA
BRANCH  13  15
ATOM     15  OXT UNL     1       1.384   1.640  18.590  0.00  0.00    +0.000 OA
ATOM     16  HXT UNL     1       1.915   0.961  18.138  0.00  0.00    +0.000 HD
ENDBRANCH  13  15
ENDBRANCH   6  13
TORSDOF 3
ENDMDL
MODEL 7
REMARK VINA RESULT:      -6.0      1.790      5.657
REMARK  Name = 
REMARK  4 active torsions:
REMARK  status: ('A' for Active; 'I' for Inactive)
REMARK    1  A    between atoms: C_1  and  O_2
REMARK    2  A    between atoms: O_2  and  C_3
REMARK    3  A    between atoms: CA_8  and  C_9
REMARK    4  A    between atoms: C_9  and  OXT_11
REMARK                            x       y       z     vdW  Elec       q    Type
REMARK                         _______ _______ _______ _____ _____    ______ ____
ROOT
ATOM      1  C   UNL     1       5.783   6.190  17.492  0.00  0.00    +0.000 A 
ATOM      2  C   UNL     1       6.385   5.307  18.387  0.00  0.00    +0.000 A 
ATOM      3  C   UNL     1       5.634   4.339  19.068  0.00  0.00    +0.000 A 
ATOM      4  C   UNL     1       4.259   4.291  18.816  0.00  0.00    +0.000 A 
ATOM      5  N   UNL     1       3.280   3.478  19.342  0.00  0.00    +0.000 N 
ATOM      6  CA  UNL     1       2.053   3.760  18.781  0.00  0.00    +0.000 A 
ATOM      7  C   UNL     1       2.250   4.820  17.913  0.00  0.00    +0.000 A 
ATOM      8  C   UNL     1       3.630   5.158  17.927  0.00  0.00    +0.000 A 
ATOM      9  C   UNL     1       4.404   6.132  17.268  0.00  0.00    +0.000 A 
ATOM     10  H   UNL     1       3.432   2.757  20.037  0.00  0.00    +0.000 HD
ENDROOT
BRANCH   1  12
ATOM     11  C   UNL     1       7.502   7.819  17.481  0.00  0.00    +0.000 C 
ATOM     12  O   UNL     1       6.426   7.184  16.802  0.00  0.00    +0.000 OA
ENDBRANCH   1  12
BRANCH   6  13
ATOM     13  C   UNL     1       0.865   3.036  19.157  0.00  0.00    +0.000 C 
ATOM     14  O   UNL     1       0.305   2.206  18.458  0.00  0.00    +0.000 OA
BRANCH  13  15
ATOM     15  OXT UNL     1       0.394   3.413  20.371  0.00  0.00    +0.000 OA
ATOM     16  HXT UNL     1      -0.542   3.182  20.500  0.00  0.00    +0.000 HD
ENDBRANCH  13  15
ENDBRANCH   6  13
TORSDOF 3
ENDMDL
MODEL 8
REMARK VINA RESULT:      -6.0      1.737      5.427
REMARK  Name = 
REMARK  4 active torsions:
REMARK  status: ('A' for Active; 'I' for Inactive)
REMARK    1  A    between atoms: C_1  and  O_2
REMARK    2  A    between atoms: O_2  and  C_3
REMARK    3  A    between atoms: CA_8  and  C_9
REMARK    4  A    between atoms: C_9  and  OXT_11
REMARK                            x       y       z     vdW  Elec       q    Type
REMARK                         _______ _______ _______ _____ _____    ______ ____
ROOT
ATOM      1  C   UNL     1       5.453   5.858  16.912  0.00  0.00    +0.000 A 
ATOM      2  C   UNL     1       5.210   4.643  16.274  0.00  0.00    +0.000 A 
ATOM      3  C   UNL     1       4.374   3.675  16.849  0.00  0.00    +0.000 A 
ATOM      4  C   UNL     1       3.791   3.974  18.085  0.00  0.00    +0.000 A 
ATOM      5  N   UNL     1       2.960   3.225  18.887  0.00  0.00    +0.000 N 
ATOM      6  CA  UNL     1       2.599   3.931  20.015  0.00  0.00    +0.000 A 
ATOM      7  C   UNL     1       3.266   5.143  19.952  0.00  0.00    +0.000 A 
ATOM      8  C   UNL     1       4.014   5.179  18.744  0.00  0.00    +0.000 A 
ATOM      9  C   UNL     1       4.870   6.128  18.155  0.00  0.00    +0.000 A 
ATOM     10  H   UNL     1       2.638   2.288  18.679  0.00  0.00    +0.000 HD
ENDROOT
BRANCH   1  12
ATOM     11  C   UNL     1       7.266   7.317  17.348  0.00  0.00    +0.000 C 
ATOM     12  O   UNL     1       6.272   6.851  16.445  0.00  0.00    +0.000 OA
ENDBRANCH   1  12
BRANCH   6  13
ATOM     13  C   UNL     1       1.721   3.369  21.010  0.00  0.00    +0.000 C 
ATOM     14  O   UNL     1       2.050   3.097  22.153  0.00  0.00    +0.000 OA
BRANCH  13  15
ATOM     15  OXT UNL     1       0.481   3.121  20.522  0.00  0.00    +0.000 OA
ATOM     16  HXT UNL     1       0.415   3.275  19.564  0.00  0.00    +0.000 HD
ENDBRANCH  13  15
ENDBRANCH   6  13
TORSDOF 3
ENDMDL
MODEL 9
REMARK VINA RESULT:      -6.0      1.781      5.731
REMARK  Name = 
REMARK  4 active torsions:
REMARK  status: ('A' for Active; 'I' for Inactive)
REMARK    1  A    between atoms: C_1  and  O_2
REMARK    2  A    between atoms: O_2  and  C_3
REMARK    3  A    between atoms: CA_8  and  C_9
REMARK    4  A    between atoms: C_9  and  OXT_11
REMARK                            x       y       z     vdW  Elec       q    Type
REMARK                         _______ _______ _______ _____ _____    ______ ____
ROOT
ATOM      1  C   UNL     1       6.818   4.873  16.575  0.00  0.00    +0.000 A 
ATOM      2  C   UNL     1       7.436   5.256  17.764  0.00  0.00    +0.000 A 
ATOM      3  C   UNL     1       6.693   5.462  18.935  0.00  0.00    +0.000 A 
ATOM      4  C   UNL     1       5.310   5.268  18.867  0.00  0.00    +0.000 A 
ATOM      5  N   UNL     1       4.337   5.415  19.830  0.00  0.00    +0.000 N 
ATOM      6  CA  UNL     1       3.095   5.086  19.330  0.00  0.00    +0.000 A 
ATOM      7  C   UNL     1       3.280   4.774  17.993  0.00  0.00    +0.000 A 
ATOM      8  C   UNL     1       4.665   4.884  17.695  0.00  0.00    +0.000 A 
ATOM      9  C   UNL     1       5.430   4.699  16.529  0.00  0.00    +0.000 A 
ATOM     10  H   UNL     1       4.501   5.709  20.785  0.00  0.00    +0.000 HD
ENDROOT
BRANCH   1  12
ATOM     11  C   UNL     1       6.610   4.441  14.256  0.00  0.00    +0.000 C 
ATOM     12  O   UNL     1       7.452   4.674  15.378  0.00  0.00    +0.000 OA
ENDBRANCH   1  12
BRANCH   6  13
ATOM     13  C   UNL     1       1.910   5.145  20.146  0.00  0.00    +0.000 C 
ATOM     14  O   UNL     1       1.017   4.313  20.138  0.00  0.00    +0.000 OA
BRANCH  13  15
ATOM     15  OXT UNL     1       1.862   6.267  20.905  0.00  0.00    +0.000 OA
ATOM     16  HXT UNL     1       2.612   6.337  21.521  0.00  0.00    +0.000 HD
ENDBRANCH  13  15
ENDBRANCH   6  13
TORSDOF 3
ENDMDL
