MODEL 1
REMARK VINA RESULT:      -7.2      0.000      0.000
REMARK  Name = 
REMARK  5 active torsions:
REMARK  status: ('A' for Active; 'I' for Inactive)
REMARK    1  A    between atoms: C_1  and  C_2
REMARK    2  A    between atoms: C_4  and  C_5
REMARK    3  A    between atoms: N_7  and  N_8
REMARK    4  A    between atoms: C_9  and  C_11
REMARK    5  A    between atoms: C_15  and  C_16
REMARK                            x       y       z     vdW  Elec       q    Type
REMARK                         _______ _______ _______ _____ _____    ______ ____
ROOT
ATOM      1  N   UNL     1       2.012   7.819  18.065  0.00  0.00    +0.000 N 
ATOM      2  C   UNL     1       3.187   7.169  17.748  0.00  0.00    +0.000 C 
ATOM      3  O   UNL     1       4.208   7.758  17.402  0.00  0.00    +0.000 OA
ATOM      4  H   UNL     1       1.220   7.367  18.517  0.00  0.00    +0.000 HD
ENDROOT
BRANCH   2   5
ATOM      5  C   UNL     1       3.174   5.683  17.866  0.00  0.00    +0.000 A 
ATOM      6  C   UNL     1       4.130   4.955  17.143  0.00  0.00    +0.000 A 
ATOM      7  C   UNL     1       4.135   3.561  17.185  0.00  0.00    +0.000 A 
ATOM      8  C   UNL     1       3.175   2.880  17.934  0.00  0.00    +0.000 A 
ATOM      9  C   UNL     1       2.200   3.587  18.652  0.00  0.00    +0.000 A 
ATOM     10  C   UNL     1       2.212   4.996  18.621  0.00  0.00    +0.000 A 
BRANCH   9  11
ATOM     11  C   UNL     1       1.132   2.853  19.432  0.00  0.00    +0.000 C 
ATOM     12  F   UNL     1       1.626   1.904  20.274  0.00  0.00    +0.000 F 
ATOM     13  F   UNL     1       0.389   3.691  20.206  0.00  0.00    +0.000 F 
ATOM     14  F   UNL     1       0.249   2.210  18.619  0.00  0.00    +0.000 F 
ENDBRANCH   9  11
ENDBRANCH   2   5
BRANCH   1  17
ATOM     15  C   UNL     1       1.266   9.901  18.981  0.00  0.00    +0.000 C 
ATOM     16  O   UNL     1       0.719   9.319  19.919  0.00  0.00    +0.000 OA
ATOM     17  N   UNL     1       1.972   9.221  18.009  0.00  0.00    +0.000 N 
ATOM     18  H   UNL     1       2.399   9.698  17.214  0.00  0.00    +0.000 HD
BRANCH  15  22
ATOM     19  C   UNL     1       2.932  14.497  18.002  0.00  0.00    +0.000 C 
ATOM     20  C   UNL     1       2.004  13.388  18.359  0.00  0.00    +0.000 A 
ATOM     21  N   UNL     1       2.335  12.114  18.438  0.00  0.00    +0.000 NA
ATOM     22  C   UNL     1       1.218  11.354  18.806  0.00  0.00    +0.000 A 
ATOM     23  C   UNL     1       0.062  12.093  18.986  0.00  0.00    +0.000 A 
ATOM     24  S   UNL     1       0.358  13.752  18.705  0.00  0.00    +0.000 S 
ENDBRANCH  15  22
ENDBRANCH   1  17
TORSDOF 4
ENDMDL
MODEL 2
REMARK VINA RESULT:      -7.2      2.581      2.932
REMARK  Name = 
REMARK  5 active torsions:
REMARK  status: ('A' for Active; 'I' for Inactive)
REMARK    1  A    between atoms: C_1  and  C_2
REMARK    2  A    between atoms: C_4  and  C_5
REMARK    3  A    between atoms: N_7  and  N_8
REMARK    4  A    between atoms: C_9  and  C_11
REMARK    5  A    between atoms: C_15  and  C_16
REMARK                            x       y       z     vdW  Elec       q    Type
REMARK                         _______ _______ _______ _____ _____    ______ ____
ROOT
ATOM      1  N   UNL     1       1.756   7.787  21.096  0.00  0.00    +0.000 N 
ATOM      2  C   UNL     1       2.115   7.553  19.785  0.00  0.00    +0.000 C 
ATOM      3  O   UNL     1       2.099   8.424  18.919  0.00  0.00    +0.000 OA
ATOM      4  H   UNL     1       1.929   7.132  21.855  0.00  0.00    +0.000 HD
ENDROOT
BRANCH   2   5
ATOM      5  C   UNL     1       2.557   6.168  19.457  0.00  0.00    +0.000 A 
ATOM      6  C   UNL     1       3.701   6.012  18.660  0.00  0.00    +0.000 A 
ATOM      7  C   UNL     1       4.133   4.739  18.288  0.00  0.00    +0.000 A 
ATOM      8  C   UNL     1       3.417   3.611  18.692  0.00  0.00    +0.000 A 
ATOM      9  C   UNL     1       2.262   3.745  19.476  0.00  0.00    +0.000 A 
ATOM     10  C   UNL     1       1.841   5.033  19.864  0.00  0.00    +0.000 A 
BRANCH   9  11
ATOM     11  C   UNL     1       1.459   2.529  19.882  0.00  0.00    +0.000 C 
ATOM     12  F   UNL     1       0.154   2.583  19.499  0.00  0.00    +0.000 F 
ATOM     13  F   UNL     1       1.958   1.379  19.351  0.00  0.00    +0.000 F 
ATOM     14  F   UNL     1       1.446   2.346  21.231  0.00  0.00    +0.000 F 
ENDBRANCH   9  11
ENDBRANCH   2   5
BRANCH   1  17
ATOM     15  C   UNL     1       0.032   9.319  21.737  0.00  0.00    +0.000 C 
ATOM     16  O   UNL     1      -0.812   8.423  21.701  0.00  0.00    +0.000 OA
ATOM     17  N   UNL     1       1.366   9.081  21.476  0.00  0.00    +0.000 N 
ATOM     18  H   UNL     1       2.061   9.828  21.475  0.00  0.00    +0.000 HD
BRANCH  15  22
ATOM     19  C   UNL     1       0.302  14.295  21.543  0.00  0.00    +0.000 C 
ATOM     20  C   UNL     1      -0.142  12.928  21.937  0.00  0.00    +0.000 A 
ATOM     21  N   UNL     1       0.349  11.801  21.459  0.00  0.00    +0.000 NA
ATOM     22  C   UNL     1      -0.295  10.710  22.057  0.00  0.00    +0.000 A 
ATOM     23  C   UNL     1      -1.271  11.060  22.974  0.00  0.00    +0.000 A 
ATOM     24  S   UNL     1      -1.392  12.759  23.107  0.00  0.00    +0.000 S 
ENDBRANCH  15  22
ENDBRANCH   1  17
TORSDOF 4
ENDMDL
MODEL 3
REMARK VINA RESULT:      -7.2      2.371      2.900
REMARK  Name = 
REMARK  5 active torsions:
REMARK  status: ('A' for Active; 'I' for Inactive)
REMARK    1  A    between atoms: C_1  and  C_2
REMARK    2  A    between atoms: C_4  and  C_5
REMARK    3  A    between atoms: N_7  and  N_8
REMARK    4  A    between atoms: C_9  and  C_11
REMARK    5  A    between atoms: C_15  and  C_16
REMARK                            x       y       z     vdW  Elec       q    Type
REMARK                         _______ _______ _______ _____ _____    ______ ____
ROOT
ATOM      1  N   UNL     1       1.812   8.107  19.543  0.00  0.00    +0.000 N 
ATOM      2  C   UNL     1       2.307   7.946  18.265  0.00  0.00    +0.000 C 
ATOM      3  O   UNL     1       2.269   8.830  17.414  0.00  0.00    +0.000 OA
ATOM      4  H   UNL     1       1.991   7.457  20.305  0.00  0.00    +0.000 HD
ENDROOT
BRANCH   2   5
ATOM      5  C   UNL     1       2.926   6.626  17.957  0.00  0.00    +0.000 A 
ATOM      6  C   UNL     1       4.156   6.615  17.284  0.00  0.00    +0.000 A 
ATOM      7  C   UNL     1       4.759   5.406  16.934  0.00  0.00    +0.000 A 
ATOM      8  C   UNL     1       4.129   4.198  17.235  0.00  0.00    +0.000 A 
ATOM      9  C   UNL     1       2.891   4.185  17.894  0.00  0.00    +0.000 A 
ATOM     10  C   UNL     1       2.297   5.410  18.261  0.00  0.00    +0.000 A 
BRANCH   9  11
ATOM     11  C   UNL     1       2.185   2.880  18.186  0.00  0.00    +0.000 C 
ATOM     12  F   UNL     1       2.558   2.309  19.364  0.00  0.00    +0.000 F 
ATOM     13  F   UNL     1       0.834   3.027  18.252  0.00  0.00    +0.000 F 
ATOM     14  F   UNL     1       2.415   1.943  17.225  0.00  0.00    +0.000 F 
ENDBRANCH   9  11
ENDBRANCH   2   5
BRANCH   1  17
ATOM     15  C   UNL     1       0.949   9.565  21.234  0.00  0.00    +0.000 C 
ATOM     16  O   UNL     1       1.208   8.741  22.111  0.00  0.00    +0.000 OA
ATOM     17  N   UNL     1       1.251   9.342  19.906  0.00  0.00    +0.000 N 
ATOM     18  H   UNL     1       1.009  10.011  19.174  0.00  0.00    +0.000 HD
BRANCH  15  22
ATOM     19  C   UNL     1      -2.234  12.782  23.329  0.00  0.00    +0.000 C 
ATOM     20  C   UNL     1      -1.136  12.251  22.473  0.00  0.00    +0.000 A 
ATOM     21  N   UNL     1      -0.746  10.991  22.429  0.00  0.00    +0.000 NA
ATOM     22  C   UNL     1       0.302  10.850  21.512  0.00  0.00    +0.000 A 
ATOM     23  C   UNL     1       0.679  12.029  20.892  0.00  0.00    +0.000 A 
ATOM     24  S   UNL     1      -0.280  13.331  21.443  0.00  0.00    +0.000 S 
ENDBRANCH  15  22
ENDBRANCH   1  17
TORSDOF 4
ENDMDL
MODEL 4
REMARK VINA RESULT:      -7.1      2.312      2.840
REMARK  Name = 
REMARK  5 active torsions:
REMARK  status: ('A' for Active; 'I' for Inactive)
REMARK    1  A    between atoms: C_1  and  C_2
REMARK    2  A    between atoms: C_4  and  C_5
REMARK    3  A    between atoms: N_7  and  N_8
REMARK    4  A    between atoms: C_9  and  C_11
REMARK    5  A    between atoms: C_15  and  C_16
REMARK                            x       y       z     vdW  Elec       q    Type
REMARK                         _______ _______ _______ _____ _____    ______ ____
ROOT
ATOM      1  N   UNL     1       1.681   8.315  19.478  0.00  0.00    +0.000 N 
ATOM      2  C   UNL     1       2.238   8.149  18.227  0.00  0.00    +0.000 C 
ATOM      3  O   UNL     1       2.211   9.017  17.359  0.00  0.00    +0.000 OA
ATOM      4  H   UNL     1       1.845   7.684  20.258  0.00  0.00    +0.000 HD
ENDROOT
BRANCH   2   5
ATOM      5  C   UNL     1       2.911   6.844  17.970  0.00  0.00    +0.000 A 
ATOM      6  C   UNL     1       4.191   6.862  17.399  0.00  0.00    +0.000 A 
ATOM      7  C   UNL     1       4.848   5.669  17.099  0.00  0.00    +0.000 A 
ATOM      8  C   UNL     1       4.224   4.446  17.349  0.00  0.00    +0.000 A 
ATOM      9  C   UNL     1       2.938   4.403  17.905  0.00  0.00    +0.000 A 
ATOM     10  C   UNL     1       2.288   5.613  18.223  0.00  0.00    +0.000 A 
BRANCH   9  11
ATOM     11  C   UNL     1       2.241   3.082  18.140  0.00  0.00    +0.000 C 
ATOM     12  F   UNL     1       2.458   2.167  17.155  0.00  0.00    +0.000 F 
ATOM     13  F   UNL     1       2.639   2.486  19.298  0.00  0.00    +0.000 F 
ATOM     14  F   UNL     1       0.890   3.219  18.233  0.00  0.00    +0.000 F 
ENDBRANCH   9  11
ENDBRANCH   2   5
BRANCH   1  17
ATOM     15  C   UNL     1       0.439   9.665  21.016  0.00  0.00    +0.000 C 
ATOM     16  O   UNL     1       0.453   8.764  21.855  0.00  0.00    +0.000 OA
ATOM     17  N   UNL     1       1.065   9.538  19.793  0.00  0.00    +0.000 N 
ATOM     18  H   UNL     1       1.029  10.271  19.085  0.00  0.00    +0.000 HD
BRANCH  15  22
ATOM     19  C   UNL     1      -1.175  13.682  23.492  0.00  0.00    +0.000 C 
ATOM     20  C   UNL     1      -0.935  12.725  22.376  0.00  0.00    +0.000 A 
ATOM     21  N   UNL     1      -0.254  11.599  22.471  0.00  0.00    +0.000 NA
ATOM     22  C   UNL     1      -0.236  10.947  21.232  0.00  0.00    +0.000 A 
ATOM     23  C   UNL     1      -0.908  11.619  20.227  0.00  0.00    +0.000 A 
ATOM     24  S   UNL     1      -1.580  13.074  20.819  0.00  0.00    +0.000 S 
ENDBRANCH  15  22
ENDBRANCH   1  17
TORSDOF 4
ENDMDL
MODEL 5
REMARK VINA RESULT:      -7.1      2.995      3.624
REMARK  Name = 
REMARK  5 active torsions:
REMARK  status: ('A' for Active; 'I' for Inactive)
REMARK    1  A    between atoms: C_1  and  C_2
REMARK    2  A    between atoms: C_4  and  C_5
REMARK    3  A    between atoms: N_7  and  N_8
REMARK    4  A    between atoms: C_9  and  C_11
REMARK    5  A    between atoms: C_15  and  C_16
REMARK                            x       y       z     vdW  Elec       q    Type
REMARK                         _______ _______ _______ _____ _____    ______ ____
ROOT
ATOM      1  N   UNL     1       1.691   7.406  21.363  0.00  0.00    +0.000 N 
ATOM      2  C   UNL     1       2.036   6.894  20.130  0.00  0.00    +0.000 C 
ATOM      3  O   UNL     1       2.165   7.589  19.126  0.00  0.00    +0.000 OA
ATOM      4  H   UNL     1       1.751   6.879  22.231  0.00  0.00    +0.000 HD
ENDROOT
BRANCH   2   5
ATOM      5  C   UNL     1       2.272   5.424  20.067  0.00  0.00    +0.000 A 
ATOM      6  C   UNL     1       2.129   4.681  21.247  0.00  0.00    +0.000 A 
ATOM      7  C   UNL     1       2.381   3.309  21.253  0.00  0.00    +0.000 A 
ATOM      8  C   UNL     1       2.795   2.669  20.084  0.00  0.00    +0.000 A 
ATOM      9  C   UNL     1       2.960   3.394  18.896  0.00  0.00    +0.000 A 
ATOM     10  C   UNL     1       2.686   4.777  18.893  0.00  0.00    +0.000 A 
BRANCH   9  11
ATOM     11  C   UNL     1       3.448   2.713  17.637  0.00  0.00    +0.000 C 
ATOM     12  F   UNL     1       4.608   3.233  17.149  0.00  0.00    +0.000 F 
ATOM     13  F   UNL     1       3.682   1.386  17.825  0.00  0.00    +0.000 F 
ATOM     14  F   UNL     1       2.545   2.796  16.621  0.00  0.00    +0.000 F 
ENDBRANCH   9  11
ENDBRANCH   2   5
BRANCH   1  17
ATOM     15  C   UNL     1       0.214   9.252  21.740  0.00  0.00    +0.000 C 
ATOM     16  O   UNL     1      -0.739   8.489  21.900  0.00  0.00    +0.000 OA
ATOM     17  N   UNL     1       1.491   8.790  21.495  0.00  0.00    +0.000 N 
ATOM     18  H   UNL     1       2.276   9.421  21.331  0.00  0.00    +0.000 HD
BRANCH  15  22
ATOM     19  C   UNL     1      -1.251  13.708  23.434  0.00  0.00    +0.000 C 
ATOM     20  C   UNL     1      -0.589  12.679  22.584  0.00  0.00    +0.000 A 
ATOM     21  N   UNL     1      -0.641  11.376  22.786  0.00  0.00    +0.000 NA
ATOM     22  C   UNL     1       0.086  10.710  21.792  0.00  0.00    +0.000 A 
ATOM     23  C   UNL     1       0.677  11.549  20.863  0.00  0.00    +0.000 A 
ATOM     24  S   UNL     1       0.325  13.183  21.217  0.00  0.00    +0.000 S 
ENDBRANCH  15  22
ENDBRANCH   1  17
TORSDOF 4
ENDMDL
MODEL 6
REMARK VINA RESULT:      -7.1      2.316      2.691
REMARK  Name = 
REMARK  5 active torsions:
REMARK  status: ('A' for Active; 'I' for Inactive)
REMARK    1  A    between atoms: C_1  and  C_2
REMARK    2  A    between atoms: C_4  and  C_5
REMARK    3  A    between atoms: N_7  and  N_8
REMARK    4  A    between atoms: C_9  and  C_11
REMARK    5  A    between atoms: C_15  and  C_16
REMARK                            x       y       z     vdW  Elec       q    Type
REMARK                         _______ _______ _______ _____ _____    ______ ____
ROOT
ATOM      1  N   UNL     1       1.780   8.148  19.622  0.00  0.00    +0.000 N 
ATOM      2  C   UNL     1       2.319   8.051  18.356  0.00  0.00    +0.000 C 
ATOM      3  O   UNL     1       2.333   8.985  17.559  0.00  0.00    +0.000 OA
ATOM      4  H   UNL     1       1.915   7.449  20.349  0.00  0.00    +0.000 HD
ENDROOT
BRANCH   2   5
ATOM      5  C   UNL     1       2.920   6.737  17.992  0.00  0.00    +0.000 A 
ATOM      6  C   UNL     1       4.116   6.738  17.259  0.00  0.00    +0.000 A 
ATOM      7  C   UNL     1       4.698   5.536  16.856  0.00  0.00    +0.000 A 
ATOM      8  C   UNL     1       4.082   4.323  17.164  0.00  0.00    +0.000 A 
ATOM      9  C   UNL     1       2.878   4.298  17.881  0.00  0.00    +0.000 A 
ATOM     10  C   UNL     1       2.305   5.515  18.302  0.00  0.00    +0.000 A 
BRANCH   9  11
ATOM     11  C   UNL     1       2.185   2.988  18.181  0.00  0.00    +0.000 C 
ATOM     12  F   UNL     1       0.830   3.093  18.266  0.00  0.00    +0.000 F 
ATOM     13  F   UNL     1       2.429   2.044  17.232  0.00  0.00    +0.000 F 
ATOM     14  F   UNL     1       2.592   2.447  19.363  0.00  0.00    +0.000 F 
ENDBRANCH   9  11
ENDBRANCH   2   5
BRANCH   1  17
ATOM     15  C   UNL     1       0.999   9.567  21.384  0.00  0.00    +0.000 C 
ATOM     16  O   UNL     1       1.306   8.726  22.230  0.00  0.00    +0.000 OA
ATOM     17  N   UNL     1       1.232   9.372  20.038  0.00  0.00    +0.000 N 
ATOM     18  H   UNL     1       0.950  10.054  19.333  0.00  0.00    +0.000 HD
BRANCH  15  22
ATOM     19  C   UNL     1       0.290  14.503  21.468  0.00  0.00    +0.000 C 
ATOM     20  C   UNL     1       0.081  13.051  21.730  0.00  0.00    +0.000 A 
ATOM     21  N   UNL     1       0.845  12.077  21.273  0.00  0.00    +0.000 NA
ATOM     22  C   UNL     1       0.361  10.842  21.721  0.00  0.00    +0.000 A 
ATOM     23  C   UNL     1      -0.775  10.928  22.507  0.00  0.00    +0.000 A 
ATOM     24  S   UNL     1      -1.249  12.558  22.703  0.00  0.00    +0.000 S 
ENDBRANCH  15  22
ENDBRANCH   1  17
TORSDOF 4
ENDMDL
MODEL 7
REMARK VINA RESULT:      -7.1      3.028      3.617
REMARK  Name = 
REMARK  5 active torsions:
REMARK  status: ('A' for Active; 'I' for Inactive)
REMARK    1  A    between atoms: C_1  and  C_2
REMARK    2  A    between atoms: C_4  and  C_5
REMARK    3  A    between atoms: N_7  and  N_8
REMARK    4  A    between atoms: C_9  and  C_11
REMARK    5  A    between atoms: C_15  and  C_16
REMARK                            x       y       z     vdW  Elec       q    Type
REMARK                         _______ _______ _______ _____ _____    ______ ____
ROOT
ATOM      1  N   UNL     1       1.582   8.043  21.137  0.00  0.00    +0.000 N 
ATOM      2  C   UNL     1       1.948   7.766  19.836  0.00  0.00    +0.000 C 
ATOM      3  O   UNL     1       1.878   8.591  18.929  0.00  0.00    +0.000 OA
ATOM      4  H   UNL     1       1.795   7.437  21.925  0.00  0.00    +0.000 HD
ENDROOT
BRANCH   2   5
ATOM      5  C   UNL     1       2.465   6.393  19.572  0.00  0.00    +0.000 A 
ATOM      6  C   UNL     1       3.205   6.181  18.400  0.00  0.00    +0.000 A 
ATOM      7  C   UNL     1       3.676   4.906  18.084  0.00  0.00    +0.000 A 
ATOM      8  C   UNL     1       3.396   3.829  18.925  0.00  0.00    +0.000 A 
ATOM      9  C   UNL     1       2.644   4.015  20.094  0.00  0.00    +0.000 A 
ATOM     10  C   UNL     1       2.188   5.309  20.417  0.00  0.00    +0.000 A 
BRANCH   9  11
ATOM     11  C   UNL     1       2.303   2.843  20.987  0.00  0.00    +0.000 C 
ATOM     12  F   UNL     1       1.633   1.845  20.348  0.00  0.00    +0.000 F 
ATOM     13  F   UNL     1       3.411   2.265  21.527  0.00  0.00    +0.000 F 
ATOM     14  F   UNL     1       1.519   3.207  22.039  0.00  0.00    +0.000 F 
ENDBRANCH   9  11
ENDBRANCH   2   5
BRANCH   1  17
ATOM     15  C   UNL     1      -0.131   9.464  22.020  0.00  0.00    +0.000 C 
ATOM     16  O   UNL     1      -0.829   8.489  22.299  0.00  0.00    +0.000 OA
ATOM     17  N   UNL     1       1.123   9.331  21.456  0.00  0.00    +0.000 N 
ATOM     18  H   UNL     1       1.689  10.138  21.196  0.00  0.00    +0.000 HD
BRANCH  15  22
ATOM     19  C   UNL     1      -2.838  13.213  23.885  0.00  0.00    +0.000 C 
ATOM     20  C   UNL     1      -1.791  12.488  23.112  0.00  0.00    +0.000 A 
ATOM     21  N   UNL     1      -1.630  11.179  23.091  0.00  0.00    +0.000 NA
ATOM     22  C   UNL     1      -0.558  10.845  22.255  0.00  0.00    +0.000 A 
ATOM     23  C   UNL     1       0.068  11.933  21.671  0.00  0.00    +0.000 A 
ATOM     24  S   UNL     1      -0.682  13.390  22.154  0.00  0.00    +0.000 S 
ENDBRANCH  15  22
ENDBRANCH   1  17
TORSDOF 4
ENDMDL
MODEL 8
REMARK VINA RESULT:      -7.1      2.579      3.147
REMARK  Name = 
REMARK  5 active torsions:
REMARK  status: ('A' for Active; 'I' for Inactive)
REMARK    1  A    between atoms: C_1  and  C_2
REMARK    2  A    between atoms: C_4  and  C_5
REMARK    3  A    between atoms: N_7  and  N_8
REMARK    4  A    between atoms: C_9  and  C_11
REMARK    5  A    between atoms: C_15  and  C_16
REMARK                            x       y       z     vdW  Elec       q    Type
REMARK                         _______ _______ _______ _____ _____    ______ ____
ROOT
ATOM      1  N   UNL     1       1.610   7.266  21.135  0.00  0.00    +0.000 N 
ATOM      2  C   UNL     1       2.150   6.647  20.027  0.00  0.00    +0.000 C 
ATOM      3  O   UNL     1       2.520   7.260  19.029  0.00  0.00    +0.000 OA
ATOM      4  H   UNL     1       1.463   6.801  22.027  0.00  0.00    +0.000 HD
ENDROOT
BRANCH   2   5
ATOM      5  C   UNL     1       2.288   5.165  20.099  0.00  0.00    +0.000 A 
ATOM      6  C   UNL     1       2.079   4.542  21.337  0.00  0.00    +0.000 A 
ATOM      7  C   UNL     1       2.238   3.162  21.469  0.00  0.00    +0.000 A 
ATOM      8  C   UNL     1       2.626   2.395  20.370  0.00  0.00    +0.000 A 
ATOM      9  C   UNL     1       2.855   2.999  19.126  0.00  0.00    +0.000 A 
ATOM     10  C   UNL     1       2.675   4.391  18.995  0.00  0.00    +0.000 A 
BRANCH   9  11
ATOM     11  C   UNL     1       3.315   2.177  17.942  0.00  0.00    +0.000 C 
ATOM     12  F   UNL     1       2.323   1.897  17.052  0.00  0.00    +0.000 F 
ATOM     13  F   UNL     1       4.293   2.799  17.229  0.00  0.00    +0.000 F 
ATOM     14  F   UNL     1       3.831   0.974  18.317  0.00  0.00    +0.000 F 
ENDBRANCH   9  11
ENDBRANCH   2   5
BRANCH   1  17
ATOM     15  C   UNL     1       0.323   9.224  21.630  0.00  0.00    +0.000 C 
ATOM     16  O   UNL     1      -0.582   8.538  22.105  0.00  0.00    +0.000 OA
ATOM     17  N   UNL     1       1.488   8.665  21.142  0.00  0.00    +0.000 N 
ATOM     18  H   UNL     1       2.226   9.229  20.720  0.00  0.00    +0.000 HD
BRANCH  15  22
ATOM     19  C   UNL     1       1.444  13.813  20.032  0.00  0.00    +0.000 C 
ATOM     20  C   UNL     1       0.783  12.714  20.791  0.00  0.00    +0.000 A 
ATOM     21  N   UNL     1       1.055  11.429  20.662  0.00  0.00    +0.000 NA
ATOM     22  C   UNL     1       0.253  10.684  21.534  0.00  0.00    +0.000 A 
ATOM     23  C   UNL     1      -0.616  11.444  22.298  0.00  0.00    +0.000 A 
ATOM     24  S   UNL     1      -0.436  13.105  21.940  0.00  0.00    +0.000 S 
ENDBRANCH  15  22
ENDBRANCH   1  17
TORSDOF 4
ENDMDL
MODEL 9
REMARK VINA RESULT:      -7.0      4.368      7.472
REMARK  Name = 
REMARK  5 active torsions:
REMARK  status: ('A' for Active; 'I' for Inactive)
REMARK    1  A    between atoms: C_1  and  C_2
REMARK    2  A    between atoms: C_4  and  C_5
REMARK    3  A    between atoms: N_7  and  N_8
REMARK    4  A    between atoms: C_9  and  C_11
REMARK    5  A    between atoms: C_15  and  C_16
REMARK                            x       y       z     vdW  Elec       q    Type
REMARK                         _______ _______ _______ _____ _____    ______ ____
ROOT
ATOM      1  N   UNL     1       2.291   7.734  18.677  0.00  0.00    +0.000 N 
ATOM      2  C   UNL     1       1.908   9.007  18.310  0.00  0.00    +0.000 C 
ATOM      3  O   UNL     1       2.365   9.589  17.330  0.00  0.00    +0.000 OA
ATOM      4  H   UNL     1       1.802   7.175  19.372  0.00  0.00    +0.000 HD
ENDROOT
BRANCH   2   5
ATOM      5  C   UNL     1       0.873   9.659  19.162  0.00  0.00    +0.000 A 
ATOM      6  C   UNL     1       0.088  10.670  18.590  0.00  0.00    +0.000 A 
ATOM      7  C   UNL     1      -0.866  11.341  19.355  0.00  0.00    +0.000 A 
ATOM      8  C   UNL     1      -1.031  11.023  20.703  0.00  0.00    +0.000 A 
ATOM      9  C   UNL     1      -0.246  10.026  21.301  0.00  0.00    +0.000 A 
ATOM     10  C   UNL     1       0.703   9.339  20.517  0.00  0.00    +0.000 A 
BRANCH   9  11
ATOM     11  C   UNL     1      -0.392   9.706  22.772  0.00  0.00    +0.000 C 
ATOM     12  F   UNL     1      -1.041  10.672  23.479  0.00  0.00    +0.000 F 
ATOM     13  F   UNL     1      -1.087   8.556  22.984  0.00  0.00    +0.000 F 
ATOM     14  F   UNL     1       0.812   9.537  23.386  0.00  0.00    +0.000 F 
ENDBRANCH   9  11
ENDBRANCH   2   5
BRANCH   1  17
ATOM     15  C   UNL     1       4.014   6.082  18.490  0.00  0.00    +0.000 C 
ATOM     16  O   UNL     1       3.868   5.762  19.670  0.00  0.00    +0.000 OA
ATOM     17  N   UNL     1       3.234   7.052  17.892  0.00  0.00    +0.000 N 
ATOM     18  H   UNL     1       3.374   7.341  16.924  0.00  0.00    +0.000 HD
BRANCH  15  22
ATOM     19  C   UNL     1       5.923   4.042  14.360  0.00  0.00    +0.000 C 
ATOM     20  C   UNL     1       5.831   4.570  15.750  0.00  0.00    +0.000 A 
ATOM     21  N   UNL     1       4.749   5.091  16.296  0.00  0.00    +0.000 NA
ATOM     22  C   UNL     1       5.019   5.474  17.615  0.00  0.00    +0.000 A 
ATOM     23  C   UNL     1       6.319   5.231  18.022  0.00  0.00    +0.000 A 
ATOM     24  S   UNL     1       7.221   4.513  16.762  0.00  0.00    +0.000 S 
ENDBRANCH  15  22
ENDBRANCH   1  17
TORSDOF 4
ENDMDL
