MODEL 1
REMARK VINA RESULT:      -7.6      0.000      0.000
REMARK  Name = 
REMARK  10 active torsions:
REMARK  status: ('A' for Active; 'I' for Inactive)
REMARK    1  A    between atoms: C_1  and  O_2
REMARK    2  A    between atoms: O_2  and  C_3
REMARK    3  A    between atoms: C_6  and  S_7
REMARK    4  A    between atoms: S_7  and  N_10
REMARK    5  A    between atoms: C_12  and  C_13
REMARK    6  A    between atoms: C_12  and  C_14
REMARK    7  A    between atoms: C_15  and  C_16
REMARK    8  A    between atoms: C_16  and  O_17
REMARK    9  A    between atoms: C_18  and  C_19
REMARK   10  A    between atoms: N_21  and  O_22
REMARK                            x       y       z     vdW  Elec       q    Type
REMARK                         _______ _______ _______ _____ _____    ______ ____
ROOT
ATOM      1  N   UNL     1       2.842   5.063  18.151  0.00  0.00    +0.000 NA
ATOM      2  C   UNL     1       1.970   4.720  19.296  0.00  0.00    +0.000 C 
ATOM      3  C   UNL     1       1.959   3.187  19.425  0.00  0.00    +0.000 C 
ATOM      4  C   UNL     1       0.712   2.623  18.726  0.00  0.00    +0.000 C 
ATOM      5  C   UNL     1       1.909   2.812  20.918  0.00  0.00    +0.000 C 
ATOM      6  C   UNL     1       3.300   2.766  18.768  0.00  0.00    +0.000 C 
ATOM      7  C   UNL     1       3.537   3.823  17.655  0.00  0.00    +0.000 C 
ENDROOT
BRANCH   7   8
ATOM      8  C   UNL     1       5.030   3.910  17.295  0.00  0.00    +0.000 C 
ATOM      9  O   UNL     1       5.455   3.984  16.152  0.00  0.00    +0.000 OA
ATOM     10  N   UNL     1       5.882   3.947  18.382  0.00  0.00    +0.000 N 
ATOM     11  H   UNL     1       5.691   3.337  19.173  0.00  0.00    +0.000 HD
BRANCH  10  12
ATOM     12  O   UNL     1       7.262   4.021  18.039  0.00  0.00    +0.000 OA
ATOM     13  H   UNL     1       7.627   4.602  18.741  0.00  0.00    +0.000 HD
ENDBRANCH  10  12
ENDBRANCH   7   8
BRANCH   1  14
ATOM     14  S   UNL     1       3.667   6.537  18.256  0.00  0.00    +0.000 S 
ATOM     15  O   UNL     1       4.074   6.883  16.900  0.00  0.00    +0.000 OA
ATOM     16  O   UNL     1       4.627   6.446  19.333  0.00  0.00    +0.000 OA
BRANCH  14  20
ATOM     17  C   UNL     1       0.524   9.635  19.564  0.00  0.00    +0.000 A 
ATOM     18  C   UNL     1       0.910   9.540  18.223  0.00  0.00    +0.000 A 
ATOM     19  C   UNL     1       1.843   8.581  17.805  0.00  0.00    +0.000 A 
ATOM     20  C   UNL     1       2.393   7.702  18.748  0.00  0.00    +0.000 A 
ATOM     21  C   UNL     1       1.973   7.764  20.078  0.00  0.00    +0.000 A 
ATOM     22  C   UNL     1       1.073   8.750  20.494  0.00  0.00    +0.000 A 
BRANCH  17  24
ATOM     23  C   UNL     1      -0.731  11.485  18.781  0.00  0.00    +0.000 C 
ATOM     24  O   UNL     1      -0.377  10.620  19.860  0.00  0.00    +0.000 OA
ENDBRANCH  17  24
ENDBRANCH  14  20
ENDBRANCH   1  14
BRANCH   6  25
ATOM     25  C   UNL     1       3.370   1.313  18.261  0.00  0.00    +0.000 C 
BRANCH  25  26
ATOM     26  O   UNL     1       4.499   0.643  18.813  0.00  0.00    +0.000 OA
ATOM     27  H   UNL     1       4.915   0.131  18.098  0.00  0.00    +0.000 HD
ENDBRANCH  25  26
ENDBRANCH   6  25
TORSDOF 7
ENDMDL
MODEL 2
REMARK VINA RESULT:      -7.4      0.229      1.012
REMARK  Name = 
REMARK  10 active torsions:
REMARK  status: ('A' for Active; 'I' for Inactive)
REMARK    1  A    between atoms: C_1  and  O_2
REMARK    2  A    between atoms: O_2  and  C_3
REMARK    3  A    between atoms: C_6  and  S_7
REMARK    4  A    between atoms: S_7  and  N_10
REMARK    5  A    between atoms: C_12  and  C_13
REMARK    6  A    between atoms: C_12  and  C_14
REMARK    7  A    between atoms: C_15  and  C_16
REMARK    8  A    between atoms: C_16  and  O_17
REMARK    9  A    between atoms: C_18  and  C_19
REMARK   10  A    between atoms: N_21  and  O_22
REMARK                            x       y       z     vdW  Elec       q    Type
REMARK                         _______ _______ _______ _____ _____    ______ ____
ROOT
ATOM      1  N   UNL     1       2.902   5.108  18.094  0.00  0.00    +0.000 NA
ATOM      2  C   UNL     1       2.034   4.794  19.252  0.00  0.00    +0.000 C 
ATOM      3  C   UNL     1       1.991   3.263  19.396  0.00  0.00    +0.000 C 
ATOM      4  C   UNL     1       0.724   2.721  18.716  0.00  0.00    +0.000 C 
ATOM      5  C   UNL     1       1.949   2.903  20.893  0.00  0.00    +0.000 C 
ATOM      6  C   UNL     1       3.315   2.807  18.729  0.00  0.00    +0.000 C 
ATOM      7  C   UNL     1       3.564   3.847  17.603  0.00  0.00    +0.000 C 
ENDROOT
BRANCH   7   8
ATOM      8  C   UNL     1       5.053   3.898  17.226  0.00  0.00    +0.000 C 
ATOM      9  O   UNL     1       5.468   3.932  16.078  0.00  0.00    +0.000 OA
ATOM     10  N   UNL     1       5.917   3.951  18.304  0.00  0.00    +0.000 N 
ATOM     11  H   UNL     1       5.723   3.367  19.114  0.00  0.00    +0.000 HD
BRANCH  10  12
ATOM     12  O   UNL     1       7.295   3.990  17.946  0.00  0.00    +0.000 OA
ATOM     13  H   UNL     1       7.268   4.322  17.021  0.00  0.00    +0.000 HD
ENDBRANCH  10  12
ENDBRANCH   7   8
BRANCH   1  14
ATOM     14  S   UNL     1       3.761   6.563  18.177  0.00  0.00    +0.000 S 
ATOM     15  O   UNL     1       4.150   6.894  16.812  0.00  0.00    +0.000 OA
ATOM     16  O   UNL     1       4.737   6.458  19.237  0.00  0.00    +0.000 OA
BRANCH  14  20
ATOM     17  C   UNL     1       0.460   9.518  19.428  0.00  0.00    +0.000 A 
ATOM     18  C   UNL     1       1.044   8.668  20.373  0.00  0.00    +0.000 A 
ATOM     19  C   UNL     1       2.072   7.784  20.012  0.00  0.00    +0.000 A 
ATOM     20  C   UNL     1       2.521   7.759  18.685  0.00  0.00    +0.000 A 
ATOM     21  C   UNL     1       1.972   8.640  17.753  0.00  0.00    +0.000 A 
ATOM     22  C   UNL     1       0.919   9.489  18.110  0.00  0.00    +0.000 A 
BRANCH  17  24
ATOM     23  C   UNL     1      -1.412  10.866  18.892  0.00  0.00    +0.000 C 
ATOM     24  O   UNL     1      -0.546  10.322  19.888  0.00  0.00    +0.000 OA
ENDBRANCH  17  24
ENDBRANCH  14  20
ENDBRANCH   1  14
BRANCH   6  25
ATOM     25  C   UNL     1       3.347   1.348  18.235  0.00  0.00    +0.000 C 
BRANCH  25  26
ATOM     26  O   UNL     1       4.475   0.663  18.769  0.00  0.00    +0.000 OA
ATOM     27  H   UNL     1       4.840   0.102  18.062  0.00  0.00    +0.000 HD
ENDBRANCH  25  26
ENDBRANCH   6  25
TORSDOF 7
ENDMDL
MODEL 3
REMARK VINA RESULT:      -7.3      2.138      3.803
REMARK  Name = 
REMARK  10 active torsions:
REMARK  status: ('A' for Active; 'I' for Inactive)
REMARK    1  A    between atoms: C_1  and  O_2
REMARK    2  A    between atoms: O_2  and  C_3
REMARK    3  A    between atoms: C_6  and  S_7
REMARK    4  A    between atoms: S_7  and  N_10
REMARK    5  A    between atoms: C_12  and  C_13
REMARK    6  A    between atoms: C_12  and  C_14
REMARK    7  A    between atoms: C_15  and  C_16
REMARK    8  A    between atoms: C_16  and  O_17
REMARK    9  A    between atoms: C_18  and  C_19
REMARK   10  A    between atoms: N_21  and  O_22
REMARK                            x       y       z     vdW  Elec       q    Type
REMARK                         _______ _______ _______ _____ _____    ______ ____
ROOT
ATOM      1  N   UNL     1       4.297   5.923  18.732  0.00  0.00    +0.000 NA
ATOM      2  C   UNL     1       4.420   6.859  17.592  0.00  0.00    +0.000 C 
ATOM      3  C   UNL     1       5.656   6.437  16.778  0.00  0.00    +0.000 C 
ATOM      4  C   UNL     1       6.860   7.298  17.193  0.00  0.00    +0.000 C 
ATOM      5  C   UNL     1       5.370   6.663  15.282  0.00  0.00    +0.000 C 
ATOM      6  C   UNL     1       5.806   4.931  17.118  0.00  0.00    +0.000 C 
ATOM      7  C   UNL     1       5.297   4.807  18.580  0.00  0.00    +0.000 C 
ENDROOT
BRANCH   7   8
ATOM      8  C   UNL     1       4.845   3.369  18.880  0.00  0.00    +0.000 C 
ATOM      9  O   UNL     1       5.010   2.810  19.954  0.00  0.00    +0.000 OA
ATOM     10  N   UNL     1       4.179   2.747  17.842  0.00  0.00    +0.000 N 
ATOM     11  H   UNL     1       4.526   2.873  16.894  0.00  0.00    +0.000 HD
BRANCH  10  12
ATOM     12  O   UNL     1       3.770   1.413  18.126  0.00  0.00    +0.000 OA
ATOM     13  H   UNL     1       2.933   1.331  17.619  0.00  0.00    +0.000 HD
ENDBRANCH  10  12
ENDBRANCH   7   8
BRANCH   1  14
ATOM     14  S   UNL     1       2.726   5.612  19.277  0.00  0.00    +0.000 S 
ATOM     15  O   UNL     1       2.858   4.963  20.576  0.00  0.00    +0.000 OA
ATOM     16  O   UNL     1       1.982   5.002  18.199  0.00  0.00    +0.000 OA
BRANCH  14  20
ATOM     17  C   UNL     1       0.824   9.749  19.955  0.00  0.00    +0.000 A 
ATOM     18  C   UNL     1       0.967   8.852  21.019  0.00  0.00    +0.000 A 
ATOM     19  C   UNL     1       1.572   7.601  20.833  0.00  0.00    +0.000 A 
ATOM     20  C   UNL     1       2.044   7.249  19.562  0.00  0.00    +0.000 A 
ATOM     21  C   UNL     1       1.946   8.161  18.511  0.00  0.00    +0.000 A 
ATOM     22  C   UNL     1       1.304   9.390  18.694  0.00  0.00    +0.000 A 
BRANCH  17  24
ATOM     23  C   UNL     1      -0.250  11.080  21.593  0.00  0.00    +0.000 C 
ATOM     24  O   UNL     1       0.202  10.931  20.247  0.00  0.00    +0.000 OA
ENDBRANCH  17  24
ENDBRANCH  14  20
ENDBRANCH   1  14
BRANCH   6  25
ATOM     25  C   UNL     1       7.210   4.334  16.903  0.00  0.00    +0.000 C 
BRANCH  25  26
ATOM     26  O   UNL     1       7.909   4.240  18.140  0.00  0.00    +0.000 OA
ATOM     27  H   UNL     1       8.253   3.332  18.215  0.00  0.00    +0.000 HD
ENDBRANCH  25  26
ENDBRANCH   6  25
TORSDOF 7
ENDMDL
MODEL 4
REMARK VINA RESULT:      -7.2      2.094      3.629
REMARK  Name = 
REMARK  10 active torsions:
REMARK  status: ('A' for Active; 'I' for Inactive)
REMARK    1  A    between atoms: C_1  and  O_2
REMARK    2  A    between atoms: O_2  and  C_3
REMARK    3  A    between atoms: C_6  and  S_7
REMARK    4  A    between atoms: S_7  and  N_10
REMARK    5  A    between atoms: C_12  and  C_13
REMARK    6  A    between atoms: C_12  and  C_14
REMARK    7  A    between atoms: C_15  and  C_16
REMARK    8  A    between atoms: C_16  and  O_17
REMARK    9  A    between atoms: C_18  and  C_19
REMARK   10  A    between atoms: N_21  and  O_22
REMARK                            x       y       z     vdW  Elec       q    Type
REMARK                         _______ _______ _______ _____ _____    ______ ____
ROOT
ATOM      1  N   UNL     1       4.253   5.899  18.792  0.00  0.00    +0.000 NA
ATOM      2  C   UNL     1       4.366   6.840  17.655  0.00  0.00    +0.000 C 
ATOM      3  C   UNL     1       5.614   6.443  16.849  0.00  0.00    +0.000 C 
ATOM      4  C   UNL     1       6.799   7.326  17.273  0.00  0.00    +0.000 C 
ATOM      5  C   UNL     1       5.334   6.667  15.351  0.00  0.00    +0.000 C 
ATOM      6  C   UNL     1       5.792   4.939  17.186  0.00  0.00    +0.000 C 
ATOM      7  C   UNL     1       5.275   4.803  18.645  0.00  0.00    +0.000 C 
ENDROOT
BRANCH   7   8
ATOM      8  C   UNL     1       4.848   3.356  18.939  0.00  0.00    +0.000 C 
ATOM      9  O   UNL     1       4.994   2.806  20.020  0.00  0.00    +0.000 OA
ATOM     10  N   UNL     1       4.229   2.713  17.884  0.00  0.00    +0.000 N 
ATOM     11  H   UNL     1       4.601   2.843  16.947  0.00  0.00    +0.000 HD
BRANCH  10  12
ATOM     12  O   UNL     1       3.843   1.371  18.164  0.00  0.00    +0.000 OA
ATOM     13  H   UNL     1       3.684   1.390  19.133  0.00  0.00    +0.000 HD
ENDBRANCH  10  12
ENDBRANCH   7   8
BRANCH   1  14
ATOM     14  S   UNL     1       2.684   5.557  19.326  0.00  0.00    +0.000 S 
ATOM     15  O   UNL     1       2.818   4.940  20.640  0.00  0.00    +0.000 OA
ATOM     16  O   UNL     1       1.970   4.904  18.253  0.00  0.00    +0.000 OA
BRANCH  14  20
ATOM     17  C   UNL     1       0.969   9.777  19.994  0.00  0.00    +0.000 A 
ATOM     18  C   UNL     1       1.356   9.364  18.714  0.00  0.00    +0.000 A 
ATOM     19  C   UNL     1       1.851   8.071  18.491  0.00  0.00    +0.000 A 
ATOM     20  C   UNL     1       1.955   7.180  19.568  0.00  0.00    +0.000 A 
ATOM     21  C   UNL     1       1.524   7.575  20.835  0.00  0.00    +0.000 A 
ATOM     22  C   UNL     1       1.071   8.879  21.058  0.00  0.00    +0.000 A 
BRANCH  17  24
ATOM     23  C   UNL     1       0.135  11.689  18.873  0.00  0.00    +0.000 C 
ATOM     24  O   UNL     1       0.520  11.064  20.097  0.00  0.00    +0.000 OA
ENDBRANCH  17  24
ENDBRANCH  14  20
ENDBRANCH   1  14
BRANCH   6  25
ATOM     25  C   UNL     1       7.208   4.369  16.980  0.00  0.00    +0.000 C 
BRANCH  25  26
ATOM     26  O   UNL     1       7.890   4.261  18.225  0.00  0.00    +0.000 OA
ATOM     27  H   UNL     1       7.223   4.087  18.912  0.00  0.00    +0.000 HD
ENDBRANCH  25  26
ENDBRANCH   6  25
TORSDOF 7
ENDMDL
MODEL 5
REMARK VINA RESULT:      -6.8      2.100      3.783
REMARK  Name = 
REMARK  10 active torsions:
REMARK  status: ('A' for Active; 'I' for Inactive)
REMARK    1  A    between atoms: C_1  and  O_2
REMARK    2  A    between atoms: O_2  and  C_3
REMARK    3  A    between atoms: C_6  and  S_7
REMARK    4  A    between atoms: S_7  and  N_10
REMARK    5  A    between atoms: C_12  and  C_13
REMARK    6  A    between atoms: C_12  and  C_14
REMARK    7  A    between atoms: C_15  and  C_16
REMARK    8  A    between atoms: C_16  and  O_17
REMARK    9  A    between atoms: C_18  and  C_19
REMARK   10  A    between atoms: N_21  and  O_22
REMARK                            x       y       z     vdW  Elec       q    Type
REMARK                         _______ _______ _______ _____ _____    ______ ____
ROOT
ATOM      1  N   UNL     1       4.230   5.968  18.629  0.00  0.00    +0.000 NA
ATOM      2  C   UNL     1       4.348   6.968  17.543  0.00  0.00    +0.000 C 
ATOM      3  C   UNL     1       5.574   6.586  16.695  0.00  0.00    +0.000 C 
ATOM      4  C   UNL     1       6.787   7.415  17.147  0.00  0.00    +0.000 C 
ATOM      5  C   UNL     1       5.276   6.899  15.217  0.00  0.00    +0.000 C 
ATOM      6  C   UNL     1       5.719   5.062  16.946  0.00  0.00    +0.000 C 
ATOM      7  C   UNL     1       5.222   4.857  18.403  0.00  0.00    +0.000 C 
ENDROOT
BRANCH   7   8
ATOM      8  C   UNL     1       4.763   3.406  18.624  0.00  0.00    +0.000 C 
ATOM      9  O   UNL     1       4.092   2.772  17.825  0.00  0.00    +0.000 OA
ATOM     10  N   UNL     1       5.212   2.834  19.799  0.00  0.00    +0.000 N 
ATOM     11  H   UNL     1       5.207   3.394  20.648  0.00  0.00    +0.000 HD
BRANCH  10  12
ATOM     12  O   UNL     1       4.777   1.493  19.998  0.00  0.00    +0.000 OA
ATOM     13  H   UNL     1       4.397   1.258  19.123  0.00  0.00    +0.000 HD
ENDBRANCH  10  12
ENDBRANCH   7   8
BRANCH   1  14
ATOM     14  S   UNL     1       2.662   5.635  19.169  0.00  0.00    +0.000 S 
ATOM     15  O   UNL     1       2.801   4.879  20.408  0.00  0.00    +0.000 OA
ATOM     16  O   UNL     1       1.894   5.126  18.056  0.00  0.00    +0.000 OA
BRANCH  14  20
ATOM     17  C   UNL     1       0.831   9.725  20.221  0.00  0.00    +0.000 A 
ATOM     18  C   UNL     1       1.016   8.756  21.212  0.00  0.00    +0.000 A 
ATOM     19  C   UNL     1       1.600   7.517  20.912  0.00  0.00    +0.000 A 
ATOM     20  C   UNL     1       2.008   7.252  19.599  0.00  0.00    +0.000 A 
ATOM     21  C   UNL     1       1.869   8.235  18.619  0.00  0.00    +0.000 A 
ATOM     22  C   UNL     1       1.247   9.452  18.916  0.00  0.00    +0.000 A 
BRANCH  17  24
ATOM     23  C   UNL     1      -0.873  11.325  19.833  0.00  0.00    +0.000 C 
ATOM     24  O   UNL     1       0.234  10.888  20.623  0.00  0.00    +0.000 OA
ENDBRANCH  17  24
ENDBRANCH  14  20
ENDBRANCH   1  14
BRANCH   6  25
ATOM     25  C   UNL     1       7.117   4.470  16.685  0.00  0.00    +0.000 C 
BRANCH  25  26
ATOM     26  O   UNL     1       7.482   4.633  15.318  0.00  0.00    +0.000 OA
ATOM     27  H   UNL     1       6.690   4.462  14.779  0.00  0.00    +0.000 HD
ENDBRANCH  25  26
ENDBRANCH   6  25
TORSDOF 7
ENDMDL
MODEL 6
REMARK VINA RESULT:      -6.8      2.121      3.659
REMARK  Name = 
REMARK  10 active torsions:
REMARK  status: ('A' for Active; 'I' for Inactive)
REMARK    1  A    between atoms: C_1  and  O_2
REMARK    2  A    between atoms: O_2  and  C_3
REMARK    3  A    between atoms: C_6  and  S_7
REMARK    4  A    between atoms: S_7  and  N_10
REMARK    5  A    between atoms: C_12  and  C_13
REMARK    6  A    between atoms: C_12  and  C_14
REMARK    7  A    between atoms: C_15  and  C_16
REMARK    8  A    between atoms: C_16  and  O_17
REMARK    9  A    between atoms: C_18  and  C_19
REMARK   10  A    between atoms: N_21  and  O_22
REMARK                            x       y       z     vdW  Elec       q    Type
REMARK                         _______ _______ _______ _____ _____    ______ ____
ROOT
ATOM      1  N   UNL     1       4.199   5.942  18.632  0.00  0.00    +0.000 NA
ATOM      2  C   UNL     1       4.314   6.944  17.549  0.00  0.00    +0.000 C 
ATOM      3  C   UNL     1       5.555   6.583  16.715  0.00  0.00    +0.000 C 
ATOM      4  C   UNL     1       6.749   7.431  17.181  0.00  0.00    +0.000 C 
ATOM      5  C   UNL     1       5.269   6.893  15.233  0.00  0.00    +0.000 C 
ATOM      6  C   UNL     1       5.721   5.061  16.966  0.00  0.00    +0.000 C 
ATOM      7  C   UNL     1       5.211   4.847  18.417  0.00  0.00    +0.000 C 
ENDROOT
BRANCH   7   8
ATOM      8  C   UNL     1       4.773   3.389  18.632  0.00  0.00    +0.000 C 
ATOM      9  O   UNL     1       4.129   2.742  17.820  0.00  0.00    +0.000 OA
ATOM     10  N   UNL     1       5.208   2.827  19.816  0.00  0.00    +0.000 N 
ATOM     11  H   UNL     1       5.176   3.388  20.664  0.00  0.00    +0.000 HD
BRANCH  10  12
ATOM     12  O   UNL     1       4.792   1.478  20.010  0.00  0.00    +0.000 OA
ATOM     13  H   UNL     1       5.165   1.263  20.893  0.00  0.00    +0.000 HD
ENDBRANCH  10  12
ENDBRANCH   7   8
BRANCH   1  14
ATOM     14  S   UNL     1       2.630   5.583  19.155  0.00  0.00    +0.000 S 
ATOM     15  O   UNL     1       2.767   4.856  20.411  0.00  0.00    +0.000 OA
ATOM     16  O   UNL     1       1.892   5.035  18.040  0.00  0.00    +0.000 OA
BRANCH  14  20
ATOM     17  C   UNL     1       1.002   9.762  20.193  0.00  0.00    +0.000 A 
ATOM     18  C   UNL     1       1.343   9.442  18.875  0.00  0.00    +0.000 A 
ATOM     19  C   UNL     1       1.812   8.164  18.539  0.00  0.00    +0.000 A 
ATOM     20  C   UNL     1       1.934   7.193  19.541  0.00  0.00    +0.000 A 
ATOM     21  C   UNL     1       1.548   7.495  20.848  0.00  0.00    +0.000 A 
ATOM     22  C   UNL     1       1.121   8.784  21.183  0.00  0.00    +0.000 A 
BRANCH  17  24
ATOM     23  C   UNL     1       0.760  11.951  19.320  0.00  0.00    +0.000 C 
ATOM     24  O   UNL     1       0.576  11.043  20.407  0.00  0.00    +0.000 OA
ENDBRANCH  17  24
ENDBRANCH  14  20
ENDBRANCH   1  14
BRANCH   6  25
ATOM     25  C   UNL     1       7.131   4.492  16.719  0.00  0.00    +0.000 C 
BRANCH  25  26
ATOM     26  O   UNL     1       7.481   4.598  15.343  0.00  0.00    +0.000 OA
ATOM     27  H   UNL     1       7.956   3.784  15.097  0.00  0.00    +0.000 HD
ENDBRANCH  25  26
ENDBRANCH   6  25
TORSDOF 7
ENDMDL
MODEL 7
REMARK VINA RESULT:      -6.7      1.020      1.092
REMARK  Name = 
REMARK  10 active torsions:
REMARK  status: ('A' for Active; 'I' for Inactive)
REMARK    1  A    between atoms: C_1  and  O_2
REMARK    2  A    between atoms: O_2  and  C_3
REMARK    3  A    between atoms: C_6  and  S_7
REMARK    4  A    between atoms: S_7  and  N_10
REMARK    5  A    between atoms: C_12  and  C_13
REMARK    6  A    between atoms: C_12  and  C_14
REMARK    7  A    between atoms: C_15  and  C_16
REMARK    8  A    between atoms: C_16  and  O_17
REMARK    9  A    between atoms: C_18  and  C_19
REMARK   10  A    between atoms: N_21  and  O_22
REMARK                            x       y       z     vdW  Elec       q    Type
REMARK                         _______ _______ _______ _____ _____    ______ ____
ROOT
ATOM      1  N   UNL     1       3.390   5.110  17.736  0.00  0.00    +0.000 NA
ATOM      2  C   UNL     1       2.149   4.958  18.529  0.00  0.00    +0.000 C 
ATOM      3  C   UNL     1       2.173   3.555  19.161  0.00  0.00    +0.000 C 
ATOM      4  C   UNL     1       1.349   2.590  18.294  0.00  0.00    +0.000 C 
ATOM      5  C   UNL     1       1.544   3.629  20.565  0.00  0.00    +0.000 C 
ATOM      6  C   UNL     1       3.687   3.219  19.222  0.00  0.00    +0.000 C 
ATOM      7  C   UNL     1       4.294   3.931  17.982  0.00  0.00    +0.000 C 
ENDROOT
BRANCH   7   8
ATOM      8  C   UNL     1       5.797   4.187  18.183  0.00  0.00    +0.000 C 
ATOM      9  O   UNL     1       6.325   4.344  19.274  0.00  0.00    +0.000 OA
ATOM     10  N   UNL     1       6.542   4.181  17.019  0.00  0.00    +0.000 N 
ATOM     11  H   UNL     1       6.160   4.636  16.193  0.00  0.00    +0.000 HD
BRANCH  10  12
ATOM     12  O   UNL     1       7.931   4.425  17.214  0.00  0.00    +0.000 OA
ATOM     13  H   UNL     1       7.931   5.203  17.815  0.00  0.00    +0.000 HD
ENDBRANCH  10  12
ENDBRANCH   7   8
BRANCH   1  14
ATOM     14  S   UNL     1       4.018   6.677  17.625  0.00  0.00    +0.000 S 
ATOM     15  O   UNL     1       4.081   6.999  16.205  0.00  0.00    +0.000 OA
ATOM     16  O   UNL     1       5.185   6.762  18.472  0.00  0.00    +0.000 OA
BRANCH  14  20
ATOM     17  C   UNL     1       0.847   9.407  19.546  0.00  0.00    +0.000 A 
ATOM     18  C   UNL     1       1.193   9.561  18.199  0.00  0.00    +0.000 A 
ATOM     19  C   UNL     1       2.135   8.717  17.593  0.00  0.00    +0.000 A 
ATOM     20  C   UNL     1       2.733   7.701  18.350  0.00  0.00    +0.000 A 
ATOM     21  C   UNL     1       2.354   7.515  19.680  0.00  0.00    +0.000 A 
ATOM     22  C   UNL     1       1.445   8.387  20.288  0.00  0.00    +0.000 A 
BRANCH  17  24
ATOM     23  C   UNL     1      -0.826  11.011  19.059  0.00  0.00    +0.000 C 
ATOM     24  O   UNL     1      -0.067  10.298  20.035  0.00  0.00    +0.000 OA
ENDBRANCH  17  24
ENDBRANCH  14  20
ENDBRANCH   1  14
BRANCH   6  25
ATOM     25  C   UNL     1       4.037   1.721  19.304  0.00  0.00    +0.000 C 
BRANCH  25  26
ATOM     26  O   UNL     1       5.191   1.520  20.113  0.00  0.00    +0.000 OA
ATOM     27  H   UNL     1       5.808   2.250  19.931  0.00  0.00    +0.000 HD
ENDBRANCH  25  26
ENDBRANCH   6  25
TORSDOF 7
ENDMDL
MODEL 8
REMARK VINA RESULT:      -6.5      1.241      1.686
REMARK  Name = 
REMARK  10 active torsions:
REMARK  status: ('A' for Active; 'I' for Inactive)
REMARK    1  A    between atoms: C_1  and  O_2
REMARK    2  A    between atoms: O_2  and  C_3
REMARK    3  A    between atoms: C_6  and  S_7
REMARK    4  A    between atoms: S_7  and  N_10
REMARK    5  A    between atoms: C_12  and  C_13
REMARK    6  A    between atoms: C_12  and  C_14
REMARK    7  A    between atoms: C_15  and  C_16
REMARK    8  A    between atoms: C_16  and  O_17
REMARK    9  A    between atoms: C_18  and  C_19
REMARK   10  A    between atoms: N_21  and  O_22
REMARK                            x       y       z     vdW  Elec       q    Type
REMARK                         _______ _______ _______ _____ _____    ______ ____
ROOT
ATOM      1  N   UNL     1       3.471   5.084  17.656  0.00  0.00    +0.000 NA
ATOM      2  C   UNL     1       2.203   4.950  18.407  0.00  0.00    +0.000 C 
ATOM      3  C   UNL     1       2.204   3.564  19.073  0.00  0.00    +0.000 C 
ATOM      4  C   UNL     1       1.411   2.577  18.200  0.00  0.00    +0.000 C 
ATOM      5  C   UNL     1       1.525   3.670  20.451  0.00  0.00    +0.000 C 
ATOM      6  C   UNL     1       3.714   3.230  19.196  0.00  0.00    +0.000 C 
ATOM      7  C   UNL     1       4.366   3.912  17.962  0.00  0.00    +0.000 C 
ENDROOT
BRANCH   7   8
ATOM      8  C   UNL     1       5.860   4.173  18.211  0.00  0.00    +0.000 C 
ATOM      9  O   UNL     1       6.345   4.381  19.313  0.00  0.00    +0.000 OA
ATOM     10  N   UNL     1       6.651   4.109  17.079  0.00  0.00    +0.000 N 
ATOM     11  H   UNL     1       6.305   4.525  16.218  0.00  0.00    +0.000 HD
BRANCH  10  12
ATOM     12  O   UNL     1       8.033   4.359  17.318  0.00  0.00    +0.000 OA
ATOM     13  H   UNL     1       8.474   3.698  16.740  0.00  0.00    +0.000 HD
ENDBRANCH  10  12
ENDBRANCH   7   8
BRANCH   1  14
ATOM     14  S   UNL     1       4.103   6.648  17.529  0.00  0.00    +0.000 S 
ATOM     15  O   UNL     1       4.050   7.005  16.117  0.00  0.00    +0.000 OA
ATOM     16  O   UNL     1       5.339   6.703  18.277  0.00  0.00    +0.000 OA
BRANCH  14  20
ATOM     17  C   UNL     1       0.879   9.154  19.655  0.00  0.00    +0.000 A 
ATOM     18  C   UNL     1       1.548   8.132  20.338  0.00  0.00    +0.000 A 
ATOM     19  C   UNL     1       2.553   7.382  19.713  0.00  0.00    +0.000 A 
ATOM     20  C   UNL     1       2.894   7.665  18.384  0.00  0.00    +0.000 A 
ATOM     21  C   UNL     1       2.263   8.715  17.716  0.00  0.00    +0.000 A 
ATOM     22  C   UNL     1       1.232   9.431  18.333  0.00  0.00    +0.000 A 
BRANCH  17  24
ATOM     23  C   UNL     1      -0.413   9.259  21.637  0.00  0.00    +0.000 C 
ATOM     24  O   UNL     1      -0.095   9.806  20.357  0.00  0.00    +0.000 OA
ENDBRANCH  17  24
ENDBRANCH  14  20
ENDBRANCH   1  14
BRANCH   6  25
ATOM     25  C   UNL     1       4.060   1.735  19.326  0.00  0.00    +0.000 C 
BRANCH  25  26
ATOM     26  O   UNL     1       5.208   1.556  20.149  0.00  0.00    +0.000 OA
ATOM     27  H   UNL     1       5.947   2.032  19.730  0.00  0.00    +0.000 HD
ENDBRANCH  25  26
ENDBRANCH   6  25
TORSDOF 7
ENDMDL
MODEL 9
REMARK VINA RESULT:      -6.2      3.681      8.806
REMARK  Name = 
REMARK  10 active torsions:
REMARK  status: ('A' for Active; 'I' for Inactive)
REMARK    1  A    between atoms: C_1  and  O_2
REMARK    2  A    between atoms: O_2  and  C_3
REMARK    3  A    between atoms: C_6  and  S_7
REMARK    4  A    between atoms: S_7  and  N_10
REMARK    5  A    between atoms: C_12  and  C_13
REMARK    6  A    between atoms: C_12  and  C_14
REMARK    7  A    between atoms: C_15  and  C_16
REMARK    8  A    between atoms: C_16  and  O_17
REMARK    9  A    between atoms: C_18  and  C_19
REMARK   10  A    between atoms: N_21  and  O_22
REMARK                            x       y       z     vdW  Elec       q    Type
REMARK                         _______ _______ _______ _____ _____    ______ ____
ROOT
ATOM      1  N   UNL     1      -1.119  10.598  19.124  0.00  0.00    +0.000 NA
ATOM      2  C   UNL     1      -1.333   9.927  17.822  0.00  0.00    +0.000 C 
ATOM      3  C   UNL     1      -2.735  10.319  17.325  0.00  0.00    +0.000 C 
ATOM      4  C   UNL     1      -3.736   9.211  17.691  0.00  0.00    +0.000 C 
ATOM      5  C   UNL     1      -2.698  10.474  15.793  0.00  0.00    +0.000 C 
ATOM      6  C   UNL     1      -2.999  11.672  18.037  0.00  0.00    +0.000 C 
ATOM      7  C   UNL     1      -2.254  11.550  19.395  0.00  0.00    +0.000 C 
ENDROOT
BRANCH   7   8
ATOM      8  C   UNL     1      -1.927  12.940  19.964  0.00  0.00    +0.000 C 
ATOM      9  O   UNL     1      -2.082  13.253  21.135  0.00  0.00    +0.000 OA
ATOM     10  N   UNL     1      -1.389  13.824  19.049  0.00  0.00    +0.000 N 
ATOM     11  H   UNL     1      -1.779  13.853  18.110  0.00  0.00    +0.000 HD
BRANCH  10  12
ATOM     12  O   UNL     1      -1.097  15.111  19.584  0.00  0.00    +0.000 OA
ATOM     13  H   UNL     1      -1.842  15.260  20.206  0.00  0.00    +0.000 HD
ENDBRANCH  10  12
ENDBRANCH   7   8
BRANCH   1  14
ATOM     14  S   UNL     1       0.477  11.023  19.491  0.00  0.00    +0.000 S 
ATOM     15  O   UNL     1       0.518  11.285  20.924  0.00  0.00    +0.000 OA
ATOM     16  O   UNL     1       0.920  12.007  18.530  0.00  0.00    +0.000 OA
BRANCH  14  20
ATOM     17  C   UNL     1       2.692   7.069  18.685  0.00  0.00    +0.000 A 
ATOM     18  C   UNL     1       2.678   8.082  17.721  0.00  0.00    +0.000 A 
ATOM     19  C   UNL     1       2.033   9.303  17.965  0.00  0.00    +0.000 A 
ATOM     20  C   UNL     1       1.398   9.510  19.196  0.00  0.00    +0.000 A 
ATOM     21  C   UNL     1       1.453   8.519  20.177  0.00  0.00    +0.000 A 
ATOM     22  C   UNL     1       2.061   7.289  19.912  0.00  0.00    +0.000 A 
BRANCH  17  24
ATOM     23  C   UNL     1       2.490   4.825  17.955  0.00  0.00    +0.000 C 
ATOM     24  O   UNL     1       3.333   5.914  18.332  0.00  0.00    +0.000 OA
ENDBRANCH  17  24
ENDBRANCH  14  20
ENDBRANCH   1  14
BRANCH   6  25
ATOM     25  C   UNL     1      -4.478  12.075  18.182  0.00  0.00    +0.000 C 
BRANCH  25  26
ATOM     26  O   UNL     1      -4.980  12.590  16.953  0.00  0.00    +0.000 OA
ATOM     27  H   UNL     1      -4.835  11.912  16.270  0.00  0.00    +0.000 HD
ENDBRANCH  25  26
ENDBRANCH   6  25
TORSDOF 7
ENDMDL
