MODEL 1
REMARK VINA RESULT:      -7.4      0.000      0.000
REMARK  Name = 
REMARK  9 active torsions:
REMARK  status: ('A' for Active; 'I' for Inactive)
REMARK    1  A    between atoms: C_2  and  C_4
REMARK    2  A    between atoms: C_4  and  C_5
REMARK    3  A    between atoms: C_5  and  C_6
REMARK    4  A    between atoms: C_6  and  C_7
REMARK    5  A    between atoms: C_8  and  C_9
REMARK    6  A    between atoms: C_9  and  C_10
REMARK    7  A    between atoms: C_11  and  N_12
REMARK    8  A    between atoms: N_12  and  S_13
REMARK    9  A    between atoms: S_13  and  C_16
REMARK                            x       y       z     vdW  Elec       q    Type
REMARK                         _______ _______ _______ _____ _____    ______ ____
ROOT
ATOM      1  C   UNL     1       5.090   5.754  16.780  0.00  0.00    +0.000 C 
ATOM      2  C   UNL     1       5.214   4.807  18.007  0.00  0.00    +0.000 C 
ATOM      3  C   UNL     1       6.665   4.954  18.551  0.00  0.00    +0.000 C 
ATOM      4  C   UNL     1       7.399   5.861  17.621  0.00  0.00    +0.000 C 
ATOM      5  C   UNL     1       7.073   7.328  17.537  0.00  0.00    +0.000 C 
ATOM      6  C   UNL     1       6.468   6.343  16.567  0.00  0.00    +0.000 C 
ENDROOT
BRANCH   2   7
ATOM      7  N   UNL     1       4.981   3.377  17.683  0.00  0.00    +0.000 NA
ATOM      8  H   UNL     1       5.662   2.726  18.078  0.00  0.00    +0.000 HD
BRANCH   7   9
ATOM      9  S   UNL     1       3.468   2.629  17.649  0.00  0.00    +0.000 S 
ATOM     10  O   UNL     1       2.619   3.190  16.624  0.00  0.00    +0.000 OA
ATOM     11  O   UNL     1       3.770   1.214  17.662  0.00  0.00    +0.000 OA
BRANCH   9  12
ATOM     12  C   UNL     1       2.738   2.994  19.238  0.00  0.00    +0.000 A 
ATOM     13  C   UNL     1       3.251   2.509  20.443  0.00  0.00    +0.000 A 
ATOM     14  C   UNL     1       2.589   2.755  21.647  0.00  0.00    +0.000 A 
ATOM     15  C   UNL     1       1.403   3.481  21.649  0.00  0.00    +0.000 A 
ATOM     16  C   UNL     1       0.891   3.981  20.453  0.00  0.00    +0.000 A 
ATOM     17  C   UNL     1       1.557   3.743  19.251  0.00  0.00    +0.000 A 
ENDBRANCH   9  12
ENDBRANCH   7   9
ENDBRANCH   2   7
BRANCH   1  18
ATOM     18  C   UNL     1       4.056   6.889  16.968  0.00  0.00    +0.000 C 
BRANCH  18  20
ATOM     19  C   UNL     1       2.313   7.620  18.656  0.00  0.00    +0.000 C 
ATOM     20  C   UNL     1       3.328   6.837  18.273  0.00  0.00    +0.000 C 
BRANCH  19  21
ATOM     21  C   UNL     1       1.785   8.792  17.887  0.00  0.00    +0.000 C 
BRANCH  21  22
ATOM     22  C   UNL     1       1.300   9.928  18.789  0.00  0.00    +0.000 C 
BRANCH  22  23
ATOM     23  C   UNL     1       0.875   9.494  20.185  0.00  0.00    +0.000 C 
BRANCH  23  25
ATOM     24  O   UNL     1       0.407  10.196  22.444  0.00  0.00    +0.000 OA
ATOM     25  C   UNL     1       0.815  10.503  21.299  0.00  0.00    +0.000 C 
ATOM     26  O   UNL     1       1.353  11.629  21.034  0.00  0.00    +0.000 OA
ENDBRANCH  23  25
ENDBRANCH  22  23
ENDBRANCH  21  22
ENDBRANCH  19  21
ENDBRANCH  18  20
ENDBRANCH   1  18
TORSDOF 9
ENDMDL
MODEL 2
REMARK VINA RESULT:      -7.3      2.910      5.507
REMARK  Name = 
REMARK  9 active torsions:
REMARK  status: ('A' for Active; 'I' for Inactive)
REMARK    1  A    between atoms: C_2  and  C_4
REMARK    2  A    between atoms: C_4  and  C_5
REMARK    3  A    between atoms: C_5  and  C_6
REMARK    4  A    between atoms: C_6  and  C_7
REMARK    5  A    between atoms: C_8  and  C_9
REMARK    6  A    between atoms: C_9  and  C_10
REMARK    7  A    between atoms: C_11  and  N_12
REMARK    8  A    between atoms: N_12  and  S_13
REMARK    9  A    between atoms: S_13  and  C_16
REMARK                            x       y       z     vdW  Elec       q    Type
REMARK                         _______ _______ _______ _____ _____    ______ ____
ROOT
ATOM      1  C   UNL     1       4.657   4.027  19.035  0.00  0.00    +0.000 C 
ATOM      2  C   UNL     1       4.391   3.978  17.504  0.00  0.00    +0.000 C 
ATOM      3  C   UNL     1       3.361   2.836  17.257  0.00  0.00    +0.000 C 
ATOM      4  C   UNL     1       3.115   2.168  18.569  0.00  0.00    +0.000 C 
ATOM      5  C   UNL     1       2.372   2.866  19.676  0.00  0.00    +0.000 C 
ATOM      6  C   UNL     1       3.880   2.874  19.631  0.00  0.00    +0.000 C 
ENDROOT
BRANCH   2   7
ATOM      7  N   UNL     1       5.604   3.692  16.696  0.00  0.00    +0.000 NA
ATOM      8  H   UNL     1       5.475   3.011  15.945  0.00  0.00    +0.000 HD
BRANCH   7   9
ATOM      9  S   UNL     1       6.724   4.851  16.194  0.00  0.00    +0.000 S 
ATOM     10  O   UNL     1       6.231   6.193  16.401  0.00  0.00    +0.000 OA
ATOM     11  O   UNL     1       7.970   4.424  16.791  0.00  0.00    +0.000 OA
BRANCH   9  12
ATOM     12  C   UNL     1       6.901   4.588  14.435  0.00  0.00    +0.000 A 
ATOM     13  C   UNL     1       7.748   5.355  13.631  0.00  0.00    +0.000 A 
ATOM     14  C   UNL     1       7.781   5.163  12.250  0.00  0.00    +0.000 A 
ATOM     15  C   UNL     1       6.957   4.207  11.663  0.00  0.00    +0.000 A 
ATOM     16  C   UNL     1       6.120   3.428  12.460  0.00  0.00    +0.000 A 
ATOM     17  C   UNL     1       6.093   3.613  13.842  0.00  0.00    +0.000 A 
ENDBRANCH   9  12
ENDBRANCH   7   9
ENDBRANCH   2   7
BRANCH   1  18
ATOM     18  C   UNL     1       4.224   5.354  19.702  0.00  0.00    +0.000 C 
BRANCH  18  20
ATOM     19  C   UNL     1       2.433   7.027  19.058  0.00  0.00    +0.000 C 
ATOM     20  C   UNL     1       3.518   6.295  18.779  0.00  0.00    +0.000 C 
BRANCH  19  21
ATOM     21  C   UNL     1       1.637   6.950  20.324  0.00  0.00    +0.000 C 
BRANCH  21  22
ATOM     22  C   UNL     1       1.403   8.317  20.967  0.00  0.00    +0.000 C 
BRANCH  22  23
ATOM     23  C   UNL     1       0.099   8.439  21.743  0.00  0.00    +0.000 C 
BRANCH  23  25
ATOM     24  O   UNL     1       0.132   9.853  23.697  0.00  0.00    +0.000 OA
ATOM     25  C   UNL     1      -0.209   9.703  22.500  0.00  0.00    +0.000 C 
ATOM     26  O   UNL     1      -0.690  10.649  21.792  0.00  0.00    +0.000 OA
ENDBRANCH  23  25
ENDBRANCH  22  23
ENDBRANCH  21  22
ENDBRANCH  19  21
ENDBRANCH  18  20
ENDBRANCH   1  18
TORSDOF 9
ENDMDL
MODEL 3
REMARK VINA RESULT:      -7.3      1.736      4.612
REMARK  Name = 
REMARK  9 active torsions:
REMARK  status: ('A' for Active; 'I' for Inactive)
REMARK    1  A    between atoms: C_2  and  C_4
REMARK    2  A    between atoms: C_4  and  C_5
REMARK    3  A    between atoms: C_5  and  C_6
REMARK    4  A    between atoms: C_6  and  C_7
REMARK    5  A    between atoms: C_8  and  C_9
REMARK    6  A    between atoms: C_9  and  C_10
REMARK    7  A    between atoms: C_11  and  N_12
REMARK    8  A    between atoms: N_12  and  S_13
REMARK    9  A    between atoms: S_13  and  C_16
REMARK                            x       y       z     vdW  Elec       q    Type
REMARK                         _______ _______ _______ _____ _____    ______ ____
ROOT
ATOM      1  C   UNL     1       3.613   4.498  18.981  0.00  0.00    +0.000 C 
ATOM      2  C   UNL     1       3.487   4.046  17.499  0.00  0.00    +0.000 C 
ATOM      3  C   UNL     1       2.421   2.912  17.457  0.00  0.00    +0.000 C 
ATOM      4  C   UNL     1       2.016   2.631  18.866  0.00  0.00    +0.000 C 
ATOM      5  C   UNL     1       1.215   3.623  19.665  0.00  0.00    +0.000 C 
ATOM      6  C   UNL     1       2.719   3.573  19.777  0.00  0.00    +0.000 C 
ENDROOT
BRANCH   2   7
ATOM      7  N   UNL     1       4.751   3.516  16.927  0.00  0.00    +0.000 NA
ATOM      8  H   UNL     1       4.705   2.552  16.590  0.00  0.00    +0.000 HD
BRANCH   7   9
ATOM      9  S   UNL     1       5.805   4.389  15.940  0.00  0.00    +0.000 S 
ATOM     10  O   UNL     1       6.782   3.530  15.312  0.00  0.00    +0.000 OA
ATOM     11  O   UNL     1       4.935   5.222  15.139  0.00  0.00    +0.000 OA
BRANCH   9  12
ATOM     12  C   UNL     1       6.666   5.494  17.049  0.00  0.00    +0.000 A 
ATOM     13  C   UNL     1       6.868   6.848  16.772  0.00  0.00    +0.000 A 
ATOM     14  C   UNL     1       7.623   7.644  17.634  0.00  0.00    +0.000 A 
ATOM     15  C   UNL     1       8.191   7.085  18.774  0.00  0.00    +0.000 A 
ATOM     16  C   UNL     1       7.983   5.738  19.065  0.00  0.00    +0.000 A 
ATOM     17  C   UNL     1       7.220   4.944  18.209  0.00  0.00    +0.000 A 
ENDBRANCH   9  12
ENDBRANCH   7   9
ENDBRANCH   2   7
BRANCH   1  18
ATOM     18  C   UNL     1       3.197   5.968  19.223  0.00  0.00    +0.000 C 
BRANCH  18  20
ATOM     19  C   UNL     1       2.775   8.039  17.825  0.00  0.00    +0.000 C 
ATOM     20  C   UNL     1       3.351   6.848  18.023  0.00  0.00    +0.000 C 
BRANCH  19  21
ATOM     21  C   UNL     1       1.757   8.671  18.724  0.00  0.00    +0.000 C 
BRANCH  21  22
ATOM     22  C   UNL     1       1.211   9.989  18.175  0.00  0.00    +0.000 C 
BRANCH  22  23
ATOM     23  C   UNL     1       1.118  11.113  19.198  0.00  0.00    +0.000 C 
BRANCH  23  25
ATOM     24  O   UNL     1       1.123  10.886  21.598  0.00  0.00    +0.000 OA
ATOM     25  C   UNL     1       0.466  10.862  20.531  0.00  0.00    +0.000 C 
ATOM     26  O   UNL     1      -0.806  10.785  20.501  0.00  0.00    +0.000 OA
ENDBRANCH  23  25
ENDBRANCH  22  23
ENDBRANCH  21  22
ENDBRANCH  19  21
ENDBRANCH  18  20
ENDBRANCH   1  18
TORSDOF 9
ENDMDL
MODEL 4
REMARK VINA RESULT:      -7.3      1.787      4.649
REMARK  Name = 
REMARK  9 active torsions:
REMARK  status: ('A' for Active; 'I' for Inactive)
REMARK    1  A    between atoms: C_2  and  C_4
REMARK    2  A    between atoms: C_4  and  C_5
REMARK    3  A    between atoms: C_5  and  C_6
REMARK    4  A    between atoms: C_6  and  C_7
REMARK    5  A    between atoms: C_8  and  C_9
REMARK    6  A    between atoms: C_9  and  C_10
REMARK    7  A    between atoms: C_11  and  N_12
REMARK    8  A    between atoms: N_12  and  S_13
REMARK    9  A    between atoms: S_13  and  C_16
REMARK                            x       y       z     vdW  Elec       q    Type
REMARK                         _______ _______ _______ _____ _____    ______ ____
ROOT
ATOM      1  C   UNL     1       3.515   4.418  18.925  0.00  0.00    +0.000 C 
ATOM      2  C   UNL     1       3.509   3.889  17.463  0.00  0.00    +0.000 C 
ATOM      3  C   UNL     1       2.596   2.629  17.438  0.00  0.00    +0.000 C 
ATOM      4  C   UNL     1       2.170   2.361  18.843  0.00  0.00    +0.000 C 
ATOM      5  C   UNL     1       1.218   3.278  19.562  0.00  0.00    +0.000 C 
ATOM      6  C   UNL     1       2.710   3.423  19.732  0.00  0.00    +0.000 C 
ENDROOT
BRANCH   2   7
ATOM      7  N   UNL     1       4.853   3.499  16.965  0.00  0.00    +0.000 NA
ATOM      8  H   UNL     1       4.945   2.521  16.683  0.00  0.00    +0.000 HD
BRANCH   7   9
ATOM      9  S   UNL     1       5.824   4.448  15.961  0.00  0.00    +0.000 S 
ATOM     10  O   UNL     1       6.804   3.651  15.261  0.00  0.00    +0.000 OA
ATOM     11  O   UNL     1       4.884   5.270  15.230  0.00  0.00    +0.000 OA
BRANCH   9  12
ATOM     12  C   UNL     1       6.691   5.550  17.068  0.00  0.00    +0.000 A 
ATOM     13  C   UNL     1       6.922   6.897  16.777  0.00  0.00    +0.000 A 
ATOM     14  C   UNL     1       7.682   7.689  17.639  0.00  0.00    +0.000 A 
ATOM     15  C   UNL     1       8.222   7.134  18.795  0.00  0.00    +0.000 A 
ATOM     16  C   UNL     1       7.983   5.795  19.100  0.00  0.00    +0.000 A 
ATOM     17  C   UNL     1       7.217   5.005  18.244  0.00  0.00    +0.000 A 
ENDBRANCH   9  12
ENDBRANCH   7   9
ENDBRANCH   2   7
BRANCH   1  18
ATOM     18  C   UNL     1       2.908   5.833  19.079  0.00  0.00    +0.000 C 
BRANCH  18  20
ATOM     19  C   UNL     1       2.891   7.967  17.712  0.00  0.00    +0.000 C 
ATOM     20  C   UNL     1       3.481   6.846  18.139  0.00  0.00    +0.000 C 
BRANCH  19  21
ATOM     21  C   UNL     1       1.476   8.367  18.003  0.00  0.00    +0.000 C 
BRANCH  21  22
ATOM     22  C   UNL     1       1.356   9.310  19.200  0.00  0.00    +0.000 C 
BRANCH  22  23
ATOM     23  C   UNL     1       1.488   8.633  20.557  0.00  0.00    +0.000 C 
BRANCH  23  25
ATOM     24  O   UNL     1      -0.573   8.541  21.806  0.00  0.00    +0.000 OA
ATOM     25  C   UNL     1       0.575   9.030  21.686  0.00  0.00    +0.000 C 
ATOM     26  O   UNL     1       1.112   9.766  22.578  0.00  0.00    +0.000 OA
ENDBRANCH  23  25
ENDBRANCH  22  23
ENDBRANCH  21  22
ENDBRANCH  19  21
ENDBRANCH  18  20
ENDBRANCH   1  18
TORSDOF 9
ENDMDL
MODEL 5
REMARK VINA RESULT:      -7.3      1.412      1.821
REMARK  Name = 
REMARK  9 active torsions:
REMARK  status: ('A' for Active; 'I' for Inactive)
REMARK    1  A    between atoms: C_2  and  C_4
REMARK    2  A    between atoms: C_4  and  C_5
REMARK    3  A    between atoms: C_5  and  C_6
REMARK    4  A    between atoms: C_6  and  C_7
REMARK    5  A    between atoms: C_8  and  C_9
REMARK    6  A    between atoms: C_9  and  C_10
REMARK    7  A    between atoms: C_11  and  N_12
REMARK    8  A    between atoms: N_12  and  S_13
REMARK    9  A    between atoms: S_13  and  C_16
REMARK                            x       y       z     vdW  Elec       q    Type
REMARK                         _______ _______ _______ _____ _____    ______ ____
ROOT
ATOM      1  C   UNL     1       4.534   4.822  17.484  0.00  0.00    +0.000 C 
ATOM      2  C   UNL     1       5.143   4.510  18.880  0.00  0.00    +0.000 C 
ATOM      3  C   UNL     1       6.420   5.388  19.026  0.00  0.00    +0.000 C 
ATOM      4  C   UNL     1       6.618   6.104  17.731  0.00  0.00    +0.000 C 
ATOM      5  C   UNL     1       5.681   7.194  17.286  0.00  0.00    +0.000 C 
ATOM      6  C   UNL     1       5.498   5.774  16.810  0.00  0.00    +0.000 C 
ENDROOT
BRANCH   2   7
ATOM      7  N   UNL     1       5.535   3.088  19.056  0.00  0.00    +0.000 NA
ATOM      8  H   UNL     1       6.514   2.935  19.304  0.00  0.00    +0.000 HD
BRANCH   7   9
ATOM      9  S   UNL     1       4.590   1.914  19.815  0.00  0.00    +0.000 S 
ATOM     10  O   UNL     1       4.539   0.692  19.046  0.00  0.00    +0.000 OA
ATOM     11  O   UNL     1       5.063   1.904  21.182  0.00  0.00    +0.000 OA
BRANCH   9  12
ATOM     12  C   UNL     1       2.944   2.609  19.866  0.00  0.00    +0.000 A 
ATOM     13  C   UNL     1       2.472   3.374  20.935  0.00  0.00    +0.000 A 
ATOM     14  C   UNL     1       1.149   3.817  20.960  0.00  0.00    +0.000 A 
ATOM     15  C   UNL     1       0.288   3.489  19.918  0.00  0.00    +0.000 A 
ATOM     16  C   UNL     1       0.755   2.739  18.840  0.00  0.00    +0.000 A 
ATOM     17  C   UNL     1       2.080   2.302  18.810  0.00  0.00    +0.000 A 
ENDBRANCH   9  12
ENDBRANCH   7   9
ENDBRANCH   2   7
BRANCH   1  18
ATOM     18  C   UNL     1       3.125   5.457  17.546  0.00  0.00    +0.000 C 
BRANCH  18  20
ATOM     19  C   UNL     1       2.405   7.459  18.924  0.00  0.00    +0.000 C 
ATOM     20  C   UNL     1       2.848   6.202  18.813  0.00  0.00    +0.000 C 
BRANCH  19  21
ATOM     21  C   UNL     1       2.214   8.414  17.785  0.00  0.00    +0.000 C 
BRANCH  21  22
ATOM     22  C   UNL     1       1.565   9.730  18.213  0.00  0.00    +0.000 C 
BRANCH  22  23
ATOM     23  C   UNL     1       0.813   9.668  19.535  0.00  0.00    +0.000 C 
BRANCH  23  25
ATOM     24  O   UNL     1       1.258  11.887  20.367  0.00  0.00    +0.000 OA
ATOM     25  C   UNL     1       0.446  10.940  20.250  0.00  0.00    +0.000 C 
ATOM     26  O   UNL     1      -0.783  11.035  20.580  0.00  0.00    +0.000 OA
ENDBRANCH  23  25
ENDBRANCH  22  23
ENDBRANCH  21  22
ENDBRANCH  19  21
ENDBRANCH  18  20
ENDBRANCH   1  18
TORSDOF 9
ENDMDL
MODEL 6
REMARK VINA RESULT:      -7.2      1.927      4.616
REMARK  Name = 
REMARK  9 active torsions:
REMARK  status: ('A' for Active; 'I' for Inactive)
REMARK    1  A    between atoms: C_2  and  C_4
REMARK    2  A    between atoms: C_4  and  C_5
REMARK    3  A    between atoms: C_5  and  C_6
REMARK    4  A    between atoms: C_6  and  C_7
REMARK    5  A    between atoms: C_8  and  C_9
REMARK    6  A    between atoms: C_9  and  C_10
REMARK    7  A    between atoms: C_11  and  N_12
REMARK    8  A    between atoms: N_12  and  S_13
REMARK    9  A    between atoms: S_13  and  C_16
REMARK                            x       y       z     vdW  Elec       q    Type
REMARK                         _______ _______ _______ _____ _____    ______ ____
ROOT
ATOM      1  C   UNL     1       4.133   3.962  19.023  0.00  0.00    +0.000 C 
ATOM      2  C   UNL     1       3.766   4.010  17.513  0.00  0.00    +0.000 C 
ATOM      3  C   UNL     1       2.520   3.097  17.318  0.00  0.00    +0.000 C 
ATOM      4  C   UNL     1       2.232   2.452  18.634  0.00  0.00    +0.000 C 
ATOM      5  C   UNL     1       1.711   3.248  19.799  0.00  0.00    +0.000 C 
ATOM      6  C   UNL     1       3.185   2.965  19.652  0.00  0.00    +0.000 C 
ENDROOT
BRANCH   2   7
ATOM      7  N   UNL     1       4.846   3.518  16.621  0.00  0.00    +0.000 NA
ATOM      8  H   UNL     1       4.613   2.687  16.074  0.00  0.00    +0.000 HD
BRANCH   7   9
ATOM      9  S   UNL     1       5.866   4.504  15.705  0.00  0.00    +0.000 S 
ATOM     10  O   UNL     1       6.769   3.725  14.890  0.00  0.00    +0.000 OA
ATOM     11  O   UNL     1       4.977   5.471  15.100  0.00  0.00    +0.000 OA
BRANCH   9  12
ATOM     12  C   UNL     1       6.836   5.404  16.906  0.00  0.00    +0.000 A 
ATOM     13  C   UNL     1       7.405   4.804  18.031  0.00  0.00    +0.000 A 
ATOM     14  C   UNL     1       8.079   5.573  18.981  0.00  0.00    +0.000 A 
ATOM     15  C   UNL     1       8.178   6.950  18.814  0.00  0.00    +0.000 A 
ATOM     16  C   UNL     1       7.625   7.555  17.687  0.00  0.00    +0.000 A 
ATOM     17  C   UNL     1       6.959   6.787  16.732  0.00  0.00    +0.000 A 
ENDBRANCH   9  12
ENDBRANCH   7   9
ENDBRANCH   2   7
BRANCH   1  18
ATOM     18  C   UNL     1       4.010   5.328  19.739  0.00  0.00    +0.000 C 
BRANCH  18  20
ATOM     19  C   UNL     1       2.264   7.143  19.458  0.00  0.00    +0.000 C 
ATOM     20  C   UNL     1       3.224   6.346  18.976  0.00  0.00    +0.000 C 
BRANCH  19  21
ATOM     21  C   UNL     1       1.702   7.082  20.845  0.00  0.00    +0.000 C 
BRANCH  21  22
ATOM     22  C   UNL     1       0.477   7.977  21.033  0.00  0.00    +0.000 C 
BRANCH  22  23
ATOM     23  C   UNL     1       0.774   9.470  21.028  0.00  0.00    +0.000 C 
BRANCH  23  25
ATOM     24  O   UNL     1       0.363   9.832  23.377  0.00  0.00    +0.000 OA
ATOM     25  C   UNL     1       0.405  10.312  22.220  0.00  0.00    +0.000 C 
ATOM     26  O   UNL     1       0.300  11.561  21.983  0.00  0.00    +0.000 OA
ENDBRANCH  23  25
ENDBRANCH  22  23
ENDBRANCH  21  22
ENDBRANCH  19  21
ENDBRANCH  18  20
ENDBRANCH   1  18
TORSDOF 9
ENDMDL
MODEL 7
REMARK VINA RESULT:      -7.2      2.255      4.809
REMARK  Name = 
REMARK  9 active torsions:
REMARK  status: ('A' for Active; 'I' for Inactive)
REMARK    1  A    between atoms: C_2  and  C_4
REMARK    2  A    between atoms: C_4  and  C_5
REMARK    3  A    between atoms: C_5  and  C_6
REMARK    4  A    between atoms: C_6  and  C_7
REMARK    5  A    between atoms: C_8  and  C_9
REMARK    6  A    between atoms: C_9  and  C_10
REMARK    7  A    between atoms: C_11  and  N_12
REMARK    8  A    between atoms: N_12  and  S_13
REMARK    9  A    between atoms: S_13  and  C_16
REMARK                            x       y       z     vdW  Elec       q    Type
REMARK                         _______ _______ _______ _____ _____    ______ ____
ROOT
ATOM      1  C   UNL     1       3.635   4.845  19.025  0.00  0.00    +0.000 C 
ATOM      2  C   UNL     1       3.334   4.391  17.569  0.00  0.00    +0.000 C 
ATOM      3  C   UNL     1       2.126   3.411  17.638  0.00  0.00    +0.000 C 
ATOM      4  C   UNL     1       1.800   3.209  19.081  0.00  0.00    +0.000 C 
ATOM      5  C   UNL     1       1.204   4.314  19.912  0.00  0.00    +0.000 C 
ATOM      6  C   UNL     1       2.692   4.062  19.911  0.00  0.00    +0.000 C 
ENDROOT
BRANCH   2   7
ATOM      7  N   UNL     1       4.467   3.686  16.917  0.00  0.00    +0.000 NA
ATOM      8  H   UNL     1       4.241   2.770  16.526  0.00  0.00    +0.000 HD
BRANCH   7   9
ATOM      9  S   UNL     1       5.629   4.424  15.940  0.00  0.00    +0.000 S 
ATOM     10  O   UNL     1       6.542   3.457  15.376  0.00  0.00    +0.000 OA
ATOM     11  O   UNL     1       4.866   5.304  15.082  0.00  0.00    +0.000 OA
BRANCH   9  12
ATOM     12  C   UNL     1       6.552   5.485  17.043  0.00  0.00    +0.000 A 
ATOM     13  C   UNL     1       6.778   6.839  16.787  0.00  0.00    +0.000 A 
ATOM     14  C   UNL     1       7.580   7.598  17.639  0.00  0.00    +0.000 A 
ATOM     15  C   UNL     1       8.168   7.002  18.750  0.00  0.00    +0.000 A 
ATOM     16  C   UNL     1       7.935   5.655  19.022  0.00  0.00    +0.000 A 
ATOM     17  C   UNL     1       7.127   4.897  18.174  0.00  0.00    +0.000 A 
ENDBRANCH   9  12
ENDBRANCH   7   9
ENDBRANCH   2   7
BRANCH   1  18
ATOM     18  C   UNL     1       3.440   6.362  19.259  0.00  0.00    +0.000 C 
BRANCH  18  20
ATOM     19  C   UNL     1       2.559   8.225  17.783  0.00  0.00    +0.000 C 
ATOM     20  C   UNL     1       3.345   7.164  18.000  0.00  0.00    +0.000 C 
BRANCH  19  21
ATOM     21  C   UNL     1       1.521   8.743  18.731  0.00  0.00    +0.000 C 
BRANCH  21  22
ATOM     22  C   UNL     1       0.706   9.898  18.151  0.00  0.00    +0.000 C 
BRANCH  22  23
ATOM     23  C   UNL     1      -0.480  10.330  19.002  0.00  0.00    +0.000 C 
BRANCH  23  25
ATOM     24  O   UNL     1      -2.307   9.716  17.553  0.00  0.00    +0.000 OA
ATOM     25  C   UNL     1      -1.826  10.542  18.362  0.00  0.00    +0.000 C 
ATOM     26  O   UNL     1      -2.490  11.528  18.824  0.00  0.00    +0.000 OA
ENDBRANCH  23  25
ENDBRANCH  22  23
ENDBRANCH  21  22
ENDBRANCH  19  21
ENDBRANCH  18  20
ENDBRANCH   1  18
TORSDOF 9
ENDMDL
MODEL 8
REMARK VINA RESULT:      -7.2      1.836      4.574
REMARK  Name = 
REMARK  9 active torsions:
REMARK  status: ('A' for Active; 'I' for Inactive)
REMARK    1  A    between atoms: C_2  and  C_4
REMARK    2  A    between atoms: C_4  and  C_5
REMARK    3  A    between atoms: C_5  and  C_6
REMARK    4  A    between atoms: C_6  and  C_7
REMARK    5  A    between atoms: C_8  and  C_9
REMARK    6  A    between atoms: C_9  and  C_10
REMARK    7  A    between atoms: C_11  and  N_12
REMARK    8  A    between atoms: N_12  and  S_13
REMARK    9  A    between atoms: S_13  and  C_16
REMARK                            x       y       z     vdW  Elec       q    Type
REMARK                         _______ _______ _______ _____ _____    ______ ____
ROOT
ATOM      1  C   UNL     1       3.783   4.403  18.938  0.00  0.00    +0.000 C 
ATOM      2  C   UNL     1       3.586   3.956  17.462  0.00  0.00    +0.000 C 
ATOM      3  C   UNL     1       2.564   2.782  17.474  0.00  0.00    +0.000 C 
ATOM      4  C   UNL     1       2.256   2.476  18.903  0.00  0.00    +0.000 C 
ATOM      5  C   UNL     1       1.467   3.431  19.757  0.00  0.00    +0.000 C 
ATOM      6  C   UNL     1       2.976   3.438  19.778  0.00  0.00    +0.000 C 
ENDROOT
BRANCH   2   7
ATOM      7  N   UNL     1       4.833   3.480  16.811  0.00  0.00    +0.000 NA
ATOM      8  H   UNL     1       4.786   2.537  16.420  0.00  0.00    +0.000 HD
BRANCH   7   9
ATOM      9  S   UNL     1       5.834   4.426  15.834  0.00  0.00    +0.000 S 
ATOM     10  O   UNL     1       6.733   3.613  15.048  0.00  0.00    +0.000 OA
ATOM     11  O   UNL     1       4.930   5.355  15.192  0.00  0.00    +0.000 OA
BRANCH   9  12
ATOM     12  C   UNL     1       6.811   5.392  16.976  0.00  0.00    +0.000 A 
ATOM     13  C   UNL     1       7.354   4.866  18.150  0.00  0.00    +0.000 A 
ATOM     14  C   UNL     1       8.035   5.689  19.048  0.00  0.00    +0.000 A 
ATOM     15  C   UNL     1       8.169   7.047  18.779  0.00  0.00    +0.000 A 
ATOM     16  C   UNL     1       7.642   7.577  17.602  0.00  0.00    +0.000 A 
ATOM     17  C   UNL     1       6.969   6.754  16.700  0.00  0.00    +0.000 A 
ENDBRANCH   9  12
ENDBRANCH   7   9
ENDBRANCH   2   7
BRANCH   1  18
ATOM     18  C   UNL     1       3.326   5.854  19.218  0.00  0.00    +0.000 C 
BRANCH  18  20
ATOM     19  C   UNL     1       2.848   7.948  17.872  0.00  0.00    +0.000 C 
ATOM     20  C   UNL     1       3.460   6.771  18.043  0.00  0.00    +0.000 C 
BRANCH  19  21
ATOM     21  C   UNL     1       1.804   8.523  18.780  0.00  0.00    +0.000 C 
BRANCH  21  22
ATOM     22  C   UNL     1       1.062   9.707  18.161  0.00  0.00    +0.000 C 
BRANCH  22  23
ATOM     23  C   UNL     1       1.699  11.064  18.423  0.00  0.00    +0.000 C 
BRANCH  23  25
ATOM     24  O   UNL     1       1.013  11.442  20.704  0.00  0.00    +0.000 OA
ATOM     25  C   UNL     1       1.205  11.918  19.560  0.00  0.00    +0.000 C 
ATOM     26  O   UNL     1       1.154  13.167  19.311  0.00  0.00    +0.000 OA
ENDBRANCH  23  25
ENDBRANCH  22  23
ENDBRANCH  21  22
ENDBRANCH  19  21
ENDBRANCH  18  20
ENDBRANCH   1  18
TORSDOF 9
ENDMDL
MODEL 9
REMARK VINA RESULT:      -7.2      1.340      1.852
REMARK  Name = 
REMARK  9 active torsions:
REMARK  status: ('A' for Active; 'I' for Inactive)
REMARK    1  A    between atoms: C_2  and  C_4
REMARK    2  A    between atoms: C_4  and  C_5
REMARK    3  A    between atoms: C_5  and  C_6
REMARK    4  A    between atoms: C_6  and  C_7
REMARK    5  A    between atoms: C_8  and  C_9
REMARK    6  A    between atoms: C_9  and  C_10
REMARK    7  A    between atoms: C_11  and  N_12
REMARK    8  A    between atoms: N_12  and  S_13
REMARK    9  A    between atoms: S_13  and  C_16
REMARK                            x       y       z     vdW  Elec       q    Type
REMARK                         _______ _______ _______ _____ _____    ______ ____
ROOT
ATOM      1  C   UNL     1       4.563   5.517  17.599  0.00  0.00    +0.000 C 
ATOM      2  C   UNL     1       5.441   4.494  18.373  0.00  0.00    +0.000 C 
ATOM      3  C   UNL     1       6.916   4.743  17.944  0.00  0.00    +0.000 C 
ATOM      4  C   UNL     1       6.899   5.791  16.881  0.00  0.00    +0.000 C 
ATOM      5  C   UNL     1       6.543   7.219  17.195  0.00  0.00    +0.000 C 
ATOM      6  C   UNL     1       5.503   6.258  16.673  0.00  0.00    +0.000 C 
ENDROOT
BRANCH   2   7
ATOM      7  N   UNL     1       5.104   3.077  18.079  0.00  0.00    +0.000 NA
ATOM      8  H   UNL     1       5.828   2.553  17.584  0.00  0.00    +0.000 HD
BRANCH   7   9
ATOM      9  S   UNL     1       4.307   2.035  19.141  0.00  0.00    +0.000 S 
ATOM     10  O   UNL     1       3.858   0.836  18.473  0.00  0.00    +0.000 OA
ATOM     11  O   UNL     1       5.184   1.954  20.288  0.00  0.00    +0.000 OA
BRANCH   9  12
ATOM     12  C   UNL     1       2.866   2.943  19.682  0.00  0.00    +0.000 A 
ATOM     13  C   UNL     1       1.632   2.874  19.030  0.00  0.00    +0.000 A 
ATOM     14  C   UNL     1       0.565   3.673  19.445  0.00  0.00    +0.000 A 
ATOM     15  C   UNL     1       0.731   4.552  20.509  0.00  0.00    +0.000 A 
ATOM     16  C   UNL     1       1.954   4.617  21.174  0.00  0.00    +0.000 A 
ATOM     17  C   UNL     1       3.019   3.813  20.766  0.00  0.00    +0.000 A 
ENDBRANCH   9  12
ENDBRANCH   7   9
ENDBRANCH   2   7
BRANCH   1  18
ATOM     18  C   UNL     1       3.823   6.523  18.513  0.00  0.00    +0.000 C 
BRANCH  18  20
ATOM     19  C   UNL     1       2.066   8.337  18.311  0.00  0.00    +0.000 C 
ATOM     20  C   UNL     1       2.940   7.478  17.775  0.00  0.00    +0.000 C 
BRANCH  19  21
ATOM     21  C   UNL     1       1.713   8.422  19.764  0.00  0.00    +0.000 C 
BRANCH  21  22
ATOM     22  C   UNL     1       0.577   9.406  20.047  0.00  0.00    +0.000 C 
BRANCH  22  23
ATOM     23  C   UNL     1       0.632  10.061  21.420  0.00  0.00    +0.000 C 
BRANCH  23  25
ATOM     24  O   UNL     1       0.312   9.722  23.786  0.00  0.00    +0.000 OA
ATOM     25  C   UNL     1       0.065   9.345  22.616  0.00  0.00    +0.000 C 
ATOM     26  O   UNL     1      -0.795   8.443  22.345  0.00  0.00    +0.000 OA
ENDBRANCH  23  25
ENDBRANCH  22  23
ENDBRANCH  21  22
ENDBRANCH  19  21
ENDBRANCH  18  20
ENDBRANCH   1  18
TORSDOF 9
ENDMDL
