MODEL 1
REMARK VINA RESULT:      -8.6      0.000      0.000
REMARK  Name = 
REMARK  8 active torsions:
REMARK  status: ('A' for Active; 'I' for Inactive)
REMARK    1  A    between atoms: C_1  and  O_2
REMARK    2  A    between atoms: O_2  and  C_3
REMARK    3  A    between atoms: C_6  and  C_7
REMARK    4  A    between atoms: C_8  and  C_9
REMARK    5  A    between atoms: C_11  and  O_12
REMARK    6  A    between atoms: O_12  and  C_13
REMARK    7  A    between atoms: C_21  and  P_22
REMARK    8  A    between atoms: P_22  and  O_25
REMARK                            x       y       z     vdW  Elec       q    Type
REMARK                         _______ _______ _______ _____ _____    ______ ____
ROOT
ATOM      1  C   UNL     1      -0.158  10.326  19.604  0.00  0.00    +0.000 A 
ATOM      2  C   UNL     1       0.118  10.205  18.237  0.00  0.00    +0.000 A 
ATOM      3  C   UNL     1       1.058   9.284  17.764  0.00  0.00    +0.000 A 
ATOM      4  C   UNL     1       1.760   8.478  18.659  0.00  0.00    +0.000 A 
ATOM      5  C   UNL     1       1.488   8.602  20.018  0.00  0.00    +0.000 A 
ATOM      6  C   UNL     1       0.527   9.488  20.499  0.00  0.00    +0.000 A 
ENDROOT
BRANCH   6   7
ATOM      7  P   UNL     1       0.183   9.523  22.296  0.00  0.00    +0.000 P 
ATOM      8  O   UNL     1      -0.750   8.311  22.284  0.00  0.00    +0.000 OA
ATOM      9  O   UNL     1       1.676   9.237  22.589  0.00  0.00    +0.000 OA
BRANCH   7  10
ATOM     10  O   UNL     1      -0.143   9.555  23.995  0.00  0.00    +0.000 OA
ATOM     11  H   UNL     1      -0.705  10.360  23.999  0.00  0.00    +0.000 HD
ENDBRANCH   7  10
ENDBRANCH   6   7
BRANCH   1  13
ATOM     12  C   UNL     1      -1.844  11.888  18.805  0.00  0.00    +0.000 C 
ATOM     13  O   UNL     1      -1.075  11.311  19.848  0.00  0.00    +0.000 OA
ENDBRANCH   1  13
BRANCH   4  14
ATOM     14  C   UNL     1       2.837   7.608  18.211  0.00  0.00    +0.000 C 
ATOM     15  C   UNL     1       2.708   6.278  18.070  0.00  0.00    +0.000 C 
BRANCH  15  16
ATOM     16  C   UNL     1       3.930   5.492  18.077  0.00  0.00    +0.000 A 
ATOM     17  C   UNL     1       4.373   4.836  16.921  0.00  0.00    +0.000 A 
ATOM     18  C   UNL     1       5.671   4.336  16.865  0.00  0.00    +0.000 A 
ATOM     19  C   UNL     1       6.502   4.594  17.941  0.00  0.00    +0.000 A 
ATOM     20  C   UNL     1       6.023   5.175  19.098  0.00  0.00    +0.000 A 
ATOM     21  C   UNL     1       4.725   5.581  19.226  0.00  0.00    +0.000 A 
ATOM     22  O   UNL     1       7.007   5.438  20.002  0.00  0.00    +0.000 OA
ATOM     23  C   UNL     1       8.140   5.310  19.127  0.00  0.00    +0.000 C 
ATOM     24  O   UNL     1       7.861   4.455  17.999  0.00  0.00    +0.000 OA
BRANCH  18  25
ATOM     25  O   UNL     1       6.042   3.752  15.690  0.00  0.00    +0.000 OA
ATOM     26  C   UNL     1       6.734   4.629  14.807  0.00  0.00    +0.000 C 
ENDBRANCH  18  25
ENDBRANCH  15  16
ENDBRANCH   4  14
TORSDOF 6
ENDMDL
MODEL 2
REMARK VINA RESULT:      -8.0      1.235      2.209
REMARK  Name = 
REMARK  8 active torsions:
REMARK  status: ('A' for Active; 'I' for Inactive)
REMARK    1  A    between atoms: C_1  and  O_2
REMARK    2  A    between atoms: O_2  and  C_3
REMARK    3  A    between atoms: C_6  and  C_7
REMARK    4  A    between atoms: C_8  and  C_9
REMARK    5  A    between atoms: C_11  and  O_12
REMARK    6  A    between atoms: O_12  and  C_13
REMARK    7  A    between atoms: C_21  and  P_22
REMARK    8  A    between atoms: P_22  and  O_25
REMARK                            x       y       z     vdW  Elec       q    Type
REMARK                         _______ _______ _______ _____ _____    ______ ____
ROOT
ATOM      1  C   UNL     1      -0.526  10.647  19.864  0.00  0.00    +0.000 A 
ATOM      2  C   UNL     1      -0.340  10.662  18.476  0.00  0.00    +0.000 A 
ATOM      3  C   UNL     1       0.632   9.864  17.864  0.00  0.00    +0.000 A 
ATOM      4  C   UNL     1       1.456   9.047  18.639  0.00  0.00    +0.000 A 
ATOM      5  C   UNL     1       1.273   9.036  20.018  0.00  0.00    +0.000 A 
ATOM      6  C   UNL     1       0.284   9.798  20.636  0.00  0.00    +0.000 A 
ENDROOT
BRANCH   6   7
ATOM      7  P   UNL     1       0.068   9.656  22.448  0.00  0.00    +0.000 P 
ATOM      8  O   UNL     1      -0.819   8.412  22.387  0.00  0.00    +0.000 OA
ATOM      9  O   UNL     1       1.587   9.409  22.611  0.00  0.00    +0.000 OA
BRANCH   7  10
ATOM     10  O   UNL     1      -0.136   9.522  24.160  0.00  0.00    +0.000 OA
ATOM     11  H   UNL     1       0.644   8.951  24.335  0.00  0.00    +0.000 HD
ENDBRANCH   7  10
ENDBRANCH   6   7
BRANCH   1  13
ATOM     12  C   UNL     1      -1.222  12.912  20.416  0.00  0.00    +0.000 C 
ATOM     13  O   UNL     1      -1.495  11.529  20.252  0.00  0.00    +0.000 OA
ENDBRANCH   1  13
BRANCH   4  14
ATOM     14  C   UNL     1       2.561   8.308  18.047  0.00  0.00    +0.000 C 
ATOM     15  C   UNL     1       2.586   6.970  17.936  0.00  0.00    +0.000 C 
BRANCH  15  16
ATOM     16  C   UNL     1       3.887   6.345  17.774  0.00  0.00    +0.000 A 
ATOM     17  C   UNL     1       4.278   5.270  18.583  0.00  0.00    +0.000 A 
ATOM     18  C   UNL     1       5.389   4.508  18.232  0.00  0.00    +0.000 A 
ATOM     19  C   UNL     1       6.011   4.803  17.031  0.00  0.00    +0.000 A 
ATOM     20  C   UNL     1       5.657   5.911  16.289  0.00  0.00    +0.000 A 
ATOM     21  C   UNL     1       4.639   6.743  16.663  0.00  0.00    +0.000 A 
ATOM     22  O   UNL     1       6.309   5.978  15.096  0.00  0.00    +0.000 OA
ATOM     23  C   UNL     1       6.789   4.624  15.040  0.00  0.00    +0.000 C 
ATOM     24  O   UNL     1       6.920   4.040  16.353  0.00  0.00    +0.000 OA
BRANCH  18  25
ATOM     25  O   UNL     1       5.676   3.451  19.043  0.00  0.00    +0.000 OA
ATOM     26  C   UNL     1       4.538   2.906  19.702  0.00  0.00    +0.000 C 
ENDBRANCH  18  25
ENDBRANCH  15  16
ENDBRANCH   4  14
TORSDOF 6
ENDMDL
MODEL 3
REMARK VINA RESULT:      -7.8      2.848      8.376
REMARK  Name = 
REMARK  8 active torsions:
REMARK  status: ('A' for Active; 'I' for Inactive)
REMARK    1  A    between atoms: C_1  and  O_2
REMARK    2  A    between atoms: O_2  and  C_3
REMARK    3  A    between atoms: C_6  and  C_7
REMARK    4  A    between atoms: C_8  and  C_9
REMARK    5  A    between atoms: C_11  and  O_12
REMARK    6  A    between atoms: O_12  and  C_13
REMARK    7  A    between atoms: C_21  and  P_22
REMARK    8  A    between atoms: P_22  and  O_25
REMARK                            x       y       z     vdW  Elec       q    Type
REMARK                         _______ _______ _______ _____ _____    ______ ____
ROOT
ATOM      1  C   UNL     1       4.877   4.758  16.638  0.00  0.00    +0.000 A 
ATOM      2  C   UNL     1       4.947   6.139  16.420  0.00  0.00    +0.000 A 
ATOM      3  C   UNL     1       4.144   7.029  17.141  0.00  0.00    +0.000 A 
ATOM      4  C   UNL     1       3.235   6.547  18.083  0.00  0.00    +0.000 A 
ATOM      5  C   UNL     1       3.163   5.174  18.295  0.00  0.00    +0.000 A 
ATOM      6  C   UNL     1       3.984   4.280  17.611  0.00  0.00    +0.000 A 
ENDROOT
BRANCH   6   7
ATOM      7  P   UNL     1       3.873   2.499  18.016  0.00  0.00    +0.000 P 
ATOM      8  O   UNL     1       4.409   2.645  19.441  0.00  0.00    +0.000 OA
ATOM      9  O   UNL     1       2.335   2.555  17.851  0.00  0.00    +0.000 OA
BRANCH   7  10
ATOM     10  O   UNL     1       3.769   0.815  18.399  0.00  0.00    +0.000 OA
ATOM     11  H   UNL     1       3.020   0.597  17.801  0.00  0.00    +0.000 HD
ENDBRANCH   7  10
ENDBRANCH   6   7
BRANCH   1  13
ATOM     12  C   UNL     1       7.055   4.484  15.588  0.00  0.00    +0.000 C 
ATOM     13  O   UNL     1       5.714   4.073  15.801  0.00  0.00    +0.000 OA
ENDBRANCH   1  13
BRANCH   4  14
ATOM     14  C   UNL     1       2.294   7.435  18.750  0.00  0.00    +0.000 C 
ATOM     15  C   UNL     1       1.788   8.543  18.184  0.00  0.00    +0.000 C 
BRANCH  15  16
ATOM     16  C   UNL     1       1.258   9.557  19.079  0.00  0.00    +0.000 A 
ATOM     17  C   UNL     1       1.049   9.282  20.438  0.00  0.00    +0.000 A 
ATOM     18  C   UNL     1       0.818  10.329  21.327  0.00  0.00    +0.000 A 
ATOM     19  C   UNL     1       0.895  11.618  20.829  0.00  0.00    +0.000 A 
ATOM     20  C   UNL     1       1.026  11.862  19.477  0.00  0.00    +0.000 A 
ATOM     21  C   UNL     1       1.147  10.853  18.564  0.00  0.00    +0.000 A 
ATOM     22  O   UNL     1       1.184  13.184  19.192  0.00  0.00    +0.000 OA
ATOM     23  C   UNL     1       1.511  13.648  20.512  0.00  0.00    +0.000 C 
ATOM     24  O   UNL     1       0.983  12.783  21.539  0.00  0.00    +0.000 OA
BRANCH  18  25
ATOM     25  O   UNL     1       0.672   9.985  22.638  0.00  0.00    +0.000 OA
ATOM     26  C   UNL     1      -0.675  10.032  23.097  0.00  0.00    +0.000 C 
ENDBRANCH  18  25
ENDBRANCH  15  16
ENDBRANCH   4  14
TORSDOF 6
ENDMDL
MODEL 4
REMARK VINA RESULT:      -7.8      2.998      8.737
REMARK  Name = 
REMARK  8 active torsions:
REMARK  status: ('A' for Active; 'I' for Inactive)
REMARK    1  A    between atoms: C_1  and  O_2
REMARK    2  A    between atoms: O_2  and  C_3
REMARK    3  A    between atoms: C_6  and  C_7
REMARK    4  A    between atoms: C_8  and  C_9
REMARK    5  A    between atoms: C_11  and  O_12
REMARK    6  A    between atoms: O_12  and  C_13
REMARK    7  A    between atoms: C_21  and  P_22
REMARK    8  A    between atoms: P_22  and  O_25
REMARK                            x       y       z     vdW  Elec       q    Type
REMARK                         _______ _______ _______ _____ _____    ______ ____
ROOT
ATOM      1  C   UNL     1       4.460   4.756  18.856  0.00  0.00    +0.000 A 
ATOM      2  C   UNL     1       3.308   5.047  19.595  0.00  0.00    +0.000 A 
ATOM      3  C   UNL     1       2.488   6.132  19.266  0.00  0.00    +0.000 A 
ATOM      4  C   UNL     1       2.823   6.964  18.197  0.00  0.00    +0.000 A 
ATOM      5  C   UNL     1       3.971   6.676  17.466  0.00  0.00    +0.000 A 
ATOM      6  C   UNL     1       4.775   5.577  17.760  0.00  0.00    +0.000 A 
ENDROOT
BRANCH   6   7
ATOM      7  P   UNL     1       6.221   5.234  16.692  0.00  0.00    +0.000 P 
ATOM      8  O   UNL     1       5.826   6.226  15.597  0.00  0.00    +0.000 OA
ATOM      9  O   UNL     1       7.165   5.768  17.796  0.00  0.00    +0.000 OA
BRANCH   7  10
ATOM     10  O   UNL     1       7.588   4.909  15.682  0.00  0.00    +0.000 OA
ATOM     11  H   UNL     1       7.651   5.798  15.269  0.00  0.00    +0.000 HD
ENDBRANCH   7  10
ENDBRANCH   6   7
BRANCH   1  13
ATOM     12  C   UNL     1       4.449   2.541  19.862  0.00  0.00    +0.000 C 
ATOM     13  O   UNL     1       5.132   3.684  19.372  0.00  0.00    +0.000 OA
ENDBRANCH   1  13
BRANCH   4  14
ATOM     14  C   UNL     1       2.067   8.174  17.914  0.00  0.00    +0.000 C 
ATOM     15  C   UNL     1       1.708   9.064  18.855  0.00  0.00    +0.000 C 
BRANCH  15  16
ATOM     16  C   UNL     1       0.596   9.945  18.540  0.00  0.00    +0.000 A 
ATOM     17  C   UNL     1      -0.416   9.542  17.657  0.00  0.00    +0.000 A 
ATOM     18  C   UNL     1      -1.602  10.267  17.590  0.00  0.00    +0.000 A 
ATOM     19  C   UNL     1      -1.759  11.318  18.477  0.00  0.00    +0.000 A 
ATOM     20  C   UNL     1      -0.723  11.742  19.282  0.00  0.00    +0.000 A 
ATOM     21  C   UNL     1       0.493  11.118  19.295  0.00  0.00    +0.000 A 
ATOM     22  O   UNL     1      -1.097  12.719  20.155  0.00  0.00    +0.000 OA
ATOM     23  C   UNL     1      -2.522  12.562  20.049  0.00  0.00    +0.000 C 
ATOM     24  O   UNL     1      -2.913  11.983  18.787  0.00  0.00    +0.000 OA
BRANCH  18  25
ATOM     25  O   UNL     1      -2.557   9.785  16.744  0.00  0.00    +0.000 OA
ATOM     26  C   UNL     1      -2.720  10.562  15.561  0.00  0.00    +0.000 C 
ENDBRANCH  18  25
ENDBRANCH  15  16
ENDBRANCH   4  14
TORSDOF 6
ENDMDL
MODEL 5
REMARK VINA RESULT:      -7.6      2.687      3.818
REMARK  Name = 
REMARK  8 active torsions:
REMARK  status: ('A' for Active; 'I' for Inactive)
REMARK    1  A    between atoms: C_1  and  O_2
REMARK    2  A    between atoms: O_2  and  C_3
REMARK    3  A    between atoms: C_6  and  C_7
REMARK    4  A    between atoms: C_8  and  C_9
REMARK    5  A    between atoms: C_11  and  O_12
REMARK    6  A    between atoms: O_12  and  C_13
REMARK    7  A    between atoms: C_21  and  P_22
REMARK    8  A    between atoms: P_22  and  O_25
REMARK                            x       y       z     vdW  Elec       q    Type
REMARK                         _______ _______ _______ _____ _____    ______ ____
ROOT
ATOM      1  C   UNL     1      -0.762  11.138  21.589  0.00  0.00    +0.000 A 
ATOM      2  C   UNL     1      -0.337  10.346  22.662  0.00  0.00    +0.000 A 
ATOM      3  C   UNL     1       0.422   9.189  22.457  0.00  0.00    +0.000 A 
ATOM      4  C   UNL     1       0.751   8.789  21.162  0.00  0.00    +0.000 A 
ATOM      5  C   UNL     1       0.324   9.574  20.095  0.00  0.00    +0.000 A 
ATOM      6  C   UNL     1      -0.400  10.748  20.289  0.00  0.00    +0.000 A 
ENDROOT
BRANCH   6   7
ATOM      7  P   UNL     1      -0.848  11.756  18.828  0.00  0.00    +0.000 P 
ATOM      8  O   UNL     1       0.355  12.693  18.929  0.00  0.00    +0.000 OA
ATOM      9  O   UNL     1      -0.678  10.515  17.918  0.00  0.00    +0.000 OA
BRANCH   7  10
ATOM     10  O   UNL     1      -1.272  12.708  17.447  0.00  0.00    +0.000 OA
ATOM     11  H   UNL     1      -1.864  13.341  17.909  0.00  0.00    +0.000 HD
ENDBRANCH   7  10
ENDBRANCH   6   7
BRANCH   1  13
ATOM     12  C   UNL     1      -2.480  12.054  23.047  0.00  0.00    +0.000 C 
ATOM     13  O   UNL     1      -1.522  12.193  22.010  0.00  0.00    +0.000 OA
ENDBRANCH   1  13
BRANCH   4  14
ATOM     14  C   UNL     1       1.423   7.523  20.909  0.00  0.00    +0.000 C 
ATOM     15  C   UNL     1       2.171   7.284  19.819  0.00  0.00    +0.000 C 
BRANCH  15  16
ATOM     16  C   UNL     1       2.385   5.893  19.458  0.00  0.00    +0.000 A 
ATOM     17  C   UNL     1       2.861   5.542  18.187  0.00  0.00    +0.000 A 
ATOM     18  C   UNL     1       3.329   4.251  17.957  0.00  0.00    +0.000 A 
ATOM     19  C   UNL     1       3.382   3.389  19.039  0.00  0.00    +0.000 A 
ATOM     20  C   UNL     1       2.840   3.731  20.261  0.00  0.00    +0.000 A 
ATOM     21  C   UNL     1       2.275   4.954  20.490  0.00  0.00    +0.000 A 
ATOM     22  O   UNL     1       3.077   2.798  21.224  0.00  0.00    +0.000 OA
ATOM     23  C   UNL     1       4.122   2.068  20.559  0.00  0.00    +0.000 C 
ATOM     24  O   UNL     1       4.046   2.197  19.124  0.00  0.00    +0.000 OA
BRANCH  18  25
ATOM     25  O   UNL     1       3.819   4.000  16.710  0.00  0.00    +0.000 OA
ATOM     26  C   UNL     1       5.153   4.457  16.515  0.00  0.00    +0.000 C 
ENDBRANCH  18  25
ENDBRANCH  15  16
ENDBRANCH   4  14
TORSDOF 6
ENDMDL
MODEL 6
REMARK VINA RESULT:      -7.6      2.630      8.445
REMARK  Name = 
REMARK  8 active torsions:
REMARK  status: ('A' for Active; 'I' for Inactive)
REMARK    1  A    between atoms: C_1  and  O_2
REMARK    2  A    between atoms: O_2  and  C_3
REMARK    3  A    between atoms: C_6  and  C_7
REMARK    4  A    between atoms: C_8  and  C_9
REMARK    5  A    between atoms: C_11  and  O_12
REMARK    6  A    between atoms: O_12  and  C_13
REMARK    7  A    between atoms: C_21  and  P_22
REMARK    8  A    between atoms: P_22  and  O_25
REMARK                            x       y       z     vdW  Elec       q    Type
REMARK                         _______ _______ _______ _____ _____    ______ ____
ROOT
ATOM      1  C   UNL     1       4.697   5.109  16.857  0.00  0.00    +0.000 A 
ATOM      2  C   UNL     1       4.823   6.495  16.706  0.00  0.00    +0.000 A 
ATOM      3  C   UNL     1       3.967   7.379  17.371  0.00  0.00    +0.000 A 
ATOM      4  C   UNL     1       2.948   6.887  18.187  0.00  0.00    +0.000 A 
ATOM      5  C   UNL     1       2.821   5.509  18.333  0.00  0.00    +0.000 A 
ATOM      6  C   UNL     1       3.690   4.619  17.706  0.00  0.00    +0.000 A 
ENDROOT
BRANCH   6   7
ATOM      7  P   UNL     1       3.493   2.827  18.022  0.00  0.00    +0.000 P 
ATOM      8  O   UNL     1       3.374   2.964  19.540  0.00  0.00    +0.000 OA
ATOM      9  O   UNL     1       2.166   2.831  17.225  0.00  0.00    +0.000 OA
BRANCH   7  10
ATOM     10  O   UNL     1       3.307   1.133  18.320  0.00  0.00    +0.000 OA
ATOM     11  H   UNL     1       2.942   0.891  17.441  0.00  0.00    +0.000 HD
ENDBRANCH   7  10
ENDBRANCH   6   7
BRANCH   1  13
ATOM     12  C   UNL     1       7.001   4.558  16.303  0.00  0.00    +0.000 C 
ATOM     13  O   UNL     1       5.604   4.434  16.089  0.00  0.00    +0.000 OA
ENDBRANCH   1  13
BRANCH   4  14
ATOM     14  C   UNL     1       1.961   7.774  18.784  0.00  0.00    +0.000 C 
ATOM     15  C   UNL     1       1.484   8.872  18.175  0.00  0.00    +0.000 C 
BRANCH  15  16
ATOM     16  C   UNL     1       0.891   9.892  19.024  0.00  0.00    +0.000 A 
ATOM     17  C   UNL     1      -0.089  10.763  18.528  0.00  0.00    +0.000 A 
ATOM     18  C   UNL     1      -0.843  11.529  19.412  0.00  0.00    +0.000 A 
ATOM     19  C   UNL     1      -0.643  11.323  20.766  0.00  0.00    +0.000 A 
ATOM     20  C   UNL     1       0.377  10.518  21.230  0.00  0.00    +0.000 A 
ATOM     21  C   UNL     1       1.206   9.834  20.386  0.00  0.00    +0.000 A 
ATOM     22  O   UNL     1       0.352  10.360  22.582  0.00  0.00    +0.000 OA
ATOM     23  C   UNL     1      -0.985  10.830  22.826  0.00  0.00    +0.000 C 
ATOM     24  O   UNL     1      -1.437  11.738  21.799  0.00  0.00    +0.000 OA
BRANCH  18  25
ATOM     25  O   UNL     1      -1.808  12.316  18.856  0.00  0.00    +0.000 OA
ATOM     26  C   UNL     1      -3.013  11.620  18.554  0.00  0.00    +0.000 C 
ENDBRANCH  18  25
ENDBRANCH  15  16
ENDBRANCH   4  14
TORSDOF 6
ENDMDL
MODEL 7
REMARK VINA RESULT:      -7.6      2.872      8.706
REMARK  Name = 
REMARK  8 active torsions:
REMARK  status: ('A' for Active; 'I' for Inactive)
REMARK    1  A    between atoms: C_1  and  O_2
REMARK    2  A    between atoms: O_2  and  C_3
REMARK    3  A    between atoms: C_6  and  C_7
REMARK    4  A    between atoms: C_8  and  C_9
REMARK    5  A    between atoms: C_11  and  O_12
REMARK    6  A    between atoms: O_12  and  C_13
REMARK    7  A    between atoms: C_21  and  P_22
REMARK    8  A    between atoms: P_22  and  O_25
REMARK                            x       y       z     vdW  Elec       q    Type
REMARK                         _______ _______ _______ _____ _____    ______ ____
ROOT
ATOM      1  C   UNL     1       3.221   3.705  19.592  0.00  0.00    +0.000 A 
ATOM      2  C   UNL     1       2.060   4.001  20.317  0.00  0.00    +0.000 A 
ATOM      3  C   UNL     1       1.612   5.317  20.465  0.00  0.00    +0.000 A 
ATOM      4  C   UNL     1       2.334   6.370  19.903  0.00  0.00    +0.000 A 
ATOM      5  C   UNL     1       3.489   6.075  19.187  0.00  0.00    +0.000 A 
ATOM      6  C   UNL     1       3.927   4.766  19.001  0.00  0.00    +0.000 A 
ENDROOT
BRANCH   6   7
ATOM      7  P   UNL     1       5.413   4.472  17.975  0.00  0.00    +0.000 P 
ATOM      8  O   UNL     1       5.356   5.820  17.255  0.00  0.00    +0.000 OA
ATOM      9  O   UNL     1       6.285   4.412  19.253  0.00  0.00    +0.000 OA
BRANCH   7  10
ATOM     10  O   UNL     1       6.819   4.194  17.005  0.00  0.00    +0.000 OA
ATOM     11  H   UNL     1       6.353   3.976  16.169  0.00  0.00    +0.000 HD
ENDBRANCH   7  10
ENDBRANCH   6   7
BRANCH   1  13
ATOM     12  C   UNL     1       3.206   1.530  18.501  0.00  0.00    +0.000 C 
ATOM     13  O   UNL     1       3.498   2.367  19.609  0.00  0.00    +0.000 OA
ENDBRANCH   1  13
BRANCH   4  14
ATOM     14  C   UNL     1       1.968   7.757  20.151  0.00  0.00    +0.000 C 
ATOM     15  C   UNL     1       1.238   8.155  21.207  0.00  0.00    +0.000 C 
BRANCH  15  16
ATOM     16  C   UNL     1       0.562   9.437  21.095  0.00  0.00    +0.000 A 
ATOM     17  C   UNL     1       0.012   9.859  19.877  0.00  0.00    +0.000 A 
ATOM     18  C   UNL     1      -0.869  10.937  19.854  0.00  0.00    +0.000 A 
ATOM     19  C   UNL     1      -1.230  11.492  21.069  0.00  0.00    +0.000 A 
ATOM     20  C   UNL     1      -0.619  11.111  22.246  0.00  0.00    +0.000 A 
ATOM     21  C   UNL     1       0.329  10.128  22.289  0.00  0.00    +0.000 A 
ATOM     22  O   UNL     1      -1.176  11.694  23.343  0.00  0.00    +0.000 OA
ATOM     23  C   UNL     1      -2.399  12.151  22.742  0.00  0.00    +0.000 C 
ATOM     24  O   UNL     1      -2.265  12.350  21.319  0.00  0.00    +0.000 OA
BRANCH  18  25
ATOM     25  O   UNL     1      -1.398  11.256  18.639  0.00  0.00    +0.000 OA
ATOM     26  C   UNL     1      -1.958  10.146  17.946  0.00  0.00    +0.000 C 
ENDBRANCH  18  25
ENDBRANCH  15  16
ENDBRANCH   4  14
TORSDOF 6
ENDMDL
MODEL 8
REMARK VINA RESULT:      -7.6      1.233      1.256
REMARK  Name = 
REMARK  8 active torsions:
REMARK  status: ('A' for Active; 'I' for Inactive)
REMARK    1  A    between atoms: C_1  and  O_2
REMARK    2  A    between atoms: O_2  and  C_3
REMARK    3  A    between atoms: C_6  and  C_7
REMARK    4  A    between atoms: C_8  and  C_9
REMARK    5  A    between atoms: C_11  and  O_12
REMARK    6  A    between atoms: O_12  and  C_13
REMARK    7  A    between atoms: C_21  and  P_22
REMARK    8  A    between atoms: P_22  and  O_25
REMARK                            x       y       z     vdW  Elec       q    Type
REMARK                         _______ _______ _______ _____ _____    ______ ____
ROOT
ATOM      1  C   UNL     1       0.574  11.315  19.873  0.00  0.00    +0.000 A 
ATOM      2  C   UNL     1       1.133  11.519  18.605  0.00  0.00    +0.000 A 
ATOM      3  C   UNL     1       1.783  10.486  17.922  0.00  0.00    +0.000 A 
ATOM      4  C   UNL     1       1.904   9.226  18.510  0.00  0.00    +0.000 A 
ATOM      5  C   UNL     1       1.352   9.026  19.771  0.00  0.00    +0.000 A 
ATOM      6  C   UNL     1       0.671  10.036  20.446  0.00  0.00    +0.000 A 
ENDROOT
BRANCH   6   7
ATOM      7  P   UNL     1      -0.091   9.654  22.065  0.00  0.00    +0.000 P 
ATOM      8  O   UNL     1      -0.598   8.269  21.660  0.00  0.00    +0.000 OA
ATOM      9  O   UNL     1       1.304   9.706  22.735  0.00  0.00    +0.000 OA
BRANCH   7  10
ATOM     10  O   UNL     1      -0.811   9.293  23.597  0.00  0.00    +0.000 OA
ATOM     11  H   UNL     1       0.017   9.063  24.072  0.00  0.00    +0.000 HD
ENDBRANCH   7  10
ENDBRANCH   6   7
BRANCH   1  13
ATOM     12  C   UNL     1       0.835  13.507  20.896  0.00  0.00    +0.000 C 
ATOM     13  O   UNL     1       0.028  12.464  20.373  0.00  0.00    +0.000 OA
ENDBRANCH   1  13
BRANCH   4  14
ATOM     14  C   UNL     1       2.687   8.172  17.884  0.00  0.00    +0.000 C 
ATOM     15  C   UNL     1       2.790   6.928  18.381  0.00  0.00    +0.000 C 
BRANCH  15  16
ATOM     16  C   UNL     1       3.931   6.138  17.951  0.00  0.00    +0.000 A 
ATOM     17  C   UNL     1       4.349   6.144  16.613  0.00  0.00    +0.000 A 
ATOM     18  C   UNL     1       5.595   5.621  16.277  0.00  0.00    +0.000 A 
ATOM     19  C   UNL     1       6.408   5.193  17.312  0.00  0.00    +0.000 A 
ATOM     20  C   UNL     1       5.947   5.126  18.611  0.00  0.00    +0.000 A 
ATOM     21  C   UNL     1       4.689   5.532  18.958  0.00  0.00    +0.000 A 
ATOM     22  O   UNL     1       6.918   4.777  19.499  0.00  0.00    +0.000 OA
ATOM     23  C   UNL     1       8.064   5.015  18.664  0.00  0.00    +0.000 C 
ATOM     24  O   UNL     1       7.745   4.910  17.260  0.00  0.00    +0.000 OA
BRANCH  18  25
ATOM     25  O   UNL     1       5.950   5.706  14.963  0.00  0.00    +0.000 OA
ATOM     26  C   UNL     1       6.058   4.444  14.315  0.00  0.00    +0.000 C 
ENDBRANCH  18  25
ENDBRANCH  15  16
ENDBRANCH   4  14
TORSDOF 6
ENDMDL
MODEL 9
REMARK VINA RESULT:      -7.6      3.095      4.741
REMARK  Name = 
REMARK  8 active torsions:
REMARK  status: ('A' for Active; 'I' for Inactive)
REMARK    1  A    between atoms: C_1  and  O_2
REMARK    2  A    between atoms: O_2  and  C_3
REMARK    3  A    between atoms: C_6  and  C_7
REMARK    4  A    between atoms: C_8  and  C_9
REMARK    5  A    between atoms: C_11  and  O_12
REMARK    6  A    between atoms: O_12  and  C_13
REMARK    7  A    between atoms: C_21  and  P_22
REMARK    8  A    between atoms: P_22  and  O_25
REMARK                            x       y       z     vdW  Elec       q    Type
REMARK                         _______ _______ _______ _____ _____    ______ ____
ROOT
ATOM      1  C   UNL     1      -1.098  11.464  21.542  0.00  0.00    +0.000 A 
ATOM      2  C   UNL     1      -0.751  10.728  22.682  0.00  0.00    +0.000 A 
ATOM      3  C   UNL     1       0.047   9.583  22.592  0.00  0.00    +0.000 A 
ATOM      4  C   UNL     1       0.495   9.138  21.348  0.00  0.00    +0.000 A 
ATOM      5  C   UNL     1       0.146   9.867  20.216  0.00  0.00    +0.000 A 
ATOM      6  C   UNL     1      -0.617  11.030  20.296  0.00  0.00    +0.000 A 
ENDROOT
BRANCH   6   7
ATOM      7  P   UNL     1      -0.958  11.966  18.760  0.00  0.00    +0.000 P 
ATOM      8  O   UNL     1       0.436  12.585  18.660  0.00  0.00    +0.000 OA
ATOM      9  O   UNL     1      -1.176  10.637  17.998  0.00  0.00    +0.000 OA
BRANCH   7  10
ATOM     10  O   UNL     1      -1.281  12.850  17.309  0.00  0.00    +0.000 OA
ATOM     11  H   UNL     1      -1.535  12.083  16.750  0.00  0.00    +0.000 HD
ENDBRANCH   7  10
ENDBRANCH   6   7
BRANCH   1  13
ATOM     12  C   UNL     1      -2.944  12.402  22.820  0.00  0.00    +0.000 C 
ATOM     13  O   UNL     1      -1.914  12.517  21.852  0.00  0.00    +0.000 OA
ENDBRANCH   1  13
BRANCH   4  14
ATOM     14  C   UNL     1       1.213   7.880  21.208  0.00  0.00    +0.000 C 
ATOM     15  C   UNL     1       2.051   7.611  20.192  0.00  0.00    +0.000 C 
BRANCH  15  16
ATOM     16  C   UNL     1       2.324   6.211  19.915  0.00  0.00    +0.000 A 
ATOM     17  C   UNL     1       1.621   5.194  20.576  0.00  0.00    +0.000 A 
ATOM     18  C   UNL     1       1.686   3.888  20.099  0.00  0.00    +0.000 A 
ATOM     19  C   UNL     1       2.386   3.671  18.925  0.00  0.00    +0.000 A 
ATOM     20  C   UNL     1       3.131   4.671  18.335  0.00  0.00    +0.000 A 
ATOM     21  C   UNL     1       3.175   5.940  18.838  0.00  0.00    +0.000 A 
ATOM     22  O   UNL     1       3.665   4.296  17.139  0.00  0.00    +0.000 OA
ATOM     23  C   UNL     1       2.859   3.129  16.904  0.00  0.00    +0.000 C 
ATOM     24  O   UNL     1       2.359   2.558  18.131  0.00  0.00    +0.000 OA
BRANCH  18  25
ATOM     25  O   UNL     1       0.937   2.965  20.767  0.00  0.00    +0.000 OA
ATOM     26  C   UNL     1       1.565   2.455  21.939  0.00  0.00    +0.000 C 
ENDBRANCH  18  25
ENDBRANCH  15  16
ENDBRANCH   4  14
TORSDOF 6
ENDMDL
