MODEL 1
REMARK VINA RESULT:      -7.6      0.000      0.000
REMARK  Name = 
REMARK  4 active torsions:
REMARK  status: ('A' for Active; 'I' for Inactive)
REMARK    1  A    between atoms: C_2  and  C_5
REMARK    2  A    between atoms: N_3  and  O_4
REMARK    3  A    between atoms: N_14  and  C_15
REMARK    4  A    between atoms: C_15  and  C_16
REMARK                            x       y       z     vdW  Elec       q    Type
REMARK                         _______ _______ _______ _____ _____    ______ ____
ROOT
ATOM      1  C   UNL     1       1.036  10.314  19.042  0.00  0.00    +0.000 A 
ATOM      2  C   UNL     1       1.230   9.595  20.197  0.00  0.00    +0.000 A 
ATOM      3  N   UNL     1       1.636   8.303  20.214  0.00  0.00    +0.000 NA
ATOM      4  C   UNL     1       1.897   7.719  19.032  0.00  0.00    +0.000 A 
ATOM      5  N   UNL     1       2.371   6.448  18.996  0.00  0.00    +0.000 N 
ATOM      6  C   UNL     1       2.497   5.561  20.124  0.00  0.00    +0.000 C 
ATOM      7  C   UNL     1       3.683   4.647  19.763  0.00  0.00    +0.000 C 
ATOM      8  C   UNL     1       3.960   4.899  18.279  0.00  0.00    +0.000 C 
ATOM      9  C   UNL     1       5.411   5.394  17.999  0.00  0.00    +0.000 C 
ATOM     10  N   UNL     1       5.243   4.821  16.630  0.00  0.00    +0.000 NA
ATOM     11  C   UNL     1       4.371   3.781  17.258  0.00  0.00    +0.000 C 
ATOM     12  C   UNL     1       2.889   5.873  17.778  0.00  0.00    +0.000 C 
ATOM     13  N   UNL     1       1.752   8.366  17.860  0.00  0.00    +0.000 NA
ATOM     14  C   UNL     1       1.335   9.645  17.884  0.00  0.00    +0.000 A 
ENDROOT
BRANCH   1  16
ATOM     15  O   UNL     1       0.942  12.478  19.944  0.00  0.00    +0.000 OA
ATOM     16  C   UNL     1       0.575  11.708  19.064  0.00  0.00    +0.000 C 
ATOM     17  N   UNL     1      -0.310  12.074  18.073  0.00  0.00    +0.000 N 
ATOM     18  H   UNL     1      -0.882  11.409  17.562  0.00  0.00    +0.000 HD
BRANCH  17  19
ATOM     19  O   UNL     1      -0.844  13.377  18.196  0.00  0.00    +0.000 OA
ATOM     20  H   UNL     1      -0.643  13.773  17.320  0.00  0.00    +0.000 HD
ENDBRANCH  17  19
ENDBRANCH   1  16
BRANCH  10  21
ATOM     21  C   UNL     1       6.521   4.314  16.140  0.00  0.00    +0.000 C 
BRANCH  21  22
ATOM     22  C   UNL     1       6.718   4.464  14.653  0.00  0.00    +0.000 A 
ATOM     23  C   UNL     1       6.094   3.574  13.771  0.00  0.00    +0.000 A 
ATOM     24  C   UNL     1       6.370   3.629  12.408  0.00  0.00    +0.000 A 
ATOM     25  C   UNL     1       7.275   4.576  11.960  0.00  0.00    +0.000 A 
ATOM     26  N   UNL     1       7.902   5.451  12.770  0.00  0.00    +0.000 NA
ATOM     27  C   UNL     1       7.620   5.371  14.096  0.00  0.00    +0.000 A 
ENDBRANCH  21  22
ENDBRANCH  10  21
TORSDOF 4
ENDMDL
MODEL 2
REMARK VINA RESULT:      -6.9      4.705      8.984
REMARK  Name = 
REMARK  4 active torsions:
REMARK  status: ('A' for Active; 'I' for Inactive)
REMARK    1  A    between atoms: C_2  and  C_5
REMARK    2  A    between atoms: N_3  and  O_4
REMARK    3  A    between atoms: N_14  and  C_15
REMARK    4  A    between atoms: C_15  and  C_16
REMARK                            x       y       z     vdW  Elec       q    Type
REMARK                         _______ _______ _______ _____ _____    ______ ____
ROOT
ATOM      1  C   UNL     1       2.555   4.398  18.746  0.00  0.00    +0.000 A 
ATOM      2  C   UNL     1       2.183   4.540  20.062  0.00  0.00    +0.000 A 
ATOM      3  N   UNL     1       1.942   5.740  20.644  0.00  0.00    +0.000 NA
ATOM      4  C   UNL     1       2.037   6.834  19.871  0.00  0.00    +0.000 A 
ATOM      5  N   UNL     1       1.740   8.054  20.388  0.00  0.00    +0.000 N 
ATOM      6  C   UNL     1       1.461   8.341  21.771  0.00  0.00    +0.000 C 
ATOM      7  C   UNL     1       0.510   9.552  21.729  0.00  0.00    +0.000 C 
ATOM      8  C   UNL     1       0.560  10.063  20.287  0.00  0.00    +0.000 C 
ATOM      9  C   UNL     1      -0.833  10.076  19.590  0.00  0.00    +0.000 C 
ATOM     10  N   UNL     1      -0.283  11.153  18.714  0.00  0.00    +0.000 NA
ATOM     11  C   UNL     1       0.537  11.581  19.890  0.00  0.00    +0.000 C 
ATOM     12  C   UNL     1       1.594   9.214  19.541  0.00  0.00    +0.000 C 
ATOM     13  N   UNL     1       2.374   6.773  18.569  0.00  0.00    +0.000 NA
ATOM     14  C   UNL     1       2.618   5.564  18.030  0.00  0.00    +0.000 A 
ENDROOT
BRANCH   1  16
ATOM     15  O   UNL     1       1.981   2.505  17.483  0.00  0.00    +0.000 OA
ATOM     16  C   UNL     1       2.827   3.081  18.156  0.00  0.00    +0.000 C 
ATOM     17  N   UNL     1       4.059   2.530  18.437  0.00  0.00    +0.000 N 
ATOM     18  H   UNL     1       4.623   2.800  19.237  0.00  0.00    +0.000 HD
BRANCH  17  19
ATOM     19  O   UNL     1       4.244   1.207  17.974  0.00  0.00    +0.000 OA
ATOM     20  H   UNL     1       5.224   1.120  17.965  0.00  0.00    +0.000 HD
ENDBRANCH  17  19
ENDBRANCH   1  16
BRANCH  10  21
ATOM     21  C   UNL     1      -1.340  12.090  18.349  0.00  0.00    +0.000 C 
BRANCH  21  22
ATOM     22  C   UNL     1      -2.408  11.504  17.460  0.00  0.00    +0.000 A 
ATOM     23  C   UNL     1      -2.061  10.950  16.223  0.00  0.00    +0.000 A 
ATOM     24  C   UNL     1      -3.052  10.522  15.344  0.00  0.00    +0.000 A 
ATOM     25  C   UNL     1      -4.375  10.665  15.727  0.00  0.00    +0.000 A 
ATOM     26  N   UNL     1      -4.757  11.195  16.906  0.00  0.00    +0.000 NA
ATOM     27  C   UNL     1      -3.770  11.612  17.740  0.00  0.00    +0.000 A 
ENDBRANCH  21  22
ENDBRANCH  10  21
TORSDOF 4
ENDMDL
MODEL 3
REMARK VINA RESULT:      -6.9      1.113      1.139
REMARK  Name = 
REMARK  4 active torsions:
REMARK  status: ('A' for Active; 'I' for Inactive)
REMARK    1  A    between atoms: C_2  and  C_5
REMARK    2  A    between atoms: N_3  and  O_4
REMARK    3  A    between atoms: N_14  and  C_15
REMARK    4  A    between atoms: C_15  and  C_16
REMARK                            x       y       z     vdW  Elec       q    Type
REMARK                         _______ _______ _______ _____ _____    ______ ____
ROOT
ATOM      1  C   UNL     1       1.094  10.454  20.056  0.00  0.00    +0.000 A 
ATOM      2  C   UNL     1       1.106   9.611  21.141  0.00  0.00    +0.000 A 
ATOM      3  N   UNL     1       1.350   8.281  21.051  0.00  0.00    +0.000 NA
ATOM      4  C   UNL     1       1.632   7.784  19.835  0.00  0.00    +0.000 A 
ATOM      5  N   UNL     1       1.951   6.471  19.699  0.00  0.00    +0.000 N 
ATOM      6  C   UNL     1       1.877   5.472  20.734  0.00  0.00    +0.000 C 
ATOM      7  C   UNL     1       2.969   4.452  20.362  0.00  0.00    +0.000 C 
ATOM      8  C   UNL     1       3.394   4.807  18.935  0.00  0.00    +0.000 C 
ATOM      9  C   UNL     1       4.912   5.135  18.807  0.00  0.00    +0.000 C 
ATOM     10  N   UNL     1       4.787   4.721  17.378  0.00  0.00    +0.000 NA
ATOM     11  C   UNL     1       3.748   3.746  17.833  0.00  0.00    +0.000 C 
ATOM     12  C   UNL     1       2.493   5.953  18.465  0.00  0.00    +0.000 C 
ATOM     13  N   UNL     1       1.662   8.552  18.729  0.00  0.00    +0.000 NA
ATOM     14  C   UNL     1       1.402   9.866  18.858  0.00  0.00    +0.000 A 
ENDROOT
BRANCH   1  16
ATOM     15  O   UNL     1      -0.055  12.286  20.969  0.00  0.00    +0.000 OA
ATOM     16  C   UNL     1       0.805  11.888  20.193  0.00  0.00    +0.000 C 
ATOM     17  N   UNL     1       1.523  12.735  19.377  0.00  0.00    +0.000 N 
ATOM     18  H   UNL     1       1.969  12.437  18.515  0.00  0.00    +0.000 HD
BRANCH  17  19
ATOM     19  O   UNL     1       1.130  14.092  19.427  0.00  0.00    +0.000 OA
ATOM     20  H   UNL     1       1.674  14.498  18.715  0.00  0.00    +0.000 HD
ENDBRANCH  17  19
ENDBRANCH   1  16
BRANCH  10  21
ATOM     21  C   UNL     1       6.030   4.103  16.926  0.00  0.00    +0.000 C 
BRANCH  21  22
ATOM     22  C   UNL     1       6.384   4.401  15.491  0.00  0.00    +0.000 A 
ATOM     23  C   UNL     1       5.798   3.660  14.458  0.00  0.00    +0.000 A 
ATOM     24  C   UNL     1       6.213   3.844  13.142  0.00  0.00    +0.000 A 
ATOM     25  C   UNL     1       7.214   4.767  12.893  0.00  0.00    +0.000 A 
ATOM     26  N   UNL     1       7.810   5.501  13.854  0.00  0.00    +0.000 NA
ATOM     27  C   UNL     1       7.392   5.296  15.129  0.00  0.00    +0.000 A 
ENDBRANCH  21  22
ENDBRANCH  10  21
TORSDOF 4
ENDMDL
MODEL 4
REMARK VINA RESULT:      -6.8      1.177      1.414
REMARK  Name = 
REMARK  4 active torsions:
REMARK  status: ('A' for Active; 'I' for Inactive)
REMARK    1  A    between atoms: C_2  and  C_5
REMARK    2  A    between atoms: N_3  and  O_4
REMARK    3  A    between atoms: N_14  and  C_15
REMARK    4  A    between atoms: C_15  and  C_16
REMARK                            x       y       z     vdW  Elec       q    Type
REMARK                         _______ _______ _______ _____ _____    ______ ____
ROOT
ATOM      1  C   UNL     1       1.004  11.363  19.415  0.00  0.00    +0.000 A 
ATOM      2  C   UNL     1       0.934  10.693  20.613  0.00  0.00    +0.000 A 
ATOM      3  N   UNL     1       1.084   9.352  20.729  0.00  0.00    +0.000 NA
ATOM      4  C   UNL     1       1.355   8.659  19.610  0.00  0.00    +0.000 A 
ATOM      5  N   UNL     1       1.582   7.322  19.681  0.00  0.00    +0.000 N 
ATOM      6  C   UNL     1       1.417   6.498  20.850  0.00  0.00    +0.000 C 
ATOM      7  C   UNL     1       2.441   5.362  20.668  0.00  0.00    +0.000 C 
ATOM      8  C   UNL     1       2.918   5.468  19.217  0.00  0.00    +0.000 C 
ATOM      9  C   UNL     1       4.458   5.671  19.089  0.00  0.00    +0.000 C 
ATOM     10  N   UNL     1       4.334   5.055  17.734  0.00  0.00    +0.000 NA
ATOM     11  C   UNL     1       3.218   4.233  18.297  0.00  0.00    +0.000 C 
ATOM     12  C   UNL     1       2.111   6.589  18.555  0.00  0.00    +0.000 C 
ATOM     13  N   UNL     1       1.462   9.248  18.404  0.00  0.00    +0.000 NA
ATOM     14  C   UNL     1       1.293  10.581  18.327  0.00  0.00    +0.000 A 
ENDROOT
BRANCH   1  16
ATOM     15  O   UNL     1       1.597  13.587  19.870  0.00  0.00    +0.000 OA
ATOM     16  C   UNL     1       0.815  12.816  19.327  0.00  0.00    +0.000 C 
ATOM     17  N   UNL     1      -0.300  13.246  18.640  0.00  0.00    +0.000 N 
ATOM     18  H   UNL     1      -1.119  12.666  18.485  0.00  0.00    +0.000 HD
BRANCH  17  19
ATOM     19  O   UNL     1      -0.534  14.639  18.687  0.00  0.00    +0.000 OA
ATOM     20  H   UNL     1       0.276  15.006  18.268  0.00  0.00    +0.000 HD
ENDBRANCH  17  19
ENDBRANCH   1  16
BRANCH  10  21
ATOM     21  C   UNL     1       5.538   4.294  17.417  0.00  0.00    +0.000 C 
BRANCH  21  22
ATOM     22  C   UNL     1       6.070   4.526  16.026  0.00  0.00    +0.000 A 
ATOM     23  C   UNL     1       5.573   3.777  14.953  0.00  0.00    +0.000 A 
ATOM     24  C   UNL     1       6.146   3.896  13.690  0.00  0.00    +0.000 A 
ATOM     25  C   UNL     1       7.212   4.765  13.534  0.00  0.00    +0.000 A 
ATOM     26  N   UNL     1       7.726   5.505  14.537  0.00  0.00    +0.000 NA
ATOM     27  C   UNL     1       7.154   5.362  15.759  0.00  0.00    +0.000 A 
ENDBRANCH  21  22
ENDBRANCH  10  21
TORSDOF 4
ENDMDL
MODEL 5
REMARK VINA RESULT:      -6.7      0.911      1.244
REMARK  Name = 
REMARK  4 active torsions:
REMARK  status: ('A' for Active; 'I' for Inactive)
REMARK    1  A    between atoms: C_2  and  C_5
REMARK    2  A    between atoms: N_3  and  O_4
REMARK    3  A    between atoms: N_14  and  C_15
REMARK    4  A    between atoms: C_15  and  C_16
REMARK                            x       y       z     vdW  Elec       q    Type
REMARK                         _______ _______ _______ _____ _____    ______ ____
ROOT
ATOM      1  C   UNL     1       1.058  10.244  19.243  0.00  0.00    +0.000 A 
ATOM      2  C   UNL     1       1.219   9.443  20.348  0.00  0.00    +0.000 A 
ATOM      3  N   UNL     1       1.661   8.164  20.287  0.00  0.00    +0.000 NA
ATOM      4  C   UNL     1       1.995   7.681  19.078  0.00  0.00    +0.000 A 
ATOM      5  N   UNL     1       2.507   6.429  18.969  0.00  0.00    +0.000 N 
ATOM      6  C   UNL     1       2.606   5.460  20.030  0.00  0.00    +0.000 C 
ATOM      7  C   UNL     1       3.834   4.608  19.660  0.00  0.00    +0.000 C 
ATOM      8  C   UNL     1       4.174   4.982  18.215  0.00  0.00    +0.000 C 
ATOM      9  C   UNL     1       5.621   5.534  18.046  0.00  0.00    +0.000 C 
ATOM     10  N   UNL     1       5.536   5.065  16.631  0.00  0.00    +0.000 NA
ATOM     11  C   UNL     1       4.665   3.957  17.133  0.00  0.00    +0.000 C 
ATOM     12  C   UNL     1       3.100   5.964  17.737  0.00  0.00    +0.000 C 
ATOM     13  N   UNL     1       1.887   8.413  17.953  0.00  0.00    +0.000 NA
ATOM     14  C   UNL     1       1.431   9.675  18.053  0.00  0.00    +0.000 A 
ENDROOT
BRANCH   1  16
ATOM     15  O   UNL     1      -0.639  11.864  19.235  0.00  0.00    +0.000 OA
ATOM     16  C   UNL     1       0.556  11.620  19.349  0.00  0.00    +0.000 C 
ATOM     17  N   UNL     1       1.503  12.602  19.541  0.00  0.00    +0.000 N 
ATOM     18  H   UNL     1       2.483  12.489  19.300  0.00  0.00    +0.000 HD
BRANCH  17  19
ATOM     19  O   UNL     1       1.011  13.927  19.502  0.00  0.00    +0.000 OA
ATOM     20  H   UNL     1       0.039  13.792  19.441  0.00  0.00    +0.000 HD
ENDBRANCH  17  19
ENDBRANCH   1  16
BRANCH  10  21
ATOM     21  C   UNL     1       6.850   4.631  16.167  0.00  0.00    +0.000 C 
BRANCH  21  22
ATOM     22  C   UNL     1       6.957   4.470  14.672  0.00  0.00    +0.000 A 
ATOM     23  C   UNL     1       7.785   5.325  13.935  0.00  0.00    +0.000 A 
ATOM     24  C   UNL     1       7.793   5.265  12.544  0.00  0.00    +0.000 A 
ATOM     25  C   UNL     1       6.964   4.347  11.923  0.00  0.00    +0.000 A 
ATOM     26  N   UNL     1       6.148   3.507  12.590  0.00  0.00    +0.000 NA
ATOM     27  C   UNL     1       6.154   3.593  13.944  0.00  0.00    +0.000 A 
ENDBRANCH  21  22
ENDBRANCH  10  21
TORSDOF 4
ENDMDL
MODEL 6
REMARK VINA RESULT:      -6.7      1.093      1.384
REMARK  Name = 
REMARK  4 active torsions:
REMARK  status: ('A' for Active; 'I' for Inactive)
REMARK    1  A    between atoms: C_2  and  C_5
REMARK    2  A    between atoms: N_3  and  O_4
REMARK    3  A    between atoms: N_14  and  C_15
REMARK    4  A    between atoms: C_15  and  C_16
REMARK                            x       y       z     vdW  Elec       q    Type
REMARK                         _______ _______ _______ _____ _____    ______ ____
ROOT
ATOM      1  C   UNL     1       1.059   9.571  20.230  0.00  0.00    +0.000 A 
ATOM      2  C   UNL     1       1.193   8.562  21.154  0.00  0.00    +0.000 A 
ATOM      3  N   UNL     1       1.634   7.319  20.844  0.00  0.00    +0.000 NA
ATOM      4  C   UNL     1       1.993   7.089  19.570  0.00  0.00    +0.000 A 
ATOM      5  N   UNL     1       2.505   5.881  19.221  0.00  0.00    +0.000 N 
ATOM      6  C   UNL     1       2.578   4.717  20.066  0.00  0.00    +0.000 C 
ATOM      7  C   UNL     1       3.813   3.949  19.558  0.00  0.00    +0.000 C 
ATOM      8  C   UNL     1       4.185   4.605  18.226  0.00  0.00    +0.000 C 
ATOM      9  C   UNL     1       5.637   5.170  18.202  0.00  0.00    +0.000 C 
ATOM     10  N   UNL     1       5.582   4.998  16.720  0.00  0.00    +0.000 NA
ATOM     11  C   UNL     1       4.698   3.817  16.969  0.00  0.00    +0.000 C 
ATOM     12  C   UNL     1       3.124   5.671  17.933  0.00  0.00    +0.000 C 
ATOM     13  N   UNL     1       1.912   8.033  18.614  0.00  0.00    +0.000 NA
ATOM     14  C   UNL     1       1.457   9.252  18.958  0.00  0.00    +0.000 A 
ENDROOT
BRANCH   1  16
ATOM     15  O   UNL     1       0.720  11.341  21.733  0.00  0.00    +0.000 OA
ATOM     16  C   UNL     1       0.558  10.901  20.602  0.00  0.00    +0.000 C 
ATOM     17  N   UNL     1      -0.128  11.588  19.624  0.00  0.00    +0.000 N 
ATOM     18  H   UNL     1      -0.568  11.138  18.827  0.00  0.00    +0.000 HD
BRANCH  17  19
ATOM     19  O   UNL     1      -0.718  12.802  20.046  0.00  0.00    +0.000 OA
ATOM     20  H   UNL     1      -0.021  13.190  20.619  0.00  0.00    +0.000 HD
ENDBRANCH  17  19
ENDBRANCH   1  16
BRANCH  10  21
ATOM     21  C   UNL     1       6.905   4.658  16.206  0.00  0.00    +0.000 C 
BRANCH  21  22
ATOM     22  C   UNL     1       6.958   4.465  14.712  0.00  0.00    +0.000 A 
ATOM     23  C   UNL     1       7.781   5.284  13.930  0.00  0.00    +0.000 A 
ATOM     24  C   UNL     1       7.740   5.196  12.541  0.00  0.00    +0.000 A 
ATOM     25  C   UNL     1       6.869   4.287  11.967  0.00  0.00    +0.000 A 
ATOM     26  N   UNL     1       6.057   3.479  12.678  0.00  0.00    +0.000 NA
ATOM     27  C   UNL     1       6.110   3.592  14.029  0.00  0.00    +0.000 A 
ENDBRANCH  21  22
ENDBRANCH  10  21
TORSDOF 4
ENDMDL
MODEL 7
REMARK VINA RESULT:      -6.4      4.078      8.847
REMARK  Name = 
REMARK  4 active torsions:
REMARK  status: ('A' for Active; 'I' for Inactive)
REMARK    1  A    between atoms: C_2  and  C_5
REMARK    2  A    between atoms: N_3  and  O_4
REMARK    3  A    between atoms: N_14  and  C_15
REMARK    4  A    between atoms: C_15  and  C_16
REMARK                            x       y       z     vdW  Elec       q    Type
REMARK                         _______ _______ _______ _____ _____    ______ ____
ROOT
ATOM      1  C   UNL     1       3.450   5.148  18.184  0.00  0.00    +0.000 A 
ATOM      2  C   UNL     1       2.859   4.915  19.402  0.00  0.00    +0.000 A 
ATOM      3  N   UNL     1       2.296   5.889  20.158  0.00  0.00    +0.000 NA
ATOM      4  C   UNL     1       2.288   7.135  19.657  0.00  0.00    +0.000 A 
ATOM      5  N   UNL     1       1.677   8.136  20.342  0.00  0.00    +0.000 N 
ATOM      6  C   UNL     1       1.136   8.040  21.673  0.00  0.00    +0.000 C 
ATOM      7  C   UNL     1      -0.020   9.058  21.693  0.00  0.00    +0.000 C 
ATOM      8  C   UNL     1       0.149   9.895  20.423  0.00  0.00    +0.000 C 
ATOM      9  C   UNL     1      -1.094   9.848  19.485  0.00  0.00    +0.000 C 
ATOM     10  N   UNL     1      -0.642  11.175  18.970  0.00  0.00    +0.000 NA
ATOM     11  C   UNL     1      -0.116  11.440  20.346  0.00  0.00    +0.000 C 
ATOM     12  C   UNL     1       1.434   9.423  19.736  0.00  0.00    +0.000 C 
ATOM     13  N   UNL     1       2.827   7.437  18.460  0.00  0.00    +0.000 NA
ATOM     14  C   UNL     1       3.388   6.444  17.745  0.00  0.00    +0.000 A 
ENDROOT
BRANCH   1  16
ATOM     15  O   UNL     1       3.682   2.911  17.514  0.00  0.00    +0.000 OA
ATOM     16  C   UNL     1       4.068   4.068  17.404  0.00  0.00    +0.000 C 
ATOM     17  N   UNL     1       5.116   4.430  16.585  0.00  0.00    +0.000 N 
ATOM     18  H   UNL     1       5.668   5.272  16.722  0.00  0.00    +0.000 HD
BRANCH  17  19
ATOM     19  O   UNL     1       5.782   3.356  15.952  0.00  0.00    +0.000 OA
ATOM     20  H   UNL     1       5.610   2.607  16.565  0.00  0.00    +0.000 HD
ENDBRANCH  17  19
ENDBRANCH   1  16
BRANCH  10  21
ATOM     21  C   UNL     1      -1.796  11.989  18.604  0.00  0.00    +0.000 C 
BRANCH  21  22
ATOM     22  C   UNL     1      -2.635  11.411  17.493  0.00  0.00    +0.000 A 
ATOM     23  C   UNL     1      -2.021  10.731  16.434  0.00  0.00    +0.000 A 
ATOM     24  C   UNL     1      -2.775  10.304  15.344  0.00  0.00    +0.000 A 
ATOM     25  C   UNL     1      -4.133  10.576  15.340  0.00  0.00    +0.000 A 
ATOM     26  N   UNL     1      -4.767  11.229  16.334  0.00  0.00    +0.000 NA
ATOM     27  C   UNL     1      -4.006  11.641  17.380  0.00  0.00    +0.000 A 
ENDBRANCH  21  22
ENDBRANCH  10  21
TORSDOF 4
ENDMDL
MODEL 8
REMARK VINA RESULT:      -6.4      4.829      8.488
REMARK  Name = 
REMARK  4 active torsions:
REMARK  status: ('A' for Active; 'I' for Inactive)
REMARK    1  A    between atoms: C_2  and  C_5
REMARK    2  A    between atoms: N_3  and  O_4
REMARK    3  A    between atoms: N_14  and  C_15
REMARK    4  A    between atoms: C_15  and  C_16
REMARK                            x       y       z     vdW  Elec       q    Type
REMARK                         _______ _______ _______ _____ _____    ______ ____
ROOT
ATOM      1  C   UNL     1      -4.755  13.226  23.004  0.00  0.00    +0.000 A 
ATOM      2  C   UNL     1      -4.648  14.228  22.070  0.00  0.00    +0.000 A 
ATOM      3  N   UNL     1      -3.524  14.463  21.351  0.00  0.00    +0.000 NA
ATOM      4  C   UNL     1      -2.481  13.638  21.544  0.00  0.00    +0.000 A 
ATOM      5  N   UNL     1      -1.355  13.787  20.801  0.00  0.00    +0.000 N 
ATOM      6  C   UNL     1      -1.082  14.866  19.887  0.00  0.00    +0.000 C 
ATOM      7  C   UNL     1      -0.161  14.244  18.821  0.00  0.00    +0.000 C 
ATOM      8  C   UNL     1       0.275  12.893  19.393  0.00  0.00    +0.000 C 
ATOM      9  C   UNL     1      -0.106  11.688  18.481  0.00  0.00    +0.000 C 
ATOM     10  N   UNL     1       1.032  10.962  19.120  0.00  0.00    +0.000 NA
ATOM     11  C   UNL     1       1.714  12.290  19.227  0.00  0.00    +0.000 C 
ATOM     12  C   UNL     1      -0.315  12.786  20.802  0.00  0.00    +0.000 C 
ATOM     13  N   UNL     1      -2.518  12.620  22.425  0.00  0.00    +0.000 NA
ATOM     14  C   UNL     1      -3.648  12.427  23.130  0.00  0.00    +0.000 A 
ENDROOT
BRANCH   1  16
ATOM     15  O   UNL     1      -6.459  11.896  23.915  0.00  0.00    +0.000 OA
ATOM     16  C   UNL     1      -5.984  13.016  23.779  0.00  0.00    +0.000 C 
ATOM     17  N   UNL     1      -6.577  14.146  24.300  0.00  0.00    +0.000 N 
ATOM     18  H   UNL     1      -6.419  15.080  23.933  0.00  0.00    +0.000 HD
BRANCH  17  19
ATOM     19  O   UNL     1      -7.829  13.935  24.922  0.00  0.00    +0.000 OA
ATOM     20  H   UNL     1      -8.356  14.702  24.606  0.00  0.00    +0.000 HD
ENDBRANCH  17  19
ENDBRANCH   1  16
BRANCH  10  21
ATOM     21  C   UNL     1       1.646  10.050  18.162  0.00  0.00    +0.000 C 
BRANCH  21  22
ATOM     22  C   UNL     1       1.983   8.693  18.726  0.00  0.00    +0.000 A 
ATOM     23  C   UNL     1       2.541   7.711  17.899  0.00  0.00    +0.000 A 
ATOM     24  C   UNL     1       2.737   6.419  18.381  0.00  0.00    +0.000 A 
ATOM     25  C   UNL     1       2.363   6.141  19.684  0.00  0.00    +0.000 A 
ATOM     26  N   UNL     1       1.820   7.052  20.516  0.00  0.00    +0.000 NA
ATOM     27  C   UNL     1       1.632   8.301  20.018  0.00  0.00    +0.000 A 
ENDBRANCH  21  22
ENDBRANCH  10  21
TORSDOF 4
ENDMDL
MODEL 9
REMARK VINA RESULT:      -6.3      4.098      8.915
REMARK  Name = 
REMARK  4 active torsions:
REMARK  status: ('A' for Active; 'I' for Inactive)
REMARK    1  A    between atoms: C_2  and  C_5
REMARK    2  A    between atoms: N_3  and  O_4
REMARK    3  A    between atoms: N_14  and  C_15
REMARK    4  A    between atoms: C_15  and  C_16
REMARK                            x       y       z     vdW  Elec       q    Type
REMARK                         _______ _______ _______ _____ _____    ______ ____
ROOT
ATOM      1  C   UNL     1       3.231   5.232  18.256  0.00  0.00    +0.000 A 
ATOM      2  C   UNL     1       2.711   4.995  19.506  0.00  0.00    +0.000 A 
ATOM      3  N   UNL     1       2.197   5.967  20.298  0.00  0.00    +0.000 NA
ATOM      4  C   UNL     1       2.166   7.216  19.806  0.00  0.00    +0.000 A 
ATOM      5  N   UNL     1       1.600   8.215  20.532  0.00  0.00    +0.000 N 
ATOM      6  C   UNL     1       1.137   8.113  21.891  0.00  0.00    +0.000 C 
ATOM      7  C   UNL     1      -0.010   9.136  21.984  0.00  0.00    +0.000 C 
ATOM      8  C   UNL     1       0.088   9.980  20.711  0.00  0.00    +0.000 C 
ATOM      9  C   UNL     1      -1.208   9.944  19.847  0.00  0.00    +0.000 C 
ATOM     10  N   UNL     1      -0.781  11.272  19.315  0.00  0.00    +0.000 NA
ATOM     11  C   UNL     1      -0.175  11.526  20.658  0.00  0.00    +0.000 C 
ATOM     12  C   UNL     1       1.329   9.507  19.948  0.00  0.00    +0.000 C 
ATOM     13  N   UNL     1       2.635   7.522  18.582  0.00  0.00    +0.000 NA
ATOM     14  C   UNL     1       3.150   6.532  17.829  0.00  0.00    +0.000 A 
ENDROOT
BRANCH   1  16
ATOM     15  O   UNL     1       3.209   3.088  17.303  0.00  0.00    +0.000 OA
ATOM     16  C   UNL     1       3.798   4.154  17.435  0.00  0.00    +0.000 C 
ATOM     17  N   UNL     1       5.029   4.403  16.868  0.00  0.00    +0.000 N 
ATOM     18  H   UNL     1       5.677   5.100  17.222  0.00  0.00    +0.000 HD
BRANCH  17  19
ATOM     19  O   UNL     1       5.614   3.304  16.199  0.00  0.00    +0.000 OA
ATOM     20  H   UNL     1       6.568   3.543  16.191  0.00  0.00    +0.000 HD
ENDBRANCH  17  19
ENDBRANCH   1  16
BRANCH  10  21
ATOM     21  C   UNL     1      -1.951  12.093  19.020  0.00  0.00    +0.000 C 
BRANCH  21  22
ATOM     22  C   UNL     1      -2.687  11.696  17.766  0.00  0.00    +0.000 A 
ATOM     23  C   UNL     1      -4.087  11.673  17.755  0.00  0.00    +0.000 A 
ATOM     24  C   UNL     1      -4.770  11.188  16.643  0.00  0.00    +0.000 A 
ATOM     25  C   UNL     1      -4.030  10.731  15.566  0.00  0.00    +0.000 A 
ATOM     26  N   UNL     1      -2.683  10.730  15.533  0.00  0.00    +0.000 NA
ATOM     27  C   UNL     1      -2.042  11.201  16.633  0.00  0.00    +0.000 A 
ENDBRANCH  21  22
ENDBRANCH  10  21
TORSDOF 4
ENDMDL
