MODEL 1
REMARK VINA RESULT:      -7.8      0.000      0.000
REMARK  Name = 
REMARK  8 active torsions:
REMARK  status: ('A' for Active; 'I' for Inactive)
REMARK    1  A    between atoms: C_1  and  C_2
REMARK    2  A    between atoms: N_4  and  C_5
REMARK    3  A    between atoms: C_5  and  C_6
REMARK    4  A    between atoms: C_5  and  C_7
REMARK    5  A    between atoms: C_10  and  O_11
REMARK    6  A    between atoms: O_11  and  C_12
REMARK    7  A    between atoms: N_15  and  C_16
REMARK    8  A    between atoms: C_23  and  C_24
REMARK                            x       y       z     vdW  Elec       q    Type
REMARK                         _______ _______ _______ _____ _____    ______ ____
ROOT
ATOM      1  C   UNL     1       0.533   9.981  18.998  0.00  0.00    +0.000 C 
ATOM      2  C   UNL     1       0.978  11.409  18.689  0.00  0.00    +0.000 C 
ATOM      3  C   UNL     1       0.315  12.285  19.746  0.00  0.00    +0.000 C 
ATOM      4  N   UNL     1      -0.871  11.555  20.160  0.00  0.00    +0.000 N 
ATOM      5  C   UNL     1      -0.814  10.159  19.736  0.00  0.00    +0.000 C 
ENDROOT
BRANCH   4   6
ATOM      6  C   UNL     1      -2.058  12.128  20.582  0.00  0.00    +0.000 A 
ATOM      7  N   UNL     1      -3.072  12.192  19.670  0.00  0.00    +0.000 NA
ATOM      8  C   UNL     1      -4.262  12.736  20.005  0.00  0.00    +0.000 A 
ATOM      9  N   UNL     1      -5.311  12.739  19.130  0.00  0.00    +0.000 N 
ATOM     10  C   UNL     1      -6.559  13.401  19.471  0.00  0.00    +0.000 C 
ATOM     11  C   UNL     1      -7.563  12.692  18.576  0.00  0.00    +0.000 C 
ATOM     12  C   UNL     1      -6.771  12.460  17.297  0.00  0.00    +0.000 C 
ATOM     13  C   UNL     1      -5.318  12.210  17.771  0.00  0.00    +0.000 C 
ATOM     14  C   UNL     1      -4.987  10.724  17.716  0.00  0.00    +0.000 C 
ATOM     15  N   UNL     1      -4.495  13.244  21.224  0.00  0.00    +0.000 NA
ATOM     16  C   UNL     1      -3.512  13.149  22.128  0.00  0.00    +0.000 A 
ATOM     17  C   UNL     1      -2.271  12.606  21.874  0.00  0.00    +0.000 A 
ATOM     18 CL   UNL     1      -1.173  12.512  23.196  0.00  0.00    +0.000 Cl
ENDBRANCH   4   6
BRANCH   1  19
ATOM     19  O   UNL     1       1.550   9.338  19.788  0.00  0.00    +0.000 OA
BRANCH  19  23
ATOM     20  C   UNL     1       3.156   5.827  18.124  0.00  0.00    +0.000 A 
ATOM     21  C   UNL     1       3.176   7.049  17.435  0.00  0.00    +0.000 A 
ATOM     22  C   UNL     1       2.620   8.204  18.009  0.00  0.00    +0.000 A 
ATOM     23  C   UNL     1       2.028   8.155  19.276  0.00  0.00    +0.000 A 
ATOM     24  C   UNL     1       2.008   6.944  19.960  0.00  0.00    +0.000 A 
ATOM     25  C   UNL     1       2.562   5.797  19.397  0.00  0.00    +0.000 A 
BRANCH  20  26
ATOM     26  C   UNL     1       3.789   4.576  17.535  0.00  0.00    +0.000 C 
ATOM     27  C   UNL     1       3.020   3.318  17.956  0.00  0.00    +0.000 C 
BRANCH  26  31
ATOM     28  C   UNL     1       7.575   4.688  17.756  0.00  0.00    +0.000 C 
ATOM     29  C   UNL     1       6.219   4.885  17.131  0.00  0.00    +0.000 C 
ATOM     30  O   UNL     1       6.071   5.343  16.001  0.00  0.00    +0.000 OA
ATOM     31  N   UNL     1       5.184   4.502  17.944  0.00  0.00    +0.000 N 
ATOM     32  H   UNL     1       5.395   4.145  18.866  0.00  0.00    +0.000 HD
ENDBRANCH  26  31
ENDBRANCH  20  26
ENDBRANCH  19  23
ENDBRANCH   1  19
TORSDOF 5
ENDMDL
MODEL 2
REMARK VINA RESULT:      -7.7      2.801      4.156
REMARK  Name = 
REMARK  8 active torsions:
REMARK  status: ('A' for Active; 'I' for Inactive)
REMARK    1  A    between atoms: C_1  and  C_2
REMARK    2  A    between atoms: N_4  and  C_5
REMARK    3  A    between atoms: C_5  and  C_6
REMARK    4  A    between atoms: C_5  and  C_7
REMARK    5  A    between atoms: C_10  and  O_11
REMARK    6  A    between atoms: O_11  and  C_12
REMARK    7  A    between atoms: N_15  and  C_16
REMARK    8  A    between atoms: C_23  and  C_24
REMARK                            x       y       z     vdW  Elec       q    Type
REMARK                         _______ _______ _______ _____ _____    ______ ____
ROOT
ATOM      1  C   UNL     1       2.440   6.427  19.074  0.00  0.00    +0.000 C 
ATOM      2  C   UNL     1       1.892   7.005  17.771  0.00  0.00    +0.000 C 
ATOM      3  C   UNL     1       1.674   8.489  18.040  0.00  0.00    +0.000 C 
ATOM      4  N   UNL     1       1.471   8.594  19.475  0.00  0.00    +0.000 N 
ATOM      5  C   UNL     1       1.903   7.382  20.165  0.00  0.00    +0.000 C 
ENDROOT
BRANCH   4   6
ATOM      6  C   UNL     1       0.670   9.531  20.104  0.00  0.00    +0.000 A 
ATOM      7  N   UNL     1      -0.367  10.044  19.381  0.00  0.00    +0.000 NA
ATOM      8  C   UNL     1      -1.194  10.963  19.925  0.00  0.00    +0.000 A 
ATOM      9  N   UNL     1      -2.280  11.430  19.242  0.00  0.00    +0.000 N 
ATOM     10  C   UNL     1      -3.114  12.479  19.803  0.00  0.00    +0.000 C 
ATOM     11  C   UNL     1      -4.435  12.274  19.078  0.00  0.00    +0.000 C 
ATOM     12  C   UNL     1      -3.992  11.872  17.678  0.00  0.00    +0.000 C 
ATOM     13  C   UNL     1      -2.691  11.059  17.892  0.00  0.00    +0.000 C 
ATOM     14  C   UNL     1      -2.966   9.568  17.750  0.00  0.00    +0.000 C 
ATOM     15  N   UNL     1      -1.030  11.416  21.176  0.00  0.00    +0.000 NA
ATOM     16  C   UNL     1      -0.034  10.886  21.897  0.00  0.00    +0.000 A 
ATOM     17  C   UNL     1       0.852   9.942  21.424  0.00  0.00    +0.000 A 
ATOM     18 CL   UNL     1       2.015   9.335  22.537  0.00  0.00    +0.000 Cl
ENDBRANCH   4   6
BRANCH   1  19
ATOM     19  O   UNL     1       3.876   6.381  18.995  0.00  0.00    +0.000 OA
BRANCH  19  23
ATOM     20  C   UNL     1       5.549   4.721  15.513  0.00  0.00    +0.000 A 
ATOM     21  C   UNL     1       5.427   6.108  15.687  0.00  0.00    +0.000 A 
ATOM     22  C   UNL     1       4.852   6.635  16.855  0.00  0.00    +0.000 A 
ATOM     23  C   UNL     1       4.382   5.786  17.862  0.00  0.00    +0.000 A 
ATOM     24  C   UNL     1       4.502   4.411  17.690  0.00  0.00    +0.000 A 
ATOM     25  C   UNL     1       5.075   3.884  16.536  0.00  0.00    +0.000 A 
BRANCH  20  26
ATOM     26  C   UNL     1       6.204   4.134  14.273  0.00  0.00    +0.000 C 
ATOM     27  C   UNL     1       7.356   5.022  13.783  0.00  0.00    +0.000 C 
BRANCH  26  31
ATOM     28  C   UNL     1       4.243   3.173  11.171  0.00  0.00    +0.000 C 
ATOM     29  C   UNL     1       5.412   3.184  12.121  0.00  0.00    +0.000 C 
ATOM     30  O   UNL     1       6.448   2.561  11.903  0.00  0.00    +0.000 OA
ATOM     31  N   UNL     1       5.200   3.954  13.235  0.00  0.00    +0.000 N 
ATOM     32  H   UNL     1       4.312   4.426  13.340  0.00  0.00    +0.000 HD
ENDBRANCH  26  31
ENDBRANCH  20  26
ENDBRANCH  19  23
ENDBRANCH   1  19
TORSDOF 5
ENDMDL
MODEL 3
REMARK VINA RESULT:      -7.7      3.187      4.730
REMARK  Name = 
REMARK  8 active torsions:
REMARK  status: ('A' for Active; 'I' for Inactive)
REMARK    1  A    between atoms: C_1  and  C_2
REMARK    2  A    between atoms: N_4  and  C_5
REMARK    3  A    between atoms: C_5  and  C_6
REMARK    4  A    between atoms: C_5  and  C_7
REMARK    5  A    between atoms: C_10  and  O_11
REMARK    6  A    between atoms: O_11  and  C_12
REMARK    7  A    between atoms: N_15  and  C_16
REMARK    8  A    between atoms: C_23  and  C_24
REMARK                            x       y       z     vdW  Elec       q    Type
REMARK                         _______ _______ _______ _____ _____    ______ ____
ROOT
ATOM      1  C   UNL     1       1.567   8.235  21.122  0.00  0.00    +0.000 C 
ATOM      2  C   UNL     1       0.931   8.952  22.311  0.00  0.00    +0.000 C 
ATOM      3  C   UNL     1      -0.223   9.763  21.733  0.00  0.00    +0.000 C 
ATOM      4  N   UNL     1       0.138  10.012  20.348  0.00  0.00    +0.000 N 
ATOM      5  C   UNL     1       1.218   9.132  19.911  0.00  0.00    +0.000 C 
ENDROOT
BRANCH   4   6
ATOM      6  C   UNL     1      -0.211  11.135  19.619  0.00  0.00    +0.000 A 
ATOM      7  N   UNL     1       0.390  12.310  19.967  0.00  0.00    +0.000 NA
ATOM      8  C   UNL     1       0.103  13.450  19.303  0.00  0.00    +0.000 A 
ATOM      9  N   UNL     1       0.751  14.618  19.588  0.00  0.00    +0.000 N 
ATOM     10  C   UNL     1       0.375  15.855  18.926  0.00  0.00    +0.000 C 
ATOM     11  C   UNL     1       1.636  16.695  19.055  0.00  0.00    +0.000 C 
ATOM     12  C   UNL     1       2.154  16.316  20.436  0.00  0.00    +0.000 C 
ATOM     13  C   UNL     1       1.776  14.824  20.605  0.00  0.00    +0.000 C 
ATOM     14  C   UNL     1       2.998  13.939  20.395  0.00  0.00    +0.000 C 
ATOM     15  N   UNL     1      -0.781  13.483  18.295  0.00  0.00    +0.000 NA
ATOM     16  C   UNL     1      -1.344  12.324  17.931  0.00  0.00    +0.000 A 
ATOM     17  C   UNL     1      -1.105  11.116  18.550  0.00  0.00    +0.000 A 
ATOM     18 CL   UNL     1      -1.873   9.730  17.878  0.00  0.00    +0.000 Cl
ENDBRANCH   4   6
BRANCH   1  19
ATOM     19  O   UNL     1       1.024   6.905  21.037  0.00  0.00    +0.000 OA
BRANCH  19  23
ATOM     20  C   UNL     1       3.039   4.142  18.591  0.00  0.00    +0.000 A 
ATOM     21  C   UNL     1       1.833   3.821  19.231  0.00  0.00    +0.000 A 
ATOM     22  C   UNL     1       1.188   4.759  20.054  0.00  0.00    +0.000 A 
ATOM     23  C   UNL     1       1.741   6.028  20.257  0.00  0.00    +0.000 A 
ATOM     24  C   UNL     1       2.937   6.347  19.622  0.00  0.00    +0.000 A 
ATOM     25  C   UNL     1       3.578   5.422  18.802  0.00  0.00    +0.000 A 
BRANCH  20  26
ATOM     26  C   UNL     1       3.731   3.154  17.665  0.00  0.00    +0.000 C 
ATOM     27  C   UNL     1       3.620   1.722  18.204  0.00  0.00    +0.000 C 
BRANCH  26  31
ATOM     28  C   UNL     1       7.085   4.360  16.368  0.00  0.00    +0.000 C 
ATOM     29  C   UNL     1       5.611   4.058  16.320  0.00  0.00    +0.000 C 
ATOM     30  O   UNL     1       4.927   4.255  15.318  0.00  0.00    +0.000 OA
ATOM     31  N   UNL     1       5.122   3.545  17.494  0.00  0.00    +0.000 N 
ATOM     32  H   UNL     1       5.754   3.426  18.274  0.00  0.00    +0.000 HD
ENDBRANCH  26  31
ENDBRANCH  20  26
ENDBRANCH  19  23
ENDBRANCH   1  19
TORSDOF 5
ENDMDL
MODEL 4
REMARK VINA RESULT:      -7.6      3.927     10.879
REMARK  Name = 
REMARK  8 active torsions:
REMARK  status: ('A' for Active; 'I' for Inactive)
REMARK    1  A    between atoms: C_1  and  C_2
REMARK    2  A    between atoms: N_4  and  C_5
REMARK    3  A    between atoms: C_5  and  C_6
REMARK    4  A    between atoms: C_5  and  C_7
REMARK    5  A    between atoms: C_10  and  O_11
REMARK    6  A    between atoms: O_11  and  C_12
REMARK    7  A    between atoms: N_15  and  C_16
REMARK    8  A    between atoms: C_23  and  C_24
REMARK                            x       y       z     vdW  Elec       q    Type
REMARK                         _______ _______ _______ _____ _____    ______ ____
ROOT
ATOM      1  C   UNL     1      -0.316  10.173  21.277  0.00  0.00    +0.000 C 
ATOM      2  C   UNL     1      -0.328   8.883  22.094  0.00  0.00    +0.000 C 
ATOM      3  C   UNL     1       0.981   8.176  21.766  0.00  0.00    +0.000 C 
ATOM      4  N   UNL     1       1.353   8.651  20.444  0.00  0.00    +0.000 N 
ATOM      5  C   UNL     1       0.606   9.850  20.078  0.00  0.00    +0.000 C 
ENDROOT
BRANCH   4   6
ATOM      6  C   UNL     1       2.044   7.919  19.494  0.00  0.00    +0.000 A 
ATOM      7  N   UNL     1       2.281   6.605  19.778  0.00  0.00    +0.000 NA
ATOM      8  C   UNL     1       2.948   5.823  18.902  0.00  0.00    +0.000 A 
ATOM      9  N   UNL     1       3.127   4.490  19.136  0.00  0.00    +0.000 N 
ATOM     10  C   UNL     1       3.918   3.677  18.228  0.00  0.00    +0.000 C 
ATOM     11  C   UNL     1       3.387   2.276  18.491  0.00  0.00    +0.000 C 
ATOM     12  C   UNL     1       3.129   2.290  19.992  0.00  0.00    +0.000 C 
ATOM     13  C   UNL     1       2.677   3.739  20.303  0.00  0.00    +0.000 C 
ATOM     14  C   UNL     1       1.168   3.796  20.494  0.00  0.00    +0.000 C 
ATOM     15  N   UNL     1       3.413   6.297  17.737  0.00  0.00    +0.000 NA
ATOM     16  C   UNL     1       3.151   7.576  17.444  0.00  0.00    +0.000 A 
ATOM     17  C   UNL     1       2.474   8.442  18.276  0.00  0.00    +0.000 A 
ATOM     18 CL   UNL     1       2.175  10.027  17.677  0.00  0.00    +0.000 Cl
ENDBRANCH   4   6
BRANCH   1  19
ATOM     19  O   UNL     1       0.165  11.245  22.108  0.00  0.00    +0.000 OA
BRANCH  19  23
ATOM     20  C   UNL     1      -2.757  14.001  23.352  0.00  0.00    +0.000 A 
ATOM     21  C   UNL     1      -1.604  14.406  22.662  0.00  0.00    +0.000 A 
ATOM     22  C   UNL     1      -0.637  13.465  22.270  0.00  0.00    +0.000 A 
ATOM     23  C   UNL     1      -0.802  12.108  22.569  0.00  0.00    +0.000 A 
ATOM     24  C   UNL     1      -1.945  11.706  23.253  0.00  0.00    +0.000 A 
ATOM     25  C   UNL     1      -2.908  12.634  23.639  0.00  0.00    +0.000 A 
BRANCH  20  26
ATOM     26  C   UNL     1      -3.832  15.000  23.749  0.00  0.00    +0.000 C 
ATOM     27  C   UNL     1      -3.323  15.960  24.831  0.00  0.00    +0.000 C 
BRANCH  26  31
ATOM     28  C   UNL     1      -7.271  13.445  24.141  0.00  0.00    +0.000 C 
ATOM     29  C   UNL     1      -6.170  14.215  23.461  0.00  0.00    +0.000 C 
ATOM     30  O   UNL     1      -6.309  14.730  22.354  0.00  0.00    +0.000 OA
ATOM     31  N   UNL     1      -5.016  14.281  24.198  0.00  0.00    +0.000 N 
ATOM     32  H   UNL     1      -4.984  13.819  25.096  0.00  0.00    +0.000 HD
ENDBRANCH  26  31
ENDBRANCH  20  26
ENDBRANCH  19  23
ENDBRANCH   1  19
TORSDOF 5
ENDMDL
MODEL 5
REMARK VINA RESULT:      -7.6      3.195      4.757
REMARK  Name = 
REMARK  8 active torsions:
REMARK  status: ('A' for Active; 'I' for Inactive)
REMARK    1  A    between atoms: C_1  and  C_2
REMARK    2  A    between atoms: N_4  and  C_5
REMARK    3  A    between atoms: C_5  and  C_6
REMARK    4  A    between atoms: C_5  and  C_7
REMARK    5  A    between atoms: C_10  and  O_11
REMARK    6  A    between atoms: O_11  and  C_12
REMARK    7  A    between atoms: N_15  and  C_16
REMARK    8  A    between atoms: C_23  and  C_24
REMARK                            x       y       z     vdW  Elec       q    Type
REMARK                         _______ _______ _______ _____ _____    ______ ____
ROOT
ATOM      1  C   UNL     1       1.545   8.402  21.242  0.00  0.00    +0.000 C 
ATOM      2  C   UNL     1       0.957   9.156  22.433  0.00  0.00    +0.000 C 
ATOM      3  C   UNL     1      -0.159  10.023  21.861  0.00  0.00    +0.000 C 
ATOM      4  N   UNL     1       0.203  10.247  20.472  0.00  0.00    +0.000 N 
ATOM      5  C   UNL     1       1.232   9.310  20.030  0.00  0.00    +0.000 C 
ENDROOT
BRANCH   4   6
ATOM      6  C   UNL     1      -0.094  11.383  19.739  0.00  0.00    +0.000 A 
ATOM      7  N   UNL     1       0.550  12.533  20.094  0.00  0.00    +0.000 NA
ATOM      8  C   UNL     1       0.315  13.684  19.427  0.00  0.00    +0.000 A 
ATOM      9  N   UNL     1       1.007  14.824  19.719  0.00  0.00    +0.000 N 
ATOM     10  C   UNL     1       0.687  16.076  19.053  0.00  0.00    +0.000 C 
ATOM     11  C   UNL     1       1.980  16.864  19.194  0.00  0.00    +0.000 C 
ATOM     12  C   UNL     1       2.469  16.465  20.580  0.00  0.00    +0.000 C 
ATOM     13  C   UNL     1       2.030  14.989  20.745  0.00  0.00    +0.000 C 
ATOM     14  C   UNL     1       3.217  14.056  20.546  0.00  0.00    +0.000 C 
ATOM     15  N   UNL     1      -0.557  13.752  18.411  0.00  0.00    +0.000 NA
ATOM     16  C   UNL     1      -1.162  12.616  18.041  0.00  0.00    +0.000 A 
ATOM     17  C   UNL     1      -0.978  11.399  18.662  0.00  0.00    +0.000 A 
ATOM     18 CL   UNL     1      -1.794  10.045  17.983  0.00  0.00    +0.000 Cl
ENDBRANCH   4   6
BRANCH   1  19
ATOM     19  O   UNL     1       0.933   7.101  21.169  0.00  0.00    +0.000 OA
BRANCH  19  23
ATOM     20  C   UNL     1       3.239   4.366  18.961  0.00  0.00    +0.000 A 
ATOM     21  C   UNL     1       3.289   5.746  18.712  0.00  0.00    +0.000 A 
ATOM     22  C   UNL     1       2.497   6.636  19.456  0.00  0.00    +0.000 A 
ATOM     23  C   UNL     1       1.638   6.162  20.453  0.00  0.00    +0.000 A 
ATOM     24  C   UNL     1       1.589   4.794  20.700  0.00  0.00    +0.000 A 
ATOM     25  C   UNL     1       2.375   3.907  19.968  0.00  0.00    +0.000 A 
BRANCH  20  26
ATOM     26  C   UNL     1       4.118   3.392  18.192  0.00  0.00    +0.000 C 
ATOM     27  C   UNL     1       3.834   1.943  18.610  0.00  0.00    +0.000 C 
BRANCH  26  31
ATOM     28  C   UNL     1       7.694   4.625  17.893  0.00  0.00    +0.000 C 
ATOM     29  C   UNL     1       6.264   4.411  17.471  0.00  0.00    +0.000 C 
ATOM     30  O   UNL     1       5.826   4.807  16.394  0.00  0.00    +0.000 OA
ATOM     31  N   UNL     1       5.517   3.735  18.401  0.00  0.00    +0.000 N 
ATOM     32  H   UNL     1       5.956   3.455  19.268  0.00  0.00    +0.000 HD
ENDBRANCH  26  31
ENDBRANCH  20  26
ENDBRANCH  19  23
ENDBRANCH   1  19
TORSDOF 5
ENDMDL
MODEL 6
REMARK VINA RESULT:      -7.5      2.040      2.841
REMARK  Name = 
REMARK  8 active torsions:
REMARK  status: ('A' for Active; 'I' for Inactive)
REMARK    1  A    between atoms: C_1  and  C_2
REMARK    2  A    between atoms: N_4  and  C_5
REMARK    3  A    between atoms: C_5  and  C_6
REMARK    4  A    between atoms: C_5  and  C_7
REMARK    5  A    between atoms: C_10  and  O_11
REMARK    6  A    between atoms: O_11  and  C_12
REMARK    7  A    between atoms: N_15  and  C_16
REMARK    8  A    between atoms: C_23  and  C_24
REMARK                            x       y       z     vdW  Elec       q    Type
REMARK                         _______ _______ _______ _____ _____    ______ ____
ROOT
ATOM      1  C   UNL     1       0.579  10.354  18.447  0.00  0.00    +0.000 C 
ATOM      2  C   UNL     1       0.593  11.809  18.909  0.00  0.00    +0.000 C 
ATOM      3  C   UNL     1      -0.818  12.095  19.410  0.00  0.00    +0.000 C 
ATOM      4  N   UNL     1      -1.674  11.164  18.696  0.00  0.00    +0.000 N 
ATOM      5  C   UNL     1      -0.900  10.089  18.081  0.00  0.00    +0.000 C 
ENDROOT
BRANCH   4   6
ATOM      6  C   UNL     1      -2.986  11.404  18.326  0.00  0.00    +0.000 A 
ATOM      7  N   UNL     1      -3.836  11.832  19.304  0.00  0.00    +0.000 NA
ATOM      8  C   UNL     1      -5.132  12.089  19.023  0.00  0.00    +0.000 A 
ATOM      9  N   UNL     1      -5.976  12.590  19.971  0.00  0.00    +0.000 N 
ATOM     10  C   UNL     1      -7.387  12.782  19.681  0.00  0.00    +0.000 C 
ATOM     11  C   UNL     1      -7.791  13.841  20.695  0.00  0.00    +0.000 C 
ATOM     12  C   UNL     1      -6.978  13.458  21.925  0.00  0.00    +0.000 C 
ATOM     13  C   UNL     1      -5.651  12.892  21.361  0.00  0.00    +0.000 C 
ATOM     14  C   UNL     1      -4.535  13.919  21.493  0.00  0.00    +0.000 C 
ATOM     15  N   UNL     1      -5.639  11.924  17.792  0.00  0.00    +0.000 NA
ATOM     16  C   UNL     1      -4.797  11.538  16.826  0.00  0.00    +0.000 A 
ATOM     17  C   UNL     1      -3.461  11.260  17.023  0.00  0.00    +0.000 A 
ATOM     18 CL   UNL     1      -2.535  10.850  15.632  0.00  0.00    +0.000 Cl
ENDBRANCH   4   6
BRANCH   1  19
ATOM     19  O   UNL     1       1.074   9.523  19.512  0.00  0.00    +0.000 OA
BRANCH  19  23
ATOM     20  C   UNL     1       3.464   6.327  18.189  0.00  0.00    +0.000 A 
ATOM     21  C   UNL     1       3.277   7.481  17.414  0.00  0.00    +0.000 A 
ATOM     22  C   UNL     1       2.462   8.528  17.875  0.00  0.00    +0.000 A 
ATOM     23  C   UNL     1       1.815   8.435  19.112  0.00  0.00    +0.000 A 
ATOM     24  C   UNL     1       2.000   7.291  19.881  0.00  0.00    +0.000 A 
ATOM     25  C   UNL     1       2.811   6.252  19.430  0.00  0.00    +0.000 A 
BRANCH  20  26
ATOM     26  C   UNL     1       4.374   5.201  17.724  0.00  0.00    +0.000 C 
ATOM     27  C   UNL     1       4.226   3.965  18.620  0.00  0.00    +0.000 C 
BRANCH  26  31
ATOM     28  C   UNL     1       7.933   6.224  18.548  0.00  0.00    +0.000 C 
ATOM     29  C   UNL     1       6.561   5.659  18.806  0.00  0.00    +0.000 C 
ATOM     30  O   UNL     1       6.215   5.236  19.906  0.00  0.00    +0.000 OA
ATOM     31  N   UNL     1       5.751   5.671  17.700  0.00  0.00    +0.000 N 
ATOM     32  H   UNL     1       6.121   6.029  16.829  0.00  0.00    +0.000 HD
ENDBRANCH  26  31
ENDBRANCH  20  26
ENDBRANCH  19  23
ENDBRANCH   1  19
TORSDOF 5
ENDMDL
MODEL 7
REMARK VINA RESULT:      -7.5      2.590      3.188
REMARK  Name = 
REMARK  8 active torsions:
REMARK  status: ('A' for Active; 'I' for Inactive)
REMARK    1  A    between atoms: C_1  and  C_2
REMARK    2  A    between atoms: N_4  and  C_5
REMARK    3  A    between atoms: C_5  and  C_6
REMARK    4  A    between atoms: C_5  and  C_7
REMARK    5  A    between atoms: C_10  and  O_11
REMARK    6  A    between atoms: O_11  and  C_12
REMARK    7  A    between atoms: N_15  and  C_16
REMARK    8  A    between atoms: C_23  and  C_24
REMARK                            x       y       z     vdW  Elec       q    Type
REMARK                         _______ _______ _______ _____ _____    ______ ____
ROOT
ATOM      1  C   UNL     1       0.451  11.292  19.551  0.00  0.00    +0.000 C 
ATOM      2  C   UNL     1       1.402  12.251  20.265  0.00  0.00    +0.000 C 
ATOM      3  C   UNL     1       0.539  13.024  21.255  0.00  0.00    +0.000 C 
ATOM      4  N   UNL     1      -0.803  12.997  20.698  0.00  0.00    +0.000 N 
ATOM      5  C   UNL     1      -0.929  11.981  19.657  0.00  0.00    +0.000 C 
ENDROOT
BRANCH   4   6
ATOM      6  C   UNL     1      -1.751  13.994  20.845  0.00  0.00    +0.000 A 
ATOM      7  N   UNL     1      -2.884  13.673  21.536  0.00  0.00    +0.000 NA
ATOM      8  C   UNL     1      -3.856  14.591  21.723  0.00  0.00    +0.000 A 
ATOM      9  N   UNL     1      -4.960  14.310  22.476  0.00  0.00    +0.000 N 
ATOM     10  C   UNL     1      -6.039  15.276  22.601  0.00  0.00    +0.000 C 
ATOM     11  C   UNL     1      -6.706  14.858  23.902  0.00  0.00    +0.000 C 
ATOM     12  C   UNL     1      -6.608  13.339  23.859  0.00  0.00    +0.000 C 
ATOM     13  C   UNL     1      -5.266  13.049  23.143  0.00  0.00    +0.000 C 
ATOM     14  C   UNL     1      -4.201  12.644  24.152  0.00  0.00    +0.000 C 
ATOM     15  N   UNL     1      -3.763  15.837  21.235  0.00  0.00    +0.000 NA
ATOM     16  C   UNL     1      -2.637  16.161  20.587  0.00  0.00    +0.000 A 
ATOM     17  C   UNL     1      -1.594  15.290  20.356  0.00  0.00    +0.000 A 
ATOM     18 CL   UNL     1      -0.203  15.929  19.569  0.00  0.00    +0.000 Cl
ENDBRANCH   4   6
BRANCH   1  19
ATOM     19  O   UNL     1       0.513  10.009  20.200  0.00  0.00    +0.000 OA
BRANCH  19  23
ATOM     20  C   UNL     1       2.822   6.999  18.386  0.00  0.00    +0.000 A 
ATOM     21  C   UNL     1       2.399   6.904  19.720  0.00  0.00    +0.000 A 
ATOM     22  C   UNL     1       1.639   7.931  20.305  0.00  0.00    +0.000 A 
ATOM     23  C   UNL     1       1.299   9.071  19.570  0.00  0.00    +0.000 A 
ATOM     24  C   UNL     1       1.719   9.166  18.247  0.00  0.00    +0.000 A 
ATOM     25  C   UNL     1       2.468   8.149  17.662  0.00  0.00    +0.000 A 
BRANCH  20  26
ATOM     26  C   UNL     1       3.611   5.880  17.725  0.00  0.00    +0.000 C 
ATOM     27  C   UNL     1       3.216   4.512  18.297  0.00  0.00    +0.000 C 
BRANCH  26  31
ATOM     28  C   UNL     1       7.281   6.727  17.273  0.00  0.00    +0.000 C 
ATOM     29  C   UNL     1       5.838   6.572  16.873  0.00  0.00    +0.000 C 
ATOM     30  O   UNL     1       5.435   6.821  15.740  0.00  0.00    +0.000 OA
ATOM     31  N   UNL     1       5.035   6.128  17.892  0.00  0.00    +0.000 N 
ATOM     32  H   UNL     1       5.449   5.958  18.799  0.00  0.00    +0.000 HD
ENDBRANCH  26  31
ENDBRANCH  20  26
ENDBRANCH  19  23
ENDBRANCH   1  19
TORSDOF 5
ENDMDL
MODEL 8
REMARK VINA RESULT:      -7.5      3.149     10.300
REMARK  Name = 
REMARK  8 active torsions:
REMARK  status: ('A' for Active; 'I' for Inactive)
REMARK    1  A    between atoms: C_1  and  C_2
REMARK    2  A    between atoms: N_4  and  C_5
REMARK    3  A    between atoms: C_5  and  C_6
REMARK    4  A    between atoms: C_5  and  C_7
REMARK    5  A    between atoms: C_10  and  O_11
REMARK    6  A    between atoms: O_11  and  C_12
REMARK    7  A    between atoms: N_15  and  C_16
REMARK    8  A    between atoms: C_23  and  C_24
REMARK                            x       y       z     vdW  Elec       q    Type
REMARK                         _______ _______ _______ _____ _____    ______ ____
ROOT
ATOM      1  C   UNL     1      -0.896  10.114  22.701  0.00  0.00    +0.000 C 
ATOM      2  C   UNL     1       0.214   9.362  23.432  0.00  0.00    +0.000 C 
ATOM      3  C   UNL     1       1.416   9.390  22.494  0.00  0.00    +0.000 C 
ATOM      4  N   UNL     1       0.858   9.528  21.160  0.00  0.00    +0.000 N 
ATOM      5  C   UNL     1      -0.537   9.956  21.205  0.00  0.00    +0.000 C 
ENDROOT
BRANCH   4   6
ATOM      6  C   UNL     1       1.411   9.009  20.002  0.00  0.00    +0.000 A 
ATOM      7  N   UNL     1       1.894   7.734  20.066  0.00  0.00    +0.000 NA
ATOM      8  C   UNL     1       2.448   7.155  18.979  0.00  0.00    +0.000 A 
ATOM      9  N   UNL     1       2.867   5.856  19.004  0.00  0.00    +0.000 N 
ATOM     10  C   UNL     1       3.538   5.270  17.856  0.00  0.00    +0.000 C 
ATOM     11  C   UNL     1       3.289   3.782  18.052  0.00  0.00    +0.000 C 
ATOM     12  C   UNL     1       3.384   3.621  19.564  0.00  0.00    +0.000 C 
ATOM     13  C   UNL     1       2.811   4.941  20.139  0.00  0.00    +0.000 C 
ATOM     14  C   UNL     1       1.394   4.726  20.653  0.00  0.00    +0.000 C 
ATOM     15  N   UNL     1       2.560   7.800  17.808  0.00  0.00    +0.000 NA
ATOM     16  C   UNL     1       2.054   9.038  17.737  0.00  0.00    +0.000 A 
ATOM     17  C   UNL     1       1.469   9.701  18.794  0.00  0.00    +0.000 A 
ATOM     18 CL   UNL     1       0.814  11.260  18.471  0.00  0.00    +0.000 Cl
ENDBRANCH   4   6
BRANCH   1  19
ATOM     19  O   UNL     1      -0.908  11.480  23.156  0.00  0.00    +0.000 OA
BRANCH  19  23
ATOM     20  C   UNL     1      -4.526  13.485  22.402  0.00  0.00    +0.000 A 
ATOM     21  C   UNL     1      -3.461  13.513  21.490  0.00  0.00    +0.000 A 
ATOM     22  C   UNL     1      -2.258  12.845  21.774  0.00  0.00    +0.000 A 
ATOM     23  C   UNL     1      -2.097  12.147  22.975  0.00  0.00    +0.000 A 
ATOM     24  C   UNL     1      -3.153  12.119  23.880  0.00  0.00    +0.000 A 
ATOM     25  C   UNL     1      -4.349  12.775  23.602  0.00  0.00    +0.000 A 
BRANCH  20  26
ATOM     26  C   UNL     1      -5.849  14.168  22.095  0.00  0.00    +0.000 C 
ATOM     27  C   UNL     1      -6.833  14.016  23.262  0.00  0.00    +0.000 C 
BRANCH  26  31
ATOM     28  C   UNL     1      -7.359  11.979  19.389  0.00  0.00    +0.000 C 
ATOM     29  C   UNL     1      -6.863  12.333  20.766  0.00  0.00    +0.000 C 
ATOM     30  O   UNL     1      -6.876  11.533  21.699  0.00  0.00    +0.000 OA
ATOM     31  N   UNL     1      -6.402  13.620  20.866  0.00  0.00    +0.000 N 
ATOM     32  H   UNL     1      -6.439  14.215  20.049  0.00  0.00    +0.000 HD
ENDBRANCH  26  31
ENDBRANCH  20  26
ENDBRANCH  19  23
ENDBRANCH   1  19
TORSDOF 5
ENDMDL
MODEL 9
REMARK VINA RESULT:      -7.5      4.155      6.293
REMARK  Name = 
REMARK  8 active torsions:
REMARK  status: ('A' for Active; 'I' for Inactive)
REMARK    1  A    between atoms: C_1  and  C_2
REMARK    2  A    between atoms: N_4  and  C_5
REMARK    3  A    between atoms: C_5  and  C_6
REMARK    4  A    between atoms: C_5  and  C_7
REMARK    5  A    between atoms: C_10  and  O_11
REMARK    6  A    between atoms: O_11  and  C_12
REMARK    7  A    between atoms: N_15  and  C_16
REMARK    8  A    between atoms: C_23  and  C_24
REMARK                            x       y       z     vdW  Elec       q    Type
REMARK                         _______ _______ _______ _____ _____    ______ ____
ROOT
ATOM      1  C   UNL     1       3.292   4.290  20.712  0.00  0.00    +0.000 C 
ATOM      2  C   UNL     1       1.837   4.308  21.176  0.00  0.00    +0.000 C 
ATOM      3  C   UNL     1       1.111   5.245  20.217  0.00  0.00    +0.000 C 
ATOM      4  N   UNL     1       2.132   6.153  19.722  0.00  0.00    +0.000 N 
ATOM      5  C   UNL     1       3.474   5.646  19.992  0.00  0.00    +0.000 C 
ENDROOT
BRANCH   4   6
ATOM      6  C   UNL     1       1.923   7.472  19.360  0.00  0.00    +0.000 A 
ATOM      7  N   UNL     1       1.152   8.228  20.195  0.00  0.00    +0.000 NA
ATOM      8  C   UNL     1       0.903   9.525  19.912  0.00  0.00    +0.000 A 
ATOM      9  N   UNL     1       0.198  10.315  20.775  0.00  0.00    +0.000 N 
ATOM     10  C   UNL     1      -0.136  11.684  20.421  0.00  0.00    +0.000 C 
ATOM     11  C   UNL     1      -0.348  12.333  21.780  0.00  0.00    +0.000 C 
ATOM     12  C   UNL     1      -1.016  11.225  22.583  0.00  0.00    +0.000 C 
ATOM     13  C   UNL     1      -0.384   9.915  22.051  0.00  0.00    +0.000 C 
ATOM     14  C   UNL     1       0.655   9.388  23.032  0.00  0.00    +0.000 C 
ATOM     15  N   UNL     1       1.381  10.117  18.808  0.00  0.00    +0.000 NA
ATOM     16  C   UNL     1       2.166   9.385  18.007  0.00  0.00    +0.000 A 
ATOM     17  C   UNL     1       2.475   8.059  18.223  0.00  0.00    +0.000 A 
ATOM     18 CL   UNL     1       3.563   7.321  17.112  0.00  0.00    +0.000 Cl
ENDBRANCH   4   6
BRANCH   1  19
ATOM     19  O   UNL     1       3.494   3.147  19.861  0.00  0.00    +0.000 OA
BRANCH  19  23
ATOM     20  C   UNL     1       5.457   3.942  16.229  0.00  0.00    +0.000 A 
ATOM     21  C   UNL     1       4.184   3.355  16.269  0.00  0.00    +0.000 A 
ATOM     22  C   UNL     1       3.556   3.088  17.497  0.00  0.00    +0.000 A 
ATOM     23  C   UNL     1       4.194   3.394  18.704  0.00  0.00    +0.000 A 
ATOM     24  C   UNL     1       5.457   3.976  18.665  0.00  0.00    +0.000 A 
ATOM     25  C   UNL     1       6.082   4.247  17.450  0.00  0.00    +0.000 A 
BRANCH  20  26
ATOM     26  C   UNL     1       6.134   4.274  14.909  0.00  0.00    +0.000 C 
ATOM     27  C   UNL     1       6.603   5.734  14.881  0.00  0.00    +0.000 C 
BRANCH  26  31
ATOM     28  C   UNL     1       4.519   3.361  11.600  0.00  0.00    +0.000 C 
ATOM     29  C   UNL     1       5.641   3.552  12.586  0.00  0.00    +0.000 C 
ATOM     30  O   UNL     1       6.816   3.331  12.302  0.00  0.00    +0.000 OA
ATOM     31  N   UNL     1       5.219   3.994  13.813  0.00  0.00    +0.000 N 
ATOM     32  H   UNL     1       4.230   4.139  13.964  0.00  0.00    +0.000 HD
ENDBRANCH  26  31
ENDBRANCH  20  26
ENDBRANCH  19  23
ENDBRANCH   1  19
TORSDOF 5
ENDMDL
