MODEL 1
REMARK VINA RESULT:     -10.0      0.000      0.000
REMARK  Name = 
REMARK  4 active torsions:
REMARK  status: ('A' for Active; 'I' for Inactive)
REMARK    1  A    between atoms: C_1  and  C_2
REMARK    2  A    between atoms: C_2  and  C_4
REMARK    3  A    between atoms: C_19  and  C_20
REMARK    4  A    between atoms: C_19  and  C_21
REMARK                            x       y       z     vdW  Elec       q    Type
REMARK                         _______ _______ _______ _____ _____    ______ ____
ROOT
ATOM      1  C   UNL     1       5.935   3.507  12.552  0.00  0.00    +0.000 A 
ATOM      2  C   UNL     1       7.049   4.271  12.183  0.00  0.00    +0.000 A 
ATOM      3  C   UNL     1       7.719   5.088  13.112  0.00  0.00    +0.000 A 
ATOM      4  C   UNL     1       7.223   5.097  14.416  0.00  0.00    +0.000 A 
ATOM      5  O   UNL     1       7.705   5.833  15.458  0.00  0.00    +0.000 OA
ATOM      6  C   UNL     1       6.921   5.556  16.542  0.00  0.00    +0.000 A 
ATOM      7  C   UNL     1       7.046   6.119  17.809  0.00  0.00    +0.000 A 
ATOM      8  C   UNL     1       6.103   5.716  18.765  0.00  0.00    +0.000 A 
ATOM      9  C   UNL     1       5.108   4.781  18.459  0.00  0.00    +0.000 A 
ATOM     10  C   UNL     1       5.042   4.171  17.193  0.00  0.00    +0.000 A 
ATOM     11  C   UNL     1       5.952   4.617  16.208  0.00  0.00    +0.000 A 
ATOM     12  C   UNL     1       6.134   4.342  14.824  0.00  0.00    +0.000 A 
ATOM     13  C   UNL     1       5.473   3.540  13.877  0.00  0.00    +0.000 A 
ATOM     14  C   UNL     1       4.009   3.125  16.891  0.00  0.00    +0.000 C 
ATOM     15  C   UNL     1       3.316   2.658  18.152  0.00  0.00    +0.000 C 
ATOM     16  C   UNL     1       2.988   3.855  19.049  0.00  0.00    +0.000 C 
ATOM     17  C   UNL     1       2.051   4.879  18.382  0.00  0.00    +0.000 C 
ATOM     18  C   UNL     1       2.303   3.327  20.315  0.00  0.00    +0.000 C 
ATOM     19  O   UNL     1       4.206   4.512  19.464  0.00  0.00    +0.000 OA
ENDROOT
BRANCH   1  21
ATOM     20  C   UNL     1       3.889   3.145  11.016  0.00  0.00    +0.000 C 
ATOM     21  C   UNL     1       5.178   2.637  11.604  0.00  0.00    +0.000 C 
ATOM     22  O   UNL     1       5.607   1.520  11.312  0.00  0.00    +0.000 OA
ENDBRANCH   1  21
TORSDOF 1
ENDMDL
MODEL 2
REMARK VINA RESULT:      -7.0      3.401      7.459
REMARK  Name = 
REMARK  4 active torsions:
REMARK  status: ('A' for Active; 'I' for Inactive)
REMARK    1  A    between atoms: C_1  and  C_2
REMARK    2  A    between atoms: C_2  and  C_4
REMARK    3  A    between atoms: C_19  and  C_20
REMARK    4  A    between atoms: C_19  and  C_21
REMARK                            x       y       z     vdW  Elec       q    Type
REMARK                         _______ _______ _______ _____ _____    ______ ____
ROOT
ATOM      1  C   UNL     1       1.258   9.266  19.362  0.00  0.00    +0.000 A 
ATOM      2  C   UNL     1       0.495   8.865  20.466  0.00  0.00    +0.000 A 
ATOM      3  C   UNL     1       0.672   7.601  21.060  0.00  0.00    +0.000 A 
ATOM      4  C   UNL     1       1.643   6.772  20.500  0.00  0.00    +0.000 A 
ATOM      5  O   UNL     1       1.955   5.507  20.904  0.00  0.00    +0.000 OA
ATOM      6  C   UNL     1       2.944   5.054  20.076  0.00  0.00    +0.000 A 
ATOM      7  C   UNL     1       3.533   3.794  20.119  0.00  0.00    +0.000 A 
ATOM      8  C   UNL     1       4.505   3.529  19.144  0.00  0.00    +0.000 A 
ATOM      9  C   UNL     1       4.871   4.492  18.198  0.00  0.00    +0.000 A 
ATOM     10  C   UNL     1       4.314   5.784  18.217  0.00  0.00    +0.000 A 
ATOM     11  C   UNL     1       3.292   6.037  19.158  0.00  0.00    +0.000 A 
ATOM     12  C   UNL     1       2.430   7.139  19.419  0.00  0.00    +0.000 A 
ATOM     13  C   UNL     1       2.230   8.402  18.834  0.00  0.00    +0.000 A 
ATOM     14  C   UNL     1       4.756   6.831  17.236  0.00  0.00    +0.000 C 
ATOM     15  C   UNL     1       6.004   6.400  16.497  0.00  0.00    +0.000 C 
ATOM     16  C   UNL     1       5.892   4.929  16.085  0.00  0.00    +0.000 C 
ATOM     17  C   UNL     1       4.703   4.648  15.147  0.00  0.00    +0.000 C 
ATOM     18  C   UNL     1       7.184   4.541  15.356  0.00  0.00    +0.000 C 
ATOM     19  O   UNL     1       5.793   4.091  17.257  0.00  0.00    +0.000 OA
ENDROOT
BRANCH   1  21
ATOM     20  C   UNL     1      -0.265  11.216  18.618  0.00  0.00    +0.000 C 
ATOM     21  C   UNL     1       1.100  10.586  18.683  0.00  0.00    +0.000 C 
ATOM     22  O   UNL     1       2.077  11.145  18.183  0.00  0.00    +0.000 OA
ENDBRANCH   1  21
TORSDOF 1
ENDMDL
