MODEL 1
REMARK VINA RESULT:      -6.4      0.000      0.000
REMARK  Name = 
REMARK  7 active torsions:
REMARK  status: ('A' for Active; 'I' for Inactive)
REMARK    1  A    between atoms: N_1  and  C_2
REMARK    2  A    between atoms: C_2  and  C_3
REMARK    3  A    between atoms: C_3  and  O_4
REMARK    4  A    between atoms: C_3  and  C_5
REMARK    5  A    between atoms: C_5  and  O_6
REMARK    6  A    between atoms: O_6  and  C_7
REMARK    7  A    between atoms: C_10  and  O_11
REMARK                            x       y       z     vdW  Elec       q    Type
REMARK                         _______ _______ _______ _____ _____    ______ ____
ROOT
ATOM      1  C   UNL     1       3.524   5.533  17.708  0.00  0.00    +0.000 A 
ATOM      2  C   UNL     1       3.378   6.922  17.799  0.00  0.00    +0.000 A 
ATOM      3  C   UNL     1       2.724   7.499  18.886  0.00  0.00    +0.000 A 
ATOM      4  C   UNL     1       2.200   6.686  19.882  0.00  0.00    +0.000 A 
ATOM      5  C   UNL     1       2.316   5.291  19.819  0.00  0.00    +0.000 A 
ATOM      6  C   UNL     1       3.020   4.706  18.739  0.00  0.00    +0.000 A 
ATOM      7  C   UNL     1       3.177   3.202  18.649  0.00  0.00    +0.000 C 
ATOM      8  C   UNL     1       2.904   2.474  19.962  0.00  0.00    +0.000 C 
ATOM      9  C   UNL     1       1.609   2.973  20.582  0.00  0.00    +0.000 C 
ATOM     10  C   UNL     1       1.733   4.452  20.933  0.00  0.00    +0.000 C 
ENDROOT
BRANCH   4  11
ATOM     11  O   UNL     1       1.558   7.249  20.950  0.00  0.00    +0.000 OA
ATOM     12  H   UNL     1       1.544   6.610  21.680  0.00  0.00    +0.000 HD
ENDBRANCH   4  11
BRANCH   1  13
ATOM     13  O   UNL     1       4.147   4.896  16.661  0.00  0.00    +0.000 OA
BRANCH  13  14
ATOM     14  C   UNL     1       5.326   5.524  16.138  0.00  0.00    +0.000 C 
BRANCH  14  15
ATOM     15  C   UNL     1       6.496   4.532  16.111  0.00  0.00    +0.000 C 
BRANCH  15  16
ATOM     16  O   UNL     1       5.988   3.202  15.960  0.00  0.00    +0.000 OA
ATOM     17  H   UNL     1       6.717   2.663  15.606  0.00  0.00    +0.000 HD
ENDBRANCH  15  16
BRANCH  15  18
ATOM     18  C   UNL     1       7.376   4.658  17.372  0.00  0.00    +0.000 C 
BRANCH  18  19
ATOM     19  N   UNL     1       6.684   4.205  18.581  0.00  0.00    +0.000 NA
ATOM     20  H   UNL     1       7.247   4.421  19.402  0.00  0.00    +0.000 HD
ATOM     21  H   UNL     1       6.567   3.192  18.559  0.00  0.00    +0.000 HD
ENDBRANCH  18  19
ENDBRANCH  15  18
ENDBRANCH  14  15
ENDBRANCH  13  14
ENDBRANCH   1  13
TORSDOF 7
ENDMDL
MODEL 2
REMARK VINA RESULT:      -6.4      2.157      3.356
REMARK  Name = 
REMARK  7 active torsions:
REMARK  status: ('A' for Active; 'I' for Inactive)
REMARK    1  A    between atoms: N_1  and  C_2
REMARK    2  A    between atoms: C_2  and  C_3
REMARK    3  A    between atoms: C_3  and  O_4
REMARK    4  A    between atoms: C_3  and  C_5
REMARK    5  A    between atoms: C_5  and  O_6
REMARK    6  A    between atoms: O_6  and  C_7
REMARK    7  A    between atoms: C_10  and  O_11
REMARK                            x       y       z     vdW  Elec       q    Type
REMARK                         _______ _______ _______ _____ _____    ______ ____
ROOT
ATOM      1  C   UNL     1       4.250   4.256  17.745  0.00  0.00    +0.000 A 
ATOM      2  C   UNL     1       4.105   3.005  17.135  0.00  0.00    +0.000 A 
ATOM      3  C   UNL     1       3.025   2.182  17.446  0.00  0.00    +0.000 A 
ATOM      4  C   UNL     1       2.090   2.603  18.383  0.00  0.00    +0.000 A 
ATOM      5  C   UNL     1       2.209   3.843  19.024  0.00  0.00    +0.000 A 
ATOM      6  C   UNL     1       3.281   4.698  18.676  0.00  0.00    +0.000 A 
ATOM      7  C   UNL     1       3.430   6.053  19.339  0.00  0.00    +0.000 C 
ATOM      8  C   UNL     1       2.164   6.539  20.038  0.00  0.00    +0.000 C 
ATOM      9  C   UNL     1       1.582   5.433  20.904  0.00  0.00    +0.000 C 
ATOM     10  C   UNL     1       1.161   4.254  20.033  0.00  0.00    +0.000 C 
ENDROOT
BRANCH   4  11
ATOM     11  O   UNL     1       1.029   1.797  18.691  0.00  0.00    +0.000 OA
ATOM     12  H   UNL     1       1.119   0.960  18.208  0.00  0.00    +0.000 HD
ENDBRANCH   4  11
BRANCH   1  13
ATOM     13  O   UNL     1       5.295   5.114  17.495  0.00  0.00    +0.000 OA
BRANCH  13  14
ATOM     14  C   UNL     1       6.615   4.559  17.586  0.00  0.00    +0.000 C 
BRANCH  14  15
ATOM     15  C   UNL     1       7.480   5.385  18.548  0.00  0.00    +0.000 C 
BRANCH  15  16
ATOM     16  O   UNL     1       6.925   5.314  19.866  0.00  0.00    +0.000 OA
ATOM     17  H   UNL     1       7.371   5.999  20.393  0.00  0.00    +0.000 HD
ENDBRANCH  15  16
BRANCH  15  18
ATOM     18  C   UNL     1       7.616   6.847  18.074  0.00  0.00    +0.000 C 
BRANCH  18  19
ATOM     19  N   UNL     1       7.564   6.967  16.616  0.00  0.00    +0.000 NA
ATOM     20  H   UNL     1       8.262   7.638  16.299  0.00  0.00    +0.000 HD
ATOM     21  H   UNL     1       6.654   7.326  16.326  0.00  0.00    +0.000 HD
ENDBRANCH  18  19
ENDBRANCH  15  18
ENDBRANCH  14  15
ENDBRANCH  13  14
ENDBRANCH   1  13
TORSDOF 7
ENDMDL
MODEL 3
REMARK VINA RESULT:      -6.3      1.932      2.113
REMARK  Name = 
REMARK  7 active torsions:
REMARK  status: ('A' for Active; 'I' for Inactive)
REMARK    1  A    between atoms: N_1  and  C_2
REMARK    2  A    between atoms: C_2  and  C_3
REMARK    3  A    between atoms: C_3  and  O_4
REMARK    4  A    between atoms: C_3  and  C_5
REMARK    5  A    between atoms: C_5  and  O_6
REMARK    6  A    between atoms: O_6  and  C_7
REMARK    7  A    between atoms: C_10  and  O_11
REMARK                            x       y       z     vdW  Elec       q    Type
REMARK                         _______ _______ _______ _____ _____    ______ ____
ROOT
ATOM      1  C   UNL     1       3.976   4.915  17.269  0.00  0.00    +0.000 A 
ATOM      2  C   UNL     1       4.211   6.260  17.573  0.00  0.00    +0.000 A 
ATOM      3  C   UNL     1       3.526   6.886  18.612  0.00  0.00    +0.000 A 
ATOM      4  C   UNL     1       2.589   6.170  19.345  0.00  0.00    +0.000 A 
ATOM      5  C   UNL     1       2.317   4.825  19.062  0.00  0.00    +0.000 A 
ATOM      6  C   UNL     1       3.045   4.176  18.036  0.00  0.00    +0.000 A 
ATOM      7  C   UNL     1       2.787   2.717  17.716  0.00  0.00    +0.000 C 
ATOM      8  C   UNL     1       2.039   1.967  18.815  0.00  0.00    +0.000 C 
ATOM      9  C   UNL     1       0.834   2.772  19.276  0.00  0.00    +0.000 C 
ATOM     10  C   UNL     1       1.291   4.090  19.894  0.00  0.00    +0.000 C 
ENDROOT
BRANCH   4  11
ATOM     11  O   UNL     1       1.915   6.781  20.366  0.00  0.00    +0.000 OA
ATOM     12  H   UNL     1       2.401   7.579  20.629  0.00  0.00    +0.000 HD
ENDBRANCH   4  11
BRANCH   1  13
ATOM     13  O   UNL     1       4.606   4.237  16.252  0.00  0.00    +0.000 OA
BRANCH  13  14
ATOM     14  C   UNL     1       6.020   4.041  16.393  0.00  0.00    +0.000 C 
BRANCH  14  15
ATOM     15  C   UNL     1       6.729   4.250  15.048  0.00  0.00    +0.000 C 
BRANCH  15  16
ATOM     16  O   UNL     1       7.385   5.523  15.049  0.00  0.00    +0.000 OA
ATOM     17  H   UNL     1       7.882   5.578  15.884  0.00  0.00    +0.000 HD
ENDBRANCH  15  16
BRANCH  15  18
ATOM     18  C   UNL     1       5.747   4.125  13.864  0.00  0.00    +0.000 C 
BRANCH  18  19
ATOM     19  N   UNL     1       6.242   3.222  12.823  0.00  0.00    +0.000 NA
ATOM     20  H   UNL     1       6.720   3.759  12.100  0.00  0.00    +0.000 HD
ATOM     21  H   UNL     1       5.461   2.746  12.372  0.00  0.00    +0.000 HD
ENDBRANCH  18  19
ENDBRANCH  15  18
ENDBRANCH  14  15
ENDBRANCH  13  14
ENDBRANCH   1  13
TORSDOF 7
ENDMDL
MODEL 4
REMARK VINA RESULT:      -6.3      1.210      1.233
REMARK  Name = 
REMARK  7 active torsions:
REMARK  status: ('A' for Active; 'I' for Inactive)
REMARK    1  A    between atoms: N_1  and  C_2
REMARK    2  A    between atoms: C_2  and  C_3
REMARK    3  A    between atoms: C_3  and  O_4
REMARK    4  A    between atoms: C_3  and  C_5
REMARK    5  A    between atoms: C_5  and  O_6
REMARK    6  A    between atoms: O_6  and  C_7
REMARK    7  A    between atoms: C_10  and  O_11
REMARK                            x       y       z     vdW  Elec       q    Type
REMARK                         _______ _______ _______ _____ _____    ______ ____
ROOT
ATOM      1  C   UNL     1       3.810   5.301  17.495  0.00  0.00    +0.000 A 
ATOM      2  C   UNL     1       3.864   6.605  18.000  0.00  0.00    +0.000 A 
ATOM      3  C   UNL     1       3.064   6.985  19.074  0.00  0.00    +0.000 A 
ATOM      4  C   UNL     1       2.193   6.065  19.641  0.00  0.00    +0.000 A 
ATOM      5  C   UNL     1       2.102   4.754  19.155  0.00  0.00    +0.000 A 
ATOM      6  C   UNL     1       2.947   4.353  18.092  0.00  0.00    +0.000 A 
ATOM      7  C   UNL     1       2.885   2.939  17.553  0.00  0.00    +0.000 C 
ATOM      8  C   UNL     1       2.190   1.952  18.488  0.00  0.00    +0.000 C 
ATOM      9  C   UNL     1       0.877   2.534  18.986  0.00  0.00    +0.000 C 
ATOM     10  C   UNL     1       1.141   3.789  19.811  0.00  0.00    +0.000 C 
ENDROOT
BRANCH   4  11
ATOM     11  O   UNL     1       1.406   6.435  20.697  0.00  0.00    +0.000 OA
ATOM     12  H   UNL     1       1.809   7.202  21.134  0.00  0.00    +0.000 HD
ENDBRANCH   4  11
BRANCH   1  13
ATOM     13  O   UNL     1       4.562   4.860  16.431  0.00  0.00    +0.000 OA
BRANCH  13  14
ATOM     14  C   UNL     1       5.353   5.845  15.753  0.00  0.00    +0.000 C 
BRANCH  14  15
ATOM     15  C   UNL     1       6.848   5.581  15.977  0.00  0.00    +0.000 C 
BRANCH  15  16
ATOM     16  O   UNL     1       7.532   5.621  14.719  0.00  0.00    +0.000 OA
ATOM     17  H   UNL     1       8.463   5.406  14.902  0.00  0.00    +0.000 HD
ENDBRANCH  15  16
BRANCH  15  18
ATOM     18  C   UNL     1       7.085   4.239  16.702  0.00  0.00    +0.000 C 
BRANCH  18  19
ATOM     19  N   UNL     1       7.209   4.405  18.152  0.00  0.00    +0.000 NA
ATOM     20  H   UNL     1       8.176   4.618  18.393  0.00  0.00    +0.000 HD
ATOM     21  H   UNL     1       6.969   3.534  18.625  0.00  0.00    +0.000 HD
ENDBRANCH  18  19
ENDBRANCH  15  18
ENDBRANCH  14  15
ENDBRANCH  13  14
ENDBRANCH   1  13
TORSDOF 7
ENDMDL
MODEL 5
REMARK VINA RESULT:      -6.3      1.882      1.986
REMARK  Name = 
REMARK  7 active torsions:
REMARK  status: ('A' for Active; 'I' for Inactive)
REMARK    1  A    between atoms: N_1  and  C_2
REMARK    2  A    between atoms: C_2  and  C_3
REMARK    3  A    between atoms: C_3  and  O_4
REMARK    4  A    between atoms: C_3  and  C_5
REMARK    5  A    between atoms: C_5  and  O_6
REMARK    6  A    between atoms: O_6  and  C_7
REMARK    7  A    between atoms: C_10  and  O_11
REMARK                            x       y       z     vdW  Elec       q    Type
REMARK                         _______ _______ _______ _____ _____    ______ ____
ROOT
ATOM      1  C   UNL     1       3.870   5.050  17.460  0.00  0.00    +0.000 A 
ATOM      2  C   UNL     1       4.086   6.357  17.913  0.00  0.00    +0.000 A 
ATOM      3  C   UNL     1       3.380   6.857  19.004  0.00  0.00    +0.000 A 
ATOM      4  C   UNL     1       2.441   6.056  19.639  0.00  0.00    +0.000 A 
ATOM      5  C   UNL     1       2.188   4.747  19.207  0.00  0.00    +0.000 A 
ATOM      6  C   UNL     1       2.937   4.222  18.127  0.00  0.00    +0.000 A 
ATOM      7  C   UNL     1       2.700   2.806  17.644  0.00  0.00    +0.000 C 
ATOM      8  C   UNL     1       1.946   1.932  18.643  0.00  0.00    +0.000 C 
ATOM      9  C   UNL     1       0.726   2.670  19.172  0.00  0.00    +0.000 C 
ATOM     10  C   UNL     1       1.159   3.915  19.938  0.00  0.00    +0.000 C 
ENDROOT
BRANCH   4  11
ATOM     11  O   UNL     1       1.745   6.544  20.711  0.00  0.00    +0.000 OA
ATOM     12  H   UNL     1       1.951   6.004  21.491  0.00  0.00    +0.000 HD
ENDBRANCH   4  11
BRANCH   1  13
ATOM     13  O   UNL     1       4.522   4.495  16.384  0.00  0.00    +0.000 OA
BRANCH  13  14
ATOM     14  C   UNL     1       5.219   5.402  15.519  0.00  0.00    +0.000 C 
BRANCH  14  15
ATOM     15  C   UNL     1       6.695   4.999  15.393  0.00  0.00    +0.000 C 
BRANCH  15  16
ATOM     16  O   UNL     1       7.514   5.992  16.022  0.00  0.00    +0.000 OA
ATOM     17  H   UNL     1       7.022   6.830  15.972  0.00  0.00    +0.000 HD
ENDBRANCH  15  16
BRANCH  15  18
ATOM     18  C   UNL     1       7.101   4.787  13.920  0.00  0.00    +0.000 C 
BRANCH  18  19
ATOM     19  N   UNL     1       8.211   5.653  13.519  0.00  0.00    +0.000 NA
ATOM     20  H   UNL     1       9.092   5.147  13.605  0.00  0.00    +0.000 HD
ATOM     21  H   UNL     1       8.270   6.459  14.141  0.00  0.00    +0.000 HD
ENDBRANCH  18  19
ENDBRANCH  15  18
ENDBRANCH  14  15
ENDBRANCH  13  14
ENDBRANCH   1  13
TORSDOF 7
ENDMDL
MODEL 6
REMARK VINA RESULT:      -6.2      1.892      3.069
REMARK  Name = 
REMARK  7 active torsions:
REMARK  status: ('A' for Active; 'I' for Inactive)
REMARK    1  A    between atoms: N_1  and  C_2
REMARK    2  A    between atoms: C_2  and  C_3
REMARK    3  A    between atoms: C_3  and  O_4
REMARK    4  A    between atoms: C_3  and  C_5
REMARK    5  A    between atoms: C_5  and  O_6
REMARK    6  A    between atoms: O_6  and  C_7
REMARK    7  A    between atoms: C_10  and  O_11
REMARK                            x       y       z     vdW  Elec       q    Type
REMARK                         _______ _______ _______ _____ _____    ______ ____
ROOT
ATOM      1  C   UNL     1       4.206   4.576  17.686  0.00  0.00    +0.000 A 
ATOM      2  C   UNL     1       4.202   3.326  17.057  0.00  0.00    +0.000 A 
ATOM      3  C   UNL     1       3.247   2.367  17.384  0.00  0.00    +0.000 A 
ATOM      4  C   UNL     1       2.295   2.651  18.355  0.00  0.00    +0.000 A 
ATOM      5  C   UNL     1       2.274   3.886  19.015  0.00  0.00    +0.000 A 
ATOM      6  C   UNL     1       3.217   4.877  18.651  0.00  0.00    +0.000 A 
ATOM      7  C   UNL     1       3.212   6.230  19.334  0.00  0.00    +0.000 C 
ATOM      8  C   UNL     1       1.915   6.540  20.078  0.00  0.00    +0.000 C 
ATOM      9  C   UNL     1       1.507   5.356  20.940  0.00  0.00    +0.000 C 
ATOM     10  C   UNL     1       1.214   4.145  20.060  0.00  0.00    +0.000 C 
ENDROOT
BRANCH   4  11
ATOM     11  O   UNL     1       1.355   1.712  18.678  0.00  0.00    +0.000 OA
ATOM     12  H   UNL     1       0.619   2.149  19.135  0.00  0.00    +0.000 HD
ENDBRANCH   4  11
BRANCH   1  13
ATOM     13  O   UNL     1       5.124   5.564  17.421  0.00  0.00    +0.000 OA
BRANCH  13  14
ATOM     14  C   UNL     1       6.281   5.178  16.665  0.00  0.00    +0.000 C 
BRANCH  14  15
ATOM     15  C   UNL     1       7.546   5.281  17.528  0.00  0.00    +0.000 C 
BRANCH  15  16
ATOM     16  O   UNL     1       7.990   3.966  17.879  0.00  0.00    +0.000 OA
ATOM     17  H   UNL     1       8.769   3.779  17.326  0.00  0.00    +0.000 HD
ENDBRANCH  15  16
BRANCH  15  18
ATOM     18  C   UNL     1       7.307   6.147  18.783  0.00  0.00    +0.000 C 
BRANCH  18  19
ATOM     19  N   UNL     1       7.801   5.506  20.003  0.00  0.00    +0.000 NA
ATOM     20  H   UNL     1       8.491   6.106  20.454  0.00  0.00    +0.000 HD
ATOM     21  H   UNL     1       8.273   4.632  19.773  0.00  0.00    +0.000 HD
ENDBRANCH  18  19
ENDBRANCH  15  18
ENDBRANCH  14  15
ENDBRANCH  13  14
ENDBRANCH   1  13
TORSDOF 7
ENDMDL
MODEL 7
REMARK VINA RESULT:      -6.2      1.432      1.555
REMARK  Name = 
REMARK  7 active torsions:
REMARK  status: ('A' for Active; 'I' for Inactive)
REMARK    1  A    between atoms: N_1  and  C_2
REMARK    2  A    between atoms: C_2  and  C_3
REMARK    3  A    between atoms: C_3  and  O_4
REMARK    4  A    between atoms: C_3  and  C_5
REMARK    5  A    between atoms: C_5  and  O_6
REMARK    6  A    between atoms: O_6  and  C_7
REMARK    7  A    between atoms: C_10  and  O_11
REMARK                            x       y       z     vdW  Elec       q    Type
REMARK                         _______ _______ _______ _____ _____    ______ ____
ROOT
ATOM      1  C   UNL     1       3.686   5.603  17.788  0.00  0.00    +0.000 A 
ATOM      2  C   UNL     1       3.300   6.949  17.807  0.00  0.00    +0.000 A 
ATOM      3  C   UNL     1       2.588   7.469  18.885  0.00  0.00    +0.000 A 
ATOM      4  C   UNL     1       2.246   6.641  19.945  0.00  0.00    +0.000 A 
ATOM      5  C   UNL     1       2.604   5.286  19.956  0.00  0.00    +0.000 A 
ATOM      6  C   UNL     1       3.366   4.767  18.883  0.00  0.00    +0.000 A 
ATOM      7  C   UNL     1       3.783   3.310  18.870  0.00  0.00    +0.000 C 
ATOM      8  C   UNL     1       3.682   2.629  20.233  0.00  0.00    +0.000 C 
ATOM      9  C   UNL     1       2.338   2.932  20.875  0.00  0.00    +0.000 C 
ATOM     10  C   UNL     1       2.210   4.429  21.138  0.00  0.00    +0.000 C 
ENDROOT
BRANCH   4  11
ATOM     11  O   UNL     1       1.547   7.149  21.006  0.00  0.00    +0.000 OA
ATOM     12  H   UNL     1       0.648   7.369  20.712  0.00  0.00    +0.000 HD
ENDBRANCH   4  11
BRANCH   1  13
ATOM     13  O   UNL     1       4.379   5.020  16.753  0.00  0.00    +0.000 OA
BRANCH  13  14
ATOM     14  C   UNL     1       5.700   5.520  16.505  0.00  0.00    +0.000 C 
BRANCH  14  15
ATOM     15  C   UNL     1       6.595   4.413  15.933  0.00  0.00    +0.000 C 
BRANCH  15  16
ATOM     16  O   UNL     1       7.868   4.443  16.590  0.00  0.00    +0.000 OA
ATOM     17  H   UNL     1       7.946   3.609  17.084  0.00  0.00    +0.000 HD
ENDBRANCH  15  16
BRANCH  15  18
ATOM     18  C   UNL     1       6.750   4.542  14.403  0.00  0.00    +0.000 C 
BRANCH  18  19
ATOM     19  N   UNL     1       7.790   5.502  14.028  0.00  0.00    +0.000 NA
ATOM     20  H   UNL     1       7.569   6.418  14.416  0.00  0.00    +0.000 HD
ATOM     21  H   UNL     1       7.820   5.608  13.014  0.00  0.00    +0.000 HD
ENDBRANCH  18  19
ENDBRANCH  15  18
ENDBRANCH  14  15
ENDBRANCH  13  14
ENDBRANCH   1  13
TORSDOF 7
ENDMDL
MODEL 8
REMARK VINA RESULT:      -6.2      1.549      2.917
REMARK  Name = 
REMARK  7 active torsions:
REMARK  status: ('A' for Active; 'I' for Inactive)
REMARK    1  A    between atoms: N_1  and  C_2
REMARK    2  A    between atoms: C_2  and  C_3
REMARK    3  A    between atoms: C_3  and  O_4
REMARK    4  A    between atoms: C_3  and  C_5
REMARK    5  A    between atoms: C_5  and  O_6
REMARK    6  A    between atoms: O_6  and  C_7
REMARK    7  A    between atoms: C_10  and  O_11
REMARK                            x       y       z     vdW  Elec       q    Type
REMARK                         _______ _______ _______ _____ _____    ______ ____
ROOT
ATOM      1  C   UNL     1       3.270   4.172  17.388  0.00  0.00    +0.000 A 
ATOM      2  C   UNL     1       2.845   2.841  17.464  0.00  0.00    +0.000 A 
ATOM      3  C   UNL     1       1.938   2.439  18.442  0.00  0.00    +0.000 A 
ATOM      4  C   UNL     1       1.462   3.367  19.359  0.00  0.00    +0.000 A 
ATOM      5  C   UNL     1       1.874   4.705  19.322  0.00  0.00    +0.000 A 
ATOM      6  C   UNL     1       2.761   5.124  18.301  0.00  0.00    +0.000 A 
ATOM      7  C   UNL     1       3.215   6.568  18.222  0.00  0.00    +0.000 C 
ATOM      8  C   UNL     1       2.343   7.532  19.023  0.00  0.00    +0.000 C 
ATOM      9  C   UNL     1       2.099   6.985  20.420  0.00  0.00    +0.000 C 
ATOM     10  C   UNL     1       1.322   5.675  20.340  0.00  0.00    +0.000 C 
ENDROOT
BRANCH   4  11
ATOM     11  O   UNL     1       0.571   2.975  20.320  0.00  0.00    +0.000 OA
ATOM     12  H   UNL     1      -0.100   2.405  19.912  0.00  0.00    +0.000 HD
ENDBRANCH   4  11
BRANCH   1  13
ATOM     13  O   UNL     1       4.171   4.636  16.457  0.00  0.00    +0.000 OA
BRANCH  13  14
ATOM     14  C   UNL     1       5.441   3.971  16.408  0.00  0.00    +0.000 C 
BRANCH  14  15
ATOM     15  C   UNL     1       6.578   4.963  16.686  0.00  0.00    +0.000 C 
BRANCH  15  16
ATOM     16  O   UNL     1       7.773   4.510  16.039  0.00  0.00    +0.000 OA
ATOM     17  H   UNL     1       8.472   4.510  16.716  0.00  0.00    +0.000 HD
ENDBRANCH  15  16
BRANCH  15  18
ATOM     18  C   UNL     1       6.800   5.160  18.201  0.00  0.00    +0.000 C 
BRANCH  18  19
ATOM     19  N   UNL     1       6.145   4.121  18.999  0.00  0.00    +0.000 NA
ATOM     20  H   UNL     1       5.142   4.298  19.039  0.00  0.00    +0.000 HD
ATOM     21  H   UNL     1       6.490   4.147  19.958  0.00  0.00    +0.000 HD
ENDBRANCH  18  19
ENDBRANCH  15  18
ENDBRANCH  14  15
ENDBRANCH  13  14
ENDBRANCH   1  13
TORSDOF 7
ENDMDL
MODEL 9
REMARK VINA RESULT:      -6.2      1.824      3.122
REMARK  Name = 
REMARK  7 active torsions:
REMARK  status: ('A' for Active; 'I' for Inactive)
REMARK    1  A    between atoms: N_1  and  C_2
REMARK    2  A    between atoms: C_2  and  C_3
REMARK    3  A    between atoms: C_3  and  O_4
REMARK    4  A    between atoms: C_3  and  C_5
REMARK    5  A    between atoms: C_5  and  O_6
REMARK    6  A    between atoms: O_6  and  C_7
REMARK    7  A    between atoms: C_10  and  O_11
REMARK                            x       y       z     vdW  Elec       q    Type
REMARK                         _______ _______ _______ _____ _____    ______ ____
ROOT
ATOM      1  C   UNL     1       3.264   4.029  17.511  0.00  0.00    +0.000 A 
ATOM      2  C   UNL     1       2.870   2.696  17.669  0.00  0.00    +0.000 A 
ATOM      3  C   UNL     1       1.993   2.329  18.687  0.00  0.00    +0.000 A 
ATOM      4  C   UNL     1       1.515   3.295  19.562  0.00  0.00    +0.000 A 
ATOM      5  C   UNL     1       1.897   4.637  19.443  0.00  0.00    +0.000 A 
ATOM      6  C   UNL     1       2.752   5.019  18.382  0.00  0.00    +0.000 A 
ATOM      7  C   UNL     1       3.172   6.466  18.215  0.00  0.00    +0.000 C 
ATOM      8  C   UNL     1       2.295   7.453  18.981  0.00  0.00    +0.000 C 
ATOM      9  C   UNL     1       2.093   6.978  20.411  0.00  0.00    +0.000 C 
ATOM     10  C   UNL     1       1.343   5.650  20.419  0.00  0.00    +0.000 C 
ENDROOT
BRANCH   4  11
ATOM     11  O   UNL     1       0.654   2.937  20.562  0.00  0.00    +0.000 OA
ATOM     12  H   UNL     1       1.169   2.695  21.348  0.00  0.00    +0.000 HD
ENDBRANCH   4  11
BRANCH   1  13
ATOM     13  O   UNL     1       4.134   4.461  16.537  0.00  0.00    +0.000 OA
BRANCH  13  14
ATOM     14  C   UNL     1       5.331   3.690  16.360  0.00  0.00    +0.000 C 
BRANCH  14  15
ATOM     15  C   UNL     1       6.557   4.486  16.825  0.00  0.00    +0.000 C 
BRANCH  15  16
ATOM     16  O   UNL     1       6.847   4.158  18.189  0.00  0.00    +0.000 OA
ATOM     17  H   UNL     1       7.776   4.406  18.343  0.00  0.00    +0.000 HD
ENDBRANCH  15  16
BRANCH  15  18
ATOM     18  C   UNL     1       6.349   6.004  16.645  0.00  0.00    +0.000 C 
BRANCH  18  19
ATOM     19  N   UNL     1       5.825   6.341  15.320  0.00  0.00    +0.000 NA
ATOM     20  H   UNL     1       5.903   7.345  15.163  0.00  0.00    +0.000 HD
ATOM     21  H   UNL     1       4.833   6.108  15.266  0.00  0.00    +0.000 HD
ENDBRANCH  18  19
ENDBRANCH  15  18
ENDBRANCH  14  15
ENDBRANCH  13  14
ENDBRANCH   1  13
TORSDOF 7
ENDMDL
