MODEL 1
REMARK VINA RESULT:      -6.3      0.000      0.000
REMARK  Name = 
REMARK  6 active torsions:
REMARK  status: ('A' for Active; 'I' for Inactive)
REMARK    1  A    between atoms: C_2  and  OXT_3
REMARK    2  A    between atoms: C_2  and  CA_4
REMARK    3  A    between atoms: C_11  and  N_12
REMARK    4  A    between atoms: N_12  and  C_13
REMARK    5  A    between atoms: C_13  and  C_14
REMARK    6  A    between atoms: C_14  and  O_15
REMARK                            x       y       z     vdW  Elec       q    Type
REMARK                         _______ _______ _______ _____ _____    ______ ____
ROOT
ATOM      1  CA  UNL     1       6.357   5.200  18.770  0.00  0.00    +0.000 A 
ATOM      2  C   UNL     1       5.184   5.218  19.500  0.00  0.00    +0.000 A 
ATOM      3  C   UNL     1       4.109   4.550  18.910  0.00  0.00    +0.000 A 
ATOM      4  S   UNL     1       2.522   4.399  19.565  0.00  0.00    +0.000 S 
ATOM      5  C   UNL     1       1.977   3.488  18.235  0.00  0.00    +0.000 A 
ATOM      6  C   UNL     1       2.969   3.303  17.301  0.00  0.00    +0.000 A 
ATOM      7  C   UNL     1       4.222   3.917  17.666  0.00  0.00    +0.000 A 
ATOM      8  C   UNL     1       5.468   3.965  16.984  0.00  0.00    +0.000 A 
ATOM      9  N   UNL     1       6.509   4.608  17.560  0.00  0.00    +0.000 NA
ENDROOT
BRANCH   1  11
ATOM     10  O   UNL     1       8.153   6.786  18.711  0.00  0.00    +0.000 OA
ATOM     11  C   UNL     1       7.572   5.892  19.293  0.00  0.00    +0.000 C 
BRANCH  11  12
ATOM     12  OXT UNL     1       7.946   5.395  20.497  0.00  0.00    +0.000 OA
ATOM     13  HXT UNL     1       7.171   5.041  20.997  0.00  0.00    +0.000 HD
ENDBRANCH  11  12
ENDBRANCH   1  11
BRANCH   8  14
ATOM     14  N   UNL     1       5.649   3.457  15.702  0.00  0.00    +0.000 N 
ATOM     15  H   UNL     1       6.368   2.748  15.631  0.00  0.00    +0.000 HD
BRANCH  14  16
ATOM     16  C   UNL     1       5.603   4.401  14.581  0.00  0.00    +0.000 C 
BRANCH  16  17
ATOM     17  C   UNL     1       7.015   4.666  14.039  0.00  0.00    +0.000 C 
BRANCH  17  18
ATOM     18  O   UNL     1       7.735   5.553  14.897  0.00  0.00    +0.000 OA
ATOM     19  H   UNL     1       7.638   6.428  14.463  0.00  0.00    +0.000 HD
ENDBRANCH  17  18
ENDBRANCH  16  17
ENDBRANCH  14  16
ENDBRANCH   8  14
TORSDOF 6
ENDMDL
MODEL 2
REMARK VINA RESULT:      -6.1      2.531      4.194
REMARK  Name = 
REMARK  6 active torsions:
REMARK  status: ('A' for Active; 'I' for Inactive)
REMARK    1  A    between atoms: C_2  and  OXT_3
REMARK    2  A    between atoms: C_2  and  CA_4
REMARK    3  A    between atoms: C_11  and  N_12
REMARK    4  A    between atoms: N_12  and  C_13
REMARK    5  A    between atoms: C_13  and  C_14
REMARK    6  A    between atoms: C_14  and  O_15
REMARK                            x       y       z     vdW  Elec       q    Type
REMARK                         _______ _______ _______ _____ _____    ______ ____
ROOT
ATOM      1  CA  UNL     1       5.847   5.031  16.314  0.00  0.00    +0.000 A 
ATOM      2  C   UNL     1       5.016   6.134  16.304  0.00  0.00    +0.000 A 
ATOM      3  C   UNL     1       4.219   6.286  17.441  0.00  0.00    +0.000 A 
ATOM      4  S   UNL     1       3.083   7.550  17.725  0.00  0.00    +0.000 S 
ATOM      5  C   UNL     1       2.655   6.927  19.250  0.00  0.00    +0.000 A 
ATOM      6  C   UNL     1       3.348   5.776  19.545  0.00  0.00    +0.000 A 
ATOM      7  C   UNL     1       4.263   5.376  18.504  0.00  0.00    +0.000 A 
ATOM      8  C   UNL     1       5.141   4.262  18.416  0.00  0.00    +0.000 A 
ATOM      9  N   UNL     1       5.917   4.120  17.316  0.00  0.00    +0.000 NA
ENDROOT
BRANCH   1  11
ATOM     10  O   UNL     1       7.656   5.473  14.806  0.00  0.00    +0.000 OA
ATOM     11  C   UNL     1       6.737   4.756  15.148  0.00  0.00    +0.000 C 
BRANCH  11  12
ATOM     12  OXT UNL     1       6.386   3.611  14.515  0.00  0.00    +0.000 OA
ATOM     13  HXT UNL     1       5.580   3.208  14.921  0.00  0.00    +0.000 HD
ENDBRANCH  11  12
ENDBRANCH   1  11
BRANCH   8  14
ATOM     14  N   UNL     1       5.181   3.252  19.371  0.00  0.00    +0.000 N 
ATOM     15  H   UNL     1       5.975   2.630  19.290  0.00  0.00    +0.000 HD
BRANCH  14  16
ATOM     16  C   UNL     1       3.918   2.593  19.721  0.00  0.00    +0.000 C 
BRANCH  16  17
ATOM     17  C   UNL     1       3.463   1.661  18.589  0.00  0.00    +0.000 C 
BRANCH  17  18
ATOM     18  O   UNL     1       4.378   0.577  18.418  0.00  0.00    +0.000 OA
ATOM     19  H   UNL     1       4.844   0.796  17.583  0.00  0.00    +0.000 HD
ENDBRANCH  17  18
ENDBRANCH  16  17
ENDBRANCH  14  16
ENDBRANCH   8  14
TORSDOF 6
ENDMDL
MODEL 3
REMARK VINA RESULT:      -5.9      2.671      4.223
REMARK  Name = 
REMARK  6 active torsions:
REMARK  status: ('A' for Active; 'I' for Inactive)
REMARK    1  A    between atoms: C_2  and  OXT_3
REMARK    2  A    between atoms: C_2  and  CA_4
REMARK    3  A    between atoms: C_11  and  N_12
REMARK    4  A    between atoms: N_12  and  C_13
REMARK    5  A    between atoms: C_13  and  C_14
REMARK    6  A    between atoms: C_14  and  O_15
REMARK                            x       y       z     vdW  Elec       q    Type
REMARK                         _______ _______ _______ _____ _____    ______ ____
ROOT
ATOM      1  CA  UNL     1       5.785   5.115  16.280  0.00  0.00    +0.000 A 
ATOM      2  C   UNL     1       4.946   6.212  16.320  0.00  0.00    +0.000 A 
ATOM      3  C   UNL     1       4.165   6.318  17.473  0.00  0.00    +0.000 A 
ATOM      4  S   UNL     1       3.024   7.563  17.818  0.00  0.00    +0.000 S 
ATOM      5  C   UNL     1       2.623   6.883  19.325  0.00  0.00    +0.000 A 
ATOM      6  C   UNL     1       3.327   5.728  19.570  0.00  0.00    +0.000 A 
ATOM      7  C   UNL     1       4.231   5.372  18.503  0.00  0.00    +0.000 A 
ATOM      8  C   UNL     1       5.115   4.268  18.363  0.00  0.00    +0.000 A 
ATOM      9  N   UNL     1       5.875   4.171  17.249  0.00  0.00    +0.000 NA
ENDROOT
BRANCH   1  11
ATOM     10  O   UNL     1       6.440   4.062  14.229  0.00  0.00    +0.000 OA
ATOM     11  C   UNL     1       6.660   4.889  15.092  0.00  0.00    +0.000 C 
BRANCH  11  12
ATOM     12  OXT UNL     1       7.732   5.716  15.101  0.00  0.00    +0.000 OA
ATOM     13  HXT UNL     1       8.565   5.224  15.304  0.00  0.00    +0.000 HD
ENDBRANCH  11  12
ENDBRANCH   1  11
BRANCH   8  14
ATOM     14  N   UNL     1       5.175   3.226  19.282  0.00  0.00    +0.000 N 
ATOM     15  H   UNL     1       6.028   2.682  19.242  0.00  0.00    +0.000 HD
BRANCH  14  16
ATOM     16  C   UNL     1       3.956   2.442  19.507  0.00  0.00    +0.000 C 
BRANCH  16  17
ATOM     17  C   UNL     1       3.524   1.733  18.216  0.00  0.00    +0.000 C 
BRANCH  17  18
ATOM     18  O   UNL     1       2.102   1.606  18.153  0.00  0.00    +0.000 OA
ATOM     19  H   UNL     1       1.779   2.518  18.312  0.00  0.00    +0.000 HD
ENDBRANCH  17  18
ENDBRANCH  16  17
ENDBRANCH  14  16
ENDBRANCH   8  14
TORSDOF 6
ENDMDL
MODEL 4
REMARK VINA RESULT:      -5.9      1.612      4.161
REMARK  Name = 
REMARK  6 active torsions:
REMARK  status: ('A' for Active; 'I' for Inactive)
REMARK    1  A    between atoms: C_2  and  OXT_3
REMARK    2  A    between atoms: C_2  and  CA_4
REMARK    3  A    between atoms: C_11  and  N_12
REMARK    4  A    between atoms: N_12  and  C_13
REMARK    5  A    between atoms: C_13  and  C_14
REMARK    6  A    between atoms: C_14  and  O_15
REMARK                            x       y       z     vdW  Elec       q    Type
REMARK                         _______ _______ _______ _____ _____    ______ ____
ROOT
ATOM      1  CA  UNL     1       6.401   4.457  15.243  0.00  0.00    +0.000 A 
ATOM      2  C   UNL     1       5.072   4.148  15.455  0.00  0.00    +0.000 A 
ATOM      3  C   UNL     1       4.689   4.064  16.795  0.00  0.00    +0.000 A 
ATOM      4  S   UNL     1       3.112   3.694  17.382  0.00  0.00    +0.000 S 
ATOM      5  C   UNL     1       3.602   3.824  19.006  0.00  0.00    +0.000 A 
ATOM      6  C   UNL     1       4.937   4.133  19.115  0.00  0.00    +0.000 A 
ATOM      7  C   UNL     1       5.598   4.273  17.840  0.00  0.00    +0.000 A 
ATOM      8  C   UNL     1       6.950   4.572  17.522  0.00  0.00    +0.000 A 
ATOM      9  N   UNL     1       7.317   4.659  16.223  0.00  0.00    +0.000 NA
ENDROOT
BRANCH   1  11
ATOM     10  O   UNL     1       6.556   3.871  12.924  0.00  0.00    +0.000 OA
ATOM     11  C   UNL     1       6.930   4.562  13.851  0.00  0.00    +0.000 C 
BRANCH  11  12
ATOM     12  OXT UNL     1       7.883   5.520  13.754  0.00  0.00    +0.000 OA
ATOM     13  HXT UNL     1       8.784   5.148  13.916  0.00  0.00    +0.000 HD
ENDBRANCH  11  12
ENDBRANCH   1  11
BRANCH   8  14
ATOM     14  N   UNL     1       7.946   4.694  18.486  0.00  0.00    +0.000 N 
ATOM     15  H   UNL     1       8.137   3.843  18.999  0.00  0.00    +0.000 HD
BRANCH  14  16
ATOM     16  C   UNL     1       7.967   5.918  19.293  0.00  0.00    +0.000 C 
BRANCH  16  17
ATOM     17  C   UNL     1       7.980   7.160  18.391  0.00  0.00    +0.000 C 
BRANCH  17  18
ATOM     18  O   UNL     1       8.737   8.217  18.983  0.00  0.00    +0.000 OA
ATOM     19  H   UNL     1       9.294   8.547  18.245  0.00  0.00    +0.000 HD
ENDBRANCH  17  18
ENDBRANCH  16  17
ENDBRANCH  14  16
ENDBRANCH   8  14
TORSDOF 6
ENDMDL
MODEL 5
REMARK VINA RESULT:      -5.8      2.701      3.692
REMARK  Name = 
REMARK  6 active torsions:
REMARK  status: ('A' for Active; 'I' for Inactive)
REMARK    1  A    between atoms: C_2  and  OXT_3
REMARK    2  A    between atoms: C_2  and  CA_4
REMARK    3  A    between atoms: C_11  and  N_12
REMARK    4  A    between atoms: N_12  and  C_13
REMARK    5  A    between atoms: C_13  and  C_14
REMARK    6  A    between atoms: C_14  and  O_15
REMARK                            x       y       z     vdW  Elec       q    Type
REMARK                         _______ _______ _______ _____ _____    ______ ____
ROOT
ATOM      1  CA  UNL     1       6.030   5.376  17.705  0.00  0.00    +0.000 A 
ATOM      2  C   UNL     1       5.046   6.342  17.774  0.00  0.00    +0.000 A 
ATOM      3  C   UNL     1       3.993   6.055  18.645  0.00  0.00    +0.000 A 
ATOM      4  S   UNL     1       2.620   7.051  18.947  0.00  0.00    +0.000 S 
ATOM      5  C   UNL     1       1.966   5.945  20.062  0.00  0.00    +0.000 A 
ATOM      6  C   UNL     1       2.760   4.832  20.204  0.00  0.00    +0.000 A 
ATOM      7  C   UNL     1       3.947   4.866  19.385  0.00  0.00    +0.000 A 
ATOM      8  C   UNL     1       5.001   3.925  19.235  0.00  0.00    +0.000 A 
ATOM      9  N   UNL     1       6.023   4.209  18.395  0.00  0.00    +0.000 NA
ENDROOT
BRANCH   1  11
ATOM     10  O   UNL     1       7.493   6.623  16.272  0.00  0.00    +0.000 OA
ATOM     11  C   UNL     1       7.200   5.567  16.797  0.00  0.00    +0.000 C 
BRANCH  11  12
ATOM     12  OXT UNL     1       7.890   4.413  16.628  0.00  0.00    +0.000 OA
ATOM     13  HXT UNL     1       7.376   3.635  16.958  0.00  0.00    +0.000 HD
ENDBRANCH  11  12
ENDBRANCH   1  11
BRANCH   8  14
ATOM     14  N   UNL     1       4.993   2.676  19.846  0.00  0.00    +0.000 N 
ATOM     15  H   UNL     1       5.883   2.193  19.823  0.00  0.00    +0.000 HD
BRANCH  14  16
ATOM     16  C   UNL     1       3.823   1.819  19.633  0.00  0.00    +0.000 C 
BRANCH  16  17
ATOM     17  C   UNL     1       3.631   1.529  18.138  0.00  0.00    +0.000 C 
BRANCH  17  18
ATOM     18  O   UNL     1       2.289   1.804  17.730  0.00  0.00    +0.000 OA
ATOM     19  H   UNL     1       2.093   2.672  18.145  0.00  0.00    +0.000 HD
ENDBRANCH  17  18
ENDBRANCH  16  17
ENDBRANCH  14  16
ENDBRANCH   8  14
TORSDOF 6
ENDMDL
MODEL 6
REMARK VINA RESULT:      -5.8      3.313      4.150
REMARK  Name = 
REMARK  6 active torsions:
REMARK  status: ('A' for Active; 'I' for Inactive)
REMARK    1  A    between atoms: C_2  and  OXT_3
REMARK    2  A    between atoms: C_2  and  CA_4
REMARK    3  A    between atoms: C_11  and  N_12
REMARK    4  A    between atoms: N_12  and  C_13
REMARK    5  A    between atoms: C_13  and  C_14
REMARK    6  A    between atoms: C_14  and  O_15
REMARK                            x       y       z     vdW  Elec       q    Type
REMARK                         _______ _______ _______ _____ _____    ______ ____
ROOT
ATOM      1  CA  UNL     1       2.659   4.014  20.262  0.00  0.00    +0.000 A 
ATOM      2  C   UNL     1       2.075   5.262  20.160  0.00  0.00    +0.000 A 
ATOM      3  C   UNL     1       2.650   6.108  19.210  0.00  0.00    +0.000 A 
ATOM      4  S   UNL     1       2.156   7.720  18.851  0.00  0.00    +0.000 S 
ATOM      5  C   UNL     1       3.354   7.903  17.657  0.00  0.00    +0.000 A 
ATOM      6  C   UNL     1       4.127   6.773  17.530  0.00  0.00    +0.000 A 
ATOM      7  C   UNL     1       3.742   5.712  18.428  0.00  0.00    +0.000 A 
ATOM      8  C   UNL     1       4.283   4.412  18.616  0.00  0.00    +0.000 A 
ATOM      9  N   UNL     1       3.720   3.591  19.532  0.00  0.00    +0.000 NA
ENDROOT
BRANCH   1  11
ATOM     10  O   UNL     1       2.833   2.422  22.045  0.00  0.00    +0.000 OA
ATOM     11  C   UNL     1       2.138   3.026  21.252  0.00  0.00    +0.000 C 
BRANCH  11  12
ATOM     12  OXT UNL     1       0.794   2.884  21.152  0.00  0.00    +0.000 OA
ATOM     13  HXT UNL     1       0.337   3.760  21.179  0.00  0.00    +0.000 HD
ENDBRANCH  11  12
ENDBRANCH   1  11
BRANCH   8  14
ATOM     14  N   UNL     1       5.427   3.965  17.962  0.00  0.00    +0.000 N 
ATOM     15  H   UNL     1       6.291   4.355  18.317  0.00  0.00    +0.000 HD
BRANCH  14  16
ATOM     16  C   UNL     1       5.369   3.826  16.503  0.00  0.00    +0.000 C 
BRANCH  16  17
ATOM     17  C   UNL     1       6.647   4.379  15.857  0.00  0.00    +0.000 C 
BRANCH  17  18
ATOM     18  O   UNL     1       7.688   4.528  16.824  0.00  0.00    +0.000 OA
ATOM     19  H   UNL     1       8.397   4.995  16.333  0.00  0.00    +0.000 HD
ENDBRANCH  17  18
ENDBRANCH  16  17
ENDBRANCH  14  16
ENDBRANCH   8  14
TORSDOF 6
ENDMDL
MODEL 7
REMARK VINA RESULT:      -5.8      2.757      4.469
REMARK  Name = 
REMARK  6 active torsions:
REMARK  status: ('A' for Active; 'I' for Inactive)
REMARK    1  A    between atoms: C_2  and  OXT_3
REMARK    2  A    between atoms: C_2  and  CA_4
REMARK    3  A    between atoms: C_11  and  N_12
REMARK    4  A    between atoms: N_12  and  C_13
REMARK    5  A    between atoms: C_13  and  C_14
REMARK    6  A    between atoms: C_14  and  O_15
REMARK                            x       y       z     vdW  Elec       q    Type
REMARK                         _______ _______ _______ _____ _____    ______ ____
ROOT
ATOM      1  CA  UNL     1       6.056   4.941  17.609  0.00  0.00    +0.000 A 
ATOM      2  C   UNL     1       5.403   6.116  17.289  0.00  0.00    +0.000 A 
ATOM      3  C   UNL     1       4.243   6.368  18.024  0.00  0.00    +0.000 A 
ATOM      4  S   UNL     1       3.210   7.737  17.858  0.00  0.00    +0.000 S 
ATOM      5  C   UNL     1       2.163   7.193  19.084  0.00  0.00    +0.000 A 
ATOM      6  C   UNL     1       2.573   5.991  19.611  0.00  0.00    +0.000 A 
ATOM      7  C   UNL     1       3.781   5.484  19.007  0.00  0.00    +0.000 A 
ATOM      8  C   UNL     1       4.514   4.292  19.254  0.00  0.00    +0.000 A 
ATOM      9  N   UNL     1       5.642   4.053  18.545  0.00  0.00    +0.000 NA
ENDROOT
BRANCH   1  11
ATOM     10  O   UNL     1       7.461   4.691  15.683  0.00  0.00    +0.000 OA
ATOM     11  C   UNL     1       7.301   4.558  16.881  0.00  0.00    +0.000 C 
BRANCH  11  12
ATOM     12  OXT UNL     1       8.228   4.039  17.722  0.00  0.00    +0.000 OA
ATOM     13  HXT UNL     1       9.044   3.769  17.235  0.00  0.00    +0.000 HD
ENDBRANCH  11  12
ENDBRANCH   1  11
BRANCH   8  14
ATOM     14  N   UNL     1       4.082   3.306  20.135  0.00  0.00    +0.000 N 
ATOM     15  H   UNL     1       4.828   2.784  20.578  0.00  0.00    +0.000 HD
BRANCH  14  16
ATOM     16  C   UNL     1       2.919   2.503  19.743  0.00  0.00    +0.000 C 
BRANCH  16  17
ATOM     17  C   UNL     1       1.848   2.531  20.842  0.00  0.00    +0.000 C 
BRANCH  17  18
ATOM     18  O   UNL     1       2.328   3.202  22.009  0.00  0.00    +0.000 OA
ATOM     19  H   UNL     1       2.966   2.565  22.398  0.00  0.00    +0.000 HD
ENDBRANCH  17  18
ENDBRANCH  16  17
ENDBRANCH  14  16
ENDBRANCH   8  14
TORSDOF 6
ENDMDL
MODEL 8
REMARK VINA RESULT:      -5.8      2.617      4.442
REMARK  Name = 
REMARK  6 active torsions:
REMARK  status: ('A' for Active; 'I' for Inactive)
REMARK    1  A    between atoms: C_2  and  OXT_3
REMARK    2  A    between atoms: C_2  and  CA_4
REMARK    3  A    between atoms: C_11  and  N_12
REMARK    4  A    between atoms: N_12  and  C_13
REMARK    5  A    between atoms: C_13  and  C_14
REMARK    6  A    between atoms: C_14  and  O_15
REMARK                            x       y       z     vdW  Elec       q    Type
REMARK                         _______ _______ _______ _____ _____    ______ ____
ROOT
ATOM      1  CA  UNL     1       5.697   4.894  15.920  0.00  0.00    +0.000 A 
ATOM      2  C   UNL     1       5.139   6.146  16.089  0.00  0.00    +0.000 A 
ATOM      3  C   UNL     1       4.245   6.257  17.156  0.00  0.00    +0.000 A 
ATOM      4  S   UNL     1       3.388   7.678  17.621  0.00  0.00    +0.000 S 
ATOM      5  C   UNL     1       2.625   6.885  18.919  0.00  0.00    +0.000 A 
ATOM      6  C   UNL     1       2.998   5.565  19.003  0.00  0.00    +0.000 A 
ATOM      7  C   UNL     1       3.939   5.170  17.983  0.00  0.00    +0.000 A 
ATOM      8  C   UNL     1       4.553   3.916  17.721  0.00  0.00    +0.000 A 
ATOM      9  N   UNL     1       5.424   3.812  16.690  0.00  0.00    +0.000 NA
ENDROOT
BRANCH   1  11
ATOM     10  O   UNL     1       7.601   5.369  14.545  0.00  0.00    +0.000 OA
ATOM     11  C   UNL     1       6.658   4.649  14.804  0.00  0.00    +0.000 C 
BRANCH  11  12
ATOM     12  OXT UNL     1       6.341   3.527  14.114  0.00  0.00    +0.000 OA
ATOM     13  HXT UNL     1       7.152   3.026  13.852  0.00  0.00    +0.000 HD
ENDBRANCH  11  12
ENDBRANCH   1  11
BRANCH   8  14
ATOM     14  N   UNL     1       4.235   2.756  18.420  0.00  0.00    +0.000 N 
ATOM     15  H   UNL     1       5.035   2.191  18.678  0.00  0.00    +0.000 HD
BRANCH  14  16
ATOM     16  C   UNL     1       3.060   1.995  17.983  0.00  0.00    +0.000 C 
BRANCH  16  17
ATOM     17  C   UNL     1       1.995   1.965  19.087  0.00  0.00    +0.000 C 
BRANCH  17  18
ATOM     18  O   UNL     1       2.530   2.427  20.329  0.00  0.00    +0.000 OA
ATOM     19  H   UNL     1       1.811   2.249  20.973  0.00  0.00    +0.000 HD
ENDBRANCH  17  18
ENDBRANCH  16  17
ENDBRANCH  14  16
ENDBRANCH   8  14
TORSDOF 6
ENDMDL
MODEL 9
REMARK VINA RESULT:      -5.7      2.372      4.464
REMARK  Name = 
REMARK  6 active torsions:
REMARK  status: ('A' for Active; 'I' for Inactive)
REMARK    1  A    between atoms: C_2  and  OXT_3
REMARK    2  A    between atoms: C_2  and  CA_4
REMARK    3  A    between atoms: C_11  and  N_12
REMARK    4  A    between atoms: N_12  and  C_13
REMARK    5  A    between atoms: C_13  and  C_14
REMARK    6  A    between atoms: C_14  and  O_15
REMARK                            x       y       z     vdW  Elec       q    Type
REMARK                         _______ _______ _______ _____ _____    ______ ____
ROOT
ATOM      1  CA  UNL     1       6.668   4.900  15.379  0.00  0.00    +0.000 A 
ATOM      2  C   UNL     1       5.646   4.087  15.830  0.00  0.00    +0.000 A 
ATOM      3  C   UNL     1       5.262   4.300  17.156  0.00  0.00    +0.000 A 
ATOM      4  S   UNL     1       4.028   3.449  18.006  0.00  0.00    +0.000 S 
ATOM      5  C   UNL     1       4.280   4.350  19.428  0.00  0.00    +0.000 A 
ATOM      6  C   UNL     1       5.285   5.276  19.276  0.00  0.00    +0.000 A 
ATOM      7  C   UNL     1       5.879   5.265  17.961  0.00  0.00    +0.000 A 
ATOM      8  C   UNL     1       6.933   6.043  17.411  0.00  0.00    +0.000 A 
ATOM      9  N   UNL     1       7.299   5.840  16.125  0.00  0.00    +0.000 NA
ENDROOT
BRANCH   1  11
ATOM     10  O   UNL     1       7.971   5.512  13.463  0.00  0.00    +0.000 OA
ATOM     11  C   UNL     1       7.173   4.757  13.982  0.00  0.00    +0.000 C 
BRANCH  11  12
ATOM     12  OXT UNL     1       6.625   3.682  13.364  0.00  0.00    +0.000 OA
ATOM     13  HXT UNL     1       6.212   3.935  12.503  0.00  0.00    +0.000 HD
ENDBRANCH  11  12
ENDBRANCH   1  11
BRANCH   8  14
ATOM     14  N   UNL     1       7.674   6.952  18.160  0.00  0.00    +0.000 N 
ATOM     15  H   UNL     1       7.495   6.918  19.156  0.00  0.00    +0.000 HD
BRANCH  14  16
ATOM     16  C   UNL     1       7.855   8.300  17.613  0.00  0.00    +0.000 C 
BRANCH  16  17
ATOM     17  C   UNL     1       8.671   9.170  18.579  0.00  0.00    +0.000 C 
BRANCH  17  18
ATOM     18  O   UNL     1       8.732  10.523  18.124  0.00  0.00    +0.000 OA
ATOM     19  H   UNL     1       9.621  10.825  18.410  0.00  0.00    +0.000 HD
ENDBRANCH  17  18
ENDBRANCH  16  17
ENDBRANCH  14  16
ENDBRANCH   8  14
TORSDOF 6
ENDMDL
