MODEL 1
REMARK VINA RESULT:      -7.7      0.000      0.000
REMARK  Name = 
REMARK  4 active torsions:
REMARK  status: ('A' for Active; 'I' for Inactive)
REMARK    1  A    between atoms: C_2  and  C_11
REMARK    2  A    between atoms: N_3  and  C_4
REMARK    3  A    between atoms: C_13  and  S_14
REMARK    4  A    between atoms: S_14  and  N_17
REMARK                            x       y       z     vdW  Elec       q    Type
REMARK                         _______ _______ _______ _____ _____    ______ ____
ROOT
ATOM      1  C   UNL     1       6.787   6.121  17.680  0.00  0.00    +0.000 A 
ATOM      2  C   UNL     1       6.016   5.362  18.546  0.00  0.00    +0.000 A 
ATOM      3  C   UNL     1       5.202   4.416  17.878  0.00  0.00    +0.000 A 
ATOM      4  C   UNL     1       5.399   4.450  16.512  0.00  0.00    +0.000 A 
ATOM      5  S   UNL     1       6.524   5.673  16.057  0.00  0.00    +0.000 S 
ENDROOT
BRANCH   1   7
ATOM      6  O   UNL     1       8.501   6.869  19.028  0.00  0.00    +0.000 OA
ATOM      7  C   UNL     1       7.722   7.147  18.121  0.00  0.00    +0.000 C 
ATOM      8  N   UNL     1       7.627   8.410  17.550  0.00  0.00    +0.000 N 
ATOM      9  H   UNL     1       6.896   8.548  16.867  0.00  0.00    +0.000 HD
BRANCH   8  10
ATOM     10  C   UNL     1       8.318   9.569  18.019  0.00  0.00    +0.000 A 
ATOM     11  C   UNL     1       9.159   9.555  19.139  0.00  0.00    +0.000 A 
ATOM     12  C   UNL     1       9.730  10.726  19.643  0.00  0.00    +0.000 A 
ATOM     13  C   UNL     1       9.483  11.938  19.013  0.00  0.00    +0.000 A 
ATOM     14  C   UNL     1       8.693  11.952  17.872  0.00  0.00    +0.000 A 
ATOM     15  F   UNL     1       8.463  13.123  17.258  0.00  0.00    +0.000 F 
ATOM     16  C   UNL     1       8.115  10.786  17.361  0.00  0.00    +0.000 A 
ENDBRANCH   8  10
ENDBRANCH   1   7
BRANCH   3  17
ATOM     17  S   UNL     1       4.063   3.372  18.662  0.00  0.00    +0.000 S 
ATOM     18  O   UNL     1       3.659   2.482  17.589  0.00  0.00    +0.000 OA
ATOM     19  O   UNL     1       4.781   2.884  19.814  0.00  0.00    +0.000 OA
BRANCH  17  20
ATOM     20  N   UNL     1       2.681   4.238  19.175  0.00  0.00    +0.000 NA
ATOM     21  C   UNL     1       2.595   4.600  20.628  0.00  0.00    +0.000 C 
ATOM     22  C   UNL     1       2.194   3.394  21.491  0.00  0.00    +0.000 C 
ATOM     23  O   UNL     1       0.974   2.791  21.034  0.00  0.00    +0.000 OA
ATOM     24  C   UNL     1       1.042   2.414  19.650  0.00  0.00    +0.000 C 
ATOM     25  C   UNL     1       1.373   3.621  18.767  0.00  0.00    +0.000 C 
ENDBRANCH  17  20
ENDBRANCH   3  17
TORSDOF 4
ENDMDL
MODEL 2
REMARK VINA RESULT:      -7.7      5.146      6.946
REMARK  Name = 
REMARK  4 active torsions:
REMARK  status: ('A' for Active; 'I' for Inactive)
REMARK    1  A    between atoms: C_2  and  C_11
REMARK    2  A    between atoms: N_3  and  C_4
REMARK    3  A    between atoms: C_13  and  S_14
REMARK    4  A    between atoms: S_14  and  N_17
REMARK                            x       y       z     vdW  Elec       q    Type
REMARK                         _______ _______ _______ _____ _____    ______ ____
ROOT
ATOM      1  C   UNL     1       2.067   7.107  19.791  0.00  0.00    +0.000 A 
ATOM      2  C   UNL     1       2.945   6.673  18.811  0.00  0.00    +0.000 A 
ATOM      3  C   UNL     1       3.267   5.299  18.926  0.00  0.00    +0.000 A 
ATOM      4  C   UNL     1       2.594   4.705  19.976  0.00  0.00    +0.000 A 
ATOM      5  S   UNL     1       1.630   5.839  20.843  0.00  0.00    +0.000 S 
ENDROOT
BRANCH   1   7
ATOM      6  O   UNL     1       1.208   8.889  20.975  0.00  0.00    +0.000 OA
ATOM      7  C   UNL     1       1.567   8.473  19.878  0.00  0.00    +0.000 C 
ATOM      8  N   UNL     1       1.445   9.203  18.702  0.00  0.00    +0.000 N 
ATOM      9  H   UNL     1       1.698   8.732  17.844  0.00  0.00    +0.000 HD
BRANCH   8  10
ATOM     10  C   UNL     1       0.778  10.461  18.590  0.00  0.00    +0.000 A 
ATOM     11  C   UNL     1       1.443  11.688  18.703  0.00  0.00    +0.000 A 
ATOM     12  C   UNL     1       0.750  12.901  18.705  0.00  0.00    +0.000 A 
ATOM     13  C   UNL     1      -0.632  12.905  18.571  0.00  0.00    +0.000 A 
ATOM     14  C   UNL     1      -1.292  11.695  18.405  0.00  0.00    +0.000 A 
ATOM     15  F   UNL     1      -2.626  11.699  18.266  0.00  0.00    +0.000 F 
ATOM     16  C   UNL     1      -0.607  10.476  18.404  0.00  0.00    +0.000 A 
ENDBRANCH   8  10
ENDBRANCH   1   7
BRANCH   3  17
ATOM     17  S   UNL     1       4.398   4.467  17.911  0.00  0.00    +0.000 S 
ATOM     18  O   UNL     1       5.222   3.757  18.873  0.00  0.00    +0.000 OA
ATOM     19  O   UNL     1       3.562   3.762  16.972  0.00  0.00    +0.000 OA
BRANCH  17  20
ATOM     20  N   UNL     1       5.402   5.566  17.071  0.00  0.00    +0.000 NA
ATOM     21  C   UNL     1       5.657   5.294  15.618  0.00  0.00    +0.000 C 
ATOM     22  C   UNL     1       6.683   4.166  15.424  0.00  0.00    +0.000 C 
ATOM     23  O   UNL     1       7.907   4.431  16.125  0.00  0.00    +0.000 OA
ATOM     24  C   UNL     1       7.689   4.672  17.524  0.00  0.00    +0.000 C 
ATOM     25  C   UNL     1       6.721   5.840  17.736  0.00  0.00    +0.000 C 
ENDBRANCH  17  20
ENDBRANCH   3  17
TORSDOF 4
ENDMDL
MODEL 3
REMARK VINA RESULT:      -7.7      4.819      6.762
REMARK  Name = 
REMARK  4 active torsions:
REMARK  status: ('A' for Active; 'I' for Inactive)
REMARK    1  A    between atoms: C_2  and  C_11
REMARK    2  A    between atoms: N_3  and  C_4
REMARK    3  A    between atoms: C_13  and  S_14
REMARK    4  A    between atoms: S_14  and  N_17
REMARK                            x       y       z     vdW  Elec       q    Type
REMARK                         _______ _______ _______ _____ _____    ______ ____
ROOT
ATOM      1  C   UNL     1       2.038   7.077  19.906  0.00  0.00    +0.000 A 
ATOM      2  C   UNL     1       3.000   6.681  18.991  0.00  0.00    +0.000 A 
ATOM      3  C   UNL     1       3.315   5.304  19.081  0.00  0.00    +0.000 A 
ATOM      4  C   UNL     1       2.556   4.670  20.044  0.00  0.00    +0.000 A 
ATOM      5  S   UNL     1       1.515   5.770  20.866  0.00  0.00    +0.000 S 
ENDROOT
BRANCH   1   7
ATOM      6  O   UNL     1       1.209   8.861  21.107  0.00  0.00    +0.000 OA
ATOM      7  C   UNL     1       1.527   8.438  20.000  0.00  0.00    +0.000 C 
ATOM      8  N   UNL     1       1.349   9.156  18.824  0.00  0.00    +0.000 N 
ATOM      9  H   UNL     1       1.573   8.680  17.961  0.00  0.00    +0.000 HD
BRANCH   8  10
ATOM     10  C   UNL     1       0.666  10.406  18.728  0.00  0.00    +0.000 A 
ATOM     11  C   UNL     1      -0.711  10.507  18.494  0.00  0.00    +0.000 A 
ATOM     12  C   UNL     1      -1.333  11.741  18.291  0.00  0.00    +0.000 A 
ATOM     13  C   UNL     1      -0.582  12.907  18.342  0.00  0.00    +0.000 A 
ATOM     14  C   UNL     1       0.774  12.819  18.626  0.00  0.00    +0.000 A 
ATOM     15  F   UNL     1       1.498  13.946  18.685  0.00  0.00    +0.000 F 
ATOM     16  C   UNL     1       1.406  11.588  18.829  0.00  0.00    +0.000 A 
ENDBRANCH   8  10
ENDBRANCH   1   7
BRANCH   3  17
ATOM     17  S   UNL     1       4.533   4.512  18.138  0.00  0.00    +0.000 S 
ATOM     18  O   UNL     1       5.325   3.834  19.149  0.00  0.00    +0.000 OA
ATOM     19  O   UNL     1       3.780   3.774  17.154  0.00  0.00    +0.000 OA
BRANCH  17  20
ATOM     20  N   UNL     1       5.544   5.645  17.353  0.00  0.00    +0.000 NA
ATOM     21  C   UNL     1       5.665   5.544  15.862  0.00  0.00    +0.000 C 
ATOM     22  C   UNL     1       6.589   4.389  15.444  0.00  0.00    +0.000 C 
ATOM     23  O   UNL     1       7.880   4.488  16.062  0.00  0.00    +0.000 OA
ATOM     24  C   UNL     1       7.790   4.562  17.494  0.00  0.00    +0.000 C 
ATOM     25  C   UNL     1       6.927   5.751  17.930  0.00  0.00    +0.000 C 
ENDBRANCH  17  20
ENDBRANCH   3  17
TORSDOF 4
ENDMDL
MODEL 4
REMARK VINA RESULT:      -7.6      4.813      6.984
REMARK  Name = 
REMARK  4 active torsions:
REMARK  status: ('A' for Active; 'I' for Inactive)
REMARK    1  A    between atoms: C_2  and  C_11
REMARK    2  A    between atoms: N_3  and  C_4
REMARK    3  A    between atoms: C_13  and  S_14
REMARK    4  A    between atoms: S_14  and  N_17
REMARK                            x       y       z     vdW  Elec       q    Type
REMARK                         _______ _______ _______ _____ _____    ______ ____
ROOT
ATOM      1  C   UNL     1       2.154   6.475  20.051  0.00  0.00    +0.000 A 
ATOM      2  C   UNL     1       3.039   6.274  19.004  0.00  0.00    +0.000 A 
ATOM      3  C   UNL     1       3.537   4.950  18.946  0.00  0.00    +0.000 A 
ATOM      4  C   UNL     1       2.988   4.157  19.935  0.00  0.00    +0.000 A 
ATOM      5  S   UNL     1       1.924   5.048  20.955  0.00  0.00    +0.000 S 
ENDROOT
BRANCH   1   7
ATOM      6  O   UNL     1       0.819   7.846  21.335  0.00  0.00    +0.000 OA
ATOM      7  C   UNL     1       1.489   7.744  20.312  0.00  0.00    +0.000 C 
ATOM      8  N   UNL     1       1.580   8.743  19.351  0.00  0.00    +0.000 N 
ATOM      9  H   UNL     1       2.095   8.521  18.510  0.00  0.00    +0.000 HD
BRANCH   8  10
ATOM     10  C   UNL     1       0.818   9.951  19.358  0.00  0.00    +0.000 A 
ATOM     11  C   UNL     1       0.985  10.953  20.321  0.00  0.00    +0.000 A 
ATOM     12  C   UNL     1       0.149  12.071  20.371  0.00  0.00    +0.000 A 
ATOM     13  C   UNL     1      -0.864  12.215  19.434  0.00  0.00    +0.000 A 
ATOM     14  C   UNL     1      -1.003  11.252  18.444  0.00  0.00    +0.000 A 
ATOM     15  F   UNL     1      -1.976  11.396  17.532  0.00  0.00    +0.000 F 
ATOM     16  C   UNL     1      -0.172  10.129  18.386  0.00  0.00    +0.000 A 
ENDBRANCH   8  10
ENDBRANCH   1   7
BRANCH   3  17
ATOM     17  S   UNL     1       4.721   4.395  17.811  0.00  0.00    +0.000 S 
ATOM     18  O   UNL     1       5.937   4.381  18.604  0.00  0.00    +0.000 OA
ATOM     19  O   UNL     1       4.151   3.178  17.288  0.00  0.00    +0.000 OA
BRANCH  17  20
ATOM     20  N   UNL     1       4.936   5.518  16.540  0.00  0.00    +0.000 NA
ATOM     21  C   UNL     1       5.418   4.985  15.224  0.00  0.00    +0.000 C 
ATOM     22  C   UNL     1       6.924   4.685  15.250  0.00  0.00    +0.000 C 
ATOM     23  O   UNL     1       7.690   5.829  15.657  0.00  0.00    +0.000 OA
ATOM     24  C   UNL     1       7.261   6.342  16.928  0.00  0.00    +0.000 C 
ATOM     25  C   UNL     1       5.774   6.712  16.899  0.00  0.00    +0.000 C 
ENDBRANCH  17  20
ENDBRANCH   3  17
TORSDOF 4
ENDMDL
MODEL 5
REMARK VINA RESULT:      -7.5      1.083      1.422
REMARK  Name = 
REMARK  4 active torsions:
REMARK  status: ('A' for Active; 'I' for Inactive)
REMARK    1  A    between atoms: C_2  and  C_11
REMARK    2  A    between atoms: N_3  and  C_4
REMARK    3  A    between atoms: C_13  and  S_14
REMARK    4  A    between atoms: S_14  and  N_17
REMARK                            x       y       z     vdW  Elec       q    Type
REMARK                         _______ _______ _______ _____ _____    ______ ____
ROOT
ATOM      1  C   UNL     1       6.669   6.428  17.397  0.00  0.00    +0.000 A 
ATOM      2  C   UNL     1       5.532   6.050  18.091  0.00  0.00    +0.000 A 
ATOM      3  C   UNL     1       4.736   5.116  17.383  0.00  0.00    +0.000 A 
ATOM      4  C   UNL     1       5.308   4.775  16.174  0.00  0.00    +0.000 A 
ATOM      5  S   UNL     1       6.770   5.639  15.889  0.00  0.00    +0.000 S 
ENDROOT
BRANCH   1   7
ATOM      6  O   UNL     1       8.447   6.954  18.767  0.00  0.00    +0.000 OA
ATOM      7  C   UNL     1       7.659   7.361  17.918  0.00  0.00    +0.000 C 
ATOM      8  N   UNL     1       7.607   8.681  17.489  0.00  0.00    +0.000 N 
ATOM      9  H   UNL     1       6.867   8.922  16.846  0.00  0.00    +0.000 HD
BRANCH   8  10
ATOM     10  C   UNL     1       8.360   9.752  18.059  0.00  0.00    +0.000 A 
ATOM     11  C   UNL     1       9.105   9.619  19.238  0.00  0.00    +0.000 A 
ATOM     12  C   UNL     1       9.738  10.712  19.834  0.00  0.00    +0.000 A 
ATOM     13  C   UNL     1       9.652  11.964  19.242  0.00  0.00    +0.000 A 
ATOM     14  C   UNL     1       8.959  12.094  18.046  0.00  0.00    +0.000 A 
ATOM     15  F   UNL     1       8.885  13.303  17.469  0.00  0.00    +0.000 F 
ATOM     16  C   UNL     1       8.321  11.007  17.443  0.00  0.00    +0.000 A 
ENDBRANCH   8  10
ENDBRANCH   1   7
BRANCH   3  17
ATOM     17  S   UNL     1       3.211   4.508  17.936  0.00  0.00    +0.000 S 
ATOM     18  O   UNL     1       2.359   5.681  17.866  0.00  0.00    +0.000 OA
ATOM     19  O   UNL     1       2.977   3.358  17.098  0.00  0.00    +0.000 OA
BRANCH  17  20
ATOM     20  N   UNL     1       3.295   4.017  19.571  0.00  0.00    +0.000 NA
ATOM     21  C   UNL     1       3.193   2.548  19.855  0.00  0.00    +0.000 C 
ATOM     22  C   UNL     1       1.744   2.049  19.751  0.00  0.00    +0.000 C 
ATOM     23  O   UNL     1       0.858   2.802  20.592  0.00  0.00    +0.000 OA
ATOM     24  C   UNL     1       0.921   4.211  20.321  0.00  0.00    +0.000 C 
ATOM     25  C   UNL     1       2.350   4.739  20.488  0.00  0.00    +0.000 C 
ENDBRANCH  17  20
ENDBRANCH   3  17
TORSDOF 4
ENDMDL
MODEL 6
REMARK VINA RESULT:      -7.5      5.294      6.863
REMARK  Name = 
REMARK  4 active torsions:
REMARK  status: ('A' for Active; 'I' for Inactive)
REMARK    1  A    between atoms: C_2  and  C_11
REMARK    2  A    between atoms: N_3  and  C_4
REMARK    3  A    between atoms: C_13  and  S_14
REMARK    4  A    between atoms: S_14  and  N_17
REMARK                            x       y       z     vdW  Elec       q    Type
REMARK                         _______ _______ _______ _____ _____    ______ ____
ROOT
ATOM      1  C   UNL     1       2.488   7.335  18.698  0.00  0.00    +0.000 A 
ATOM      2  C   UNL     1       3.287   6.521  17.913  0.00  0.00    +0.000 A 
ATOM      3  C   UNL     1       3.736   5.363  18.594  0.00  0.00    +0.000 A 
ATOM      4  C   UNL     1       3.236   5.304  19.880  0.00  0.00    +0.000 A 
ATOM      5  S   UNL     1       2.280   6.685  20.260  0.00  0.00    +0.000 S 
ENDROOT
BRANCH   1   7
ATOM      6  O   UNL     1       2.248   9.014  17.137  0.00  0.00    +0.000 OA
ATOM      7  C   UNL     1       1.886   8.574  18.223  0.00  0.00    +0.000 C 
ATOM      8  N   UNL     1       0.995   9.234  19.061  0.00  0.00    +0.000 N 
ATOM      9  H   UNL     1       0.829   8.819  19.967  0.00  0.00    +0.000 HD
BRANCH   8  10
ATOM     10  C   UNL     1       0.489  10.550  18.836  0.00  0.00    +0.000 A 
ATOM     11  C   UNL     1       1.235  11.708  19.091  0.00  0.00    +0.000 A 
ATOM     12  C   UNL     1       0.677  12.982  18.971  0.00  0.00    +0.000 A 
ATOM     13  C   UNL     1      -0.645  13.120  18.569  0.00  0.00    +0.000 A 
ATOM     14  C   UNL     1      -1.374  11.979  18.263  0.00  0.00    +0.000 A 
ATOM     15  F   UNL     1      -2.648  12.112  17.865  0.00  0.00    +0.000 F 
ATOM     16  C   UNL     1      -0.825  10.699  18.382  0.00  0.00    +0.000 A 
ENDBRANCH   8  10
ENDBRANCH   1   7
BRANCH   3  17
ATOM     17  S   UNL     1       4.815   4.185  17.923  0.00  0.00    +0.000 S 
ATOM     18  O   UNL     1       4.516   3.001  18.707  0.00  0.00    +0.000 OA
ATOM     19  O   UNL     1       4.544   4.238  16.508  0.00  0.00    +0.000 OA
BRANCH  17  20
ATOM     20  N   UNL     1       6.447   4.607  18.209  0.00  0.00    +0.000 NA
ATOM     21  C   UNL     1       6.732   6.022  18.616  0.00  0.00    +0.000 C 
ATOM     22  C   UNL     1       6.664   6.982  17.418  0.00  0.00    +0.000 C 
ATOM     23  O   UNL     1       7.529   6.566  16.351  0.00  0.00    +0.000 OA
ATOM     24  C   UNL     1       7.258   5.221  15.928  0.00  0.00    +0.000 C 
ATOM     25  C   UNL     1       7.389   4.240  17.097  0.00  0.00    +0.000 C 
ENDBRANCH  17  20
ENDBRANCH   3  17
TORSDOF 4
ENDMDL
MODEL 7
REMARK VINA RESULT:      -7.5      5.042      6.648
REMARK  Name = 
REMARK  4 active torsions:
REMARK  status: ('A' for Active; 'I' for Inactive)
REMARK    1  A    between atoms: C_2  and  C_11
REMARK    2  A    between atoms: N_3  and  C_4
REMARK    3  A    between atoms: C_13  and  S_14
REMARK    4  A    between atoms: S_14  and  N_17
REMARK                            x       y       z     vdW  Elec       q    Type
REMARK                         _______ _______ _______ _____ _____    ______ ____
ROOT
ATOM      1  C   UNL     1       2.403   7.515  18.707  0.00  0.00    +0.000 A 
ATOM      2  C   UNL     1       3.180   6.719  17.882  0.00  0.00    +0.000 A 
ATOM      3  C   UNL     1       3.633   5.538  18.519  0.00  0.00    +0.000 A 
ATOM      4  C   UNL     1       3.156   5.443  19.812  0.00  0.00    +0.000 A 
ATOM      5  S   UNL     1       2.218   6.819  20.252  0.00  0.00    +0.000 S 
ENDROOT
BRANCH   1   7
ATOM      6  O   UNL     1       2.083   9.199  17.166  0.00  0.00    +0.000 OA
ATOM      7  C   UNL     1       1.801   8.771  18.281  0.00  0.00    +0.000 C 
ATOM      8  N   UNL     1       1.006   9.460  19.189  0.00  0.00    +0.000 N 
ATOM      9  H   UNL     1       0.905   9.051  20.108  0.00  0.00    +0.000 HD
BRANCH   8  10
ATOM     10  C   UNL     1       0.525  10.791  19.004  0.00  0.00    +0.000 A 
ATOM     11  C   UNL     1      -0.762  11.079  18.532  0.00  0.00    +0.000 A 
ATOM     12  C   UNL     1      -1.166  12.386  18.252  0.00  0.00    +0.000 A 
ATOM     13  C   UNL     1      -0.286  13.439  18.463  0.00  0.00    +0.000 A 
ATOM     14  C   UNL     1       0.972  13.166  18.981  0.00  0.00    +0.000 A 
ATOM     15  F   UNL     1       1.819  14.185  19.195  0.00  0.00    +0.000 F 
ATOM     16  C   UNL     1       1.387  11.862  19.263  0.00  0.00    +0.000 A 
ENDBRANCH   8  10
ENDBRANCH   1   7
BRANCH   3  17
ATOM     17  S   UNL     1       4.691   4.374  17.793  0.00  0.00    +0.000 S 
ATOM     18  O   UNL     1       4.335   3.148  18.485  0.00  0.00    +0.000 OA
ATOM     19  O   UNL     1       4.457   4.533  16.379  0.00  0.00    +0.000 OA
BRANCH  17  20
ATOM     20  N   UNL     1       6.327   4.719  18.144  0.00  0.00    +0.000 NA
ATOM     21  C   UNL     1       6.664   6.125  18.543  0.00  0.00    +0.000 C 
ATOM     22  C   UNL     1       6.697   7.068  17.330  0.00  0.00    +0.000 C 
ATOM     23  O   UNL     1       7.586   6.592  16.308  0.00  0.00    +0.000 OA
ATOM     24  C   UNL     1       7.266   5.255  15.893  0.00  0.00    +0.000 C 
ATOM     25  C   UNL     1       7.298   4.288  17.081  0.00  0.00    +0.000 C 
ENDBRANCH  17  20
ENDBRANCH   3  17
TORSDOF 4
ENDMDL
MODEL 8
REMARK VINA RESULT:      -7.5      0.950      1.363
REMARK  Name = 
REMARK  4 active torsions:
REMARK  status: ('A' for Active; 'I' for Inactive)
REMARK    1  A    between atoms: C_2  and  C_11
REMARK    2  A    between atoms: N_3  and  C_4
REMARK    3  A    between atoms: C_13  and  S_14
REMARK    4  A    between atoms: S_14  and  N_17
REMARK                            x       y       z     vdW  Elec       q    Type
REMARK                         _______ _______ _______ _____ _____    ______ ____
ROOT
ATOM      1  C   UNL     1       6.944   6.193  17.677  0.00  0.00    +0.000 A 
ATOM      2  C   UNL     1       6.095   5.489  18.513  0.00  0.00    +0.000 A 
ATOM      3  C   UNL     1       5.399   4.450  17.848  0.00  0.00    +0.000 A 
ATOM      4  C   UNL     1       5.764   4.364  16.519  0.00  0.00    +0.000 A 
ATOM      5  S   UNL     1       6.900   5.584  16.085  0.00  0.00    +0.000 S 
ENDROOT
BRANCH   1   7
ATOM      6  O   UNL     1       8.539   7.098  19.074  0.00  0.00    +0.000 OA
ATOM      7  C   UNL     1       7.787   7.294  18.125  0.00  0.00    +0.000 C 
ATOM      8  N   UNL     1       7.634   8.530  17.508  0.00  0.00    +0.000 N 
ATOM      9  H   UNL     1       6.928   8.596  16.788  0.00  0.00    +0.000 HD
BRANCH   8  10
ATOM     10  C   UNL     1       8.222   9.748  17.968  0.00  0.00    +0.000 A 
ATOM     11  C   UNL     1       8.004  10.983  17.346  0.00  0.00    +0.000 A 
ATOM     12  C   UNL     1       8.681  12.137  17.746  0.00  0.00    +0.000 A 
ATOM     13  C   UNL     1       9.581  12.075  18.802  0.00  0.00    +0.000 A 
ATOM     14  C   UNL     1       9.763  10.865  19.457  0.00  0.00    +0.000 A 
ATOM     15  F   UNL     1      10.625  10.808  20.483  0.00  0.00    +0.000 F 
ATOM     16  C   UNL     1       9.091   9.705  19.062  0.00  0.00    +0.000 A 
ENDBRANCH   8  10
ENDBRANCH   1   7
BRANCH   3  17
ATOM     17  S   UNL     1       4.202   3.439  18.588  0.00  0.00    +0.000 S 
ATOM     18  O   UNL     1       3.837   2.540  17.508  0.00  0.00    +0.000 OA
ATOM     19  O   UNL     1       4.851   2.957  19.782  0.00  0.00    +0.000 OA
BRANCH  17  20
ATOM     20  N   UNL     1       2.811   4.337  19.016  0.00  0.00    +0.000 NA
ATOM     21  C   UNL     1       2.684   4.768  20.447  0.00  0.00    +0.000 C 
ATOM     22  C   UNL     1       2.248   3.607  21.353  0.00  0.00    +0.000 C 
ATOM     23  O   UNL     1       1.037   2.992  20.889  0.00  0.00    +0.000 OA
ATOM     24  C   UNL     1       1.145   2.548  19.527  0.00  0.00    +0.000 C 
ATOM     25  C   UNL     1       1.512   3.710  18.598  0.00  0.00    +0.000 C 
ENDBRANCH  17  20
ENDBRANCH   3  17
TORSDOF 4
ENDMDL
MODEL 9
REMARK VINA RESULT:      -7.4      4.638      7.258
REMARK  Name = 
REMARK  4 active torsions:
REMARK  status: ('A' for Active; 'I' for Inactive)
REMARK    1  A    between atoms: C_2  and  C_11
REMARK    2  A    between atoms: N_3  and  C_4
REMARK    3  A    between atoms: C_13  and  S_14
REMARK    4  A    between atoms: S_14  and  N_17
REMARK                            x       y       z     vdW  Elec       q    Type
REMARK                         _______ _______ _______ _____ _____    ______ ____
ROOT
ATOM      1  C   UNL     1       2.201   6.455  19.914  0.00  0.00    +0.000 A 
ATOM      2  C   UNL     1       3.081   6.177  18.882  0.00  0.00    +0.000 A 
ATOM      3  C   UNL     1       3.570   4.848  18.915  0.00  0.00    +0.000 A 
ATOM      4  C   UNL     1       3.020   4.130  19.958  0.00  0.00    +0.000 A 
ATOM      5  S   UNL     1       1.965   5.097  20.916  0.00  0.00    +0.000 S 
ENDROOT
BRANCH   1   7
ATOM      6  O   UNL     1       1.843   8.654  19.321  0.00  0.00    +0.000 OA
ATOM      7  C   UNL     1       1.544   7.744  20.088  0.00  0.00    +0.000 C 
ATOM      8  N   UNL     1       0.677   7.899  21.163  0.00  0.00    +0.000 N 
ATOM      9  H   UNL     1       0.565   7.105  21.776  0.00  0.00    +0.000 HD
BRANCH   8  10
ATOM     10  C   UNL     1       0.127   9.146  21.592  0.00  0.00    +0.000 A 
ATOM     11  C   UNL     1      -0.305   9.378  22.903  0.00  0.00    +0.000 A 
ATOM     12  C   UNL     1      -0.944  10.566  23.266  0.00  0.00    +0.000 A 
ATOM     13  C   UNL     1      -1.141  11.559  22.317  0.00  0.00    +0.000 A 
ATOM     14  C   UNL     1      -0.668  11.357  21.028  0.00  0.00    +0.000 A 
ATOM     15  F   UNL     1      -0.850  12.322  20.113  0.00  0.00    +0.000 F 
ATOM     16  C   UNL     1      -0.029  10.171  20.654  0.00  0.00    +0.000 A 
ENDBRANCH   8  10
ENDBRANCH   1   7
BRANCH   3  17
ATOM     17  S   UNL     1       4.748   4.208  17.818  0.00  0.00    +0.000 S 
ATOM     18  O   UNL     1       5.976   4.293  18.588  0.00  0.00    +0.000 OA
ATOM     19  O   UNL     1       4.195   2.935  17.425  0.00  0.00    +0.000 OA
BRANCH  17  20
ATOM     20  N   UNL     1       4.921   5.206  16.442  0.00  0.00    +0.000 NA
ATOM     21  C   UNL     1       5.471   4.576  15.197  0.00  0.00    +0.000 C 
ATOM     22  C   UNL     1       6.992   4.383  15.283  0.00  0.00    +0.000 C 
ATOM     23  O   UNL     1       7.671   5.612  15.583  0.00  0.00    +0.000 OA
ATOM     24  C   UNL     1       7.176   6.222  16.785  0.00  0.00    +0.000 C 
ATOM     25  C   UNL     1       5.670   6.485  16.690  0.00  0.00    +0.000 C 
ENDBRANCH  17  20
ENDBRANCH   3  17
TORSDOF 4
ENDMDL
