MODEL 1
REMARK VINA RESULT:      -8.3      0.000      0.000
REMARK  Name = 
REMARK  6 active torsions:
REMARK  status: ('A' for Active; 'I' for Inactive)
REMARK    1  A    between atoms: C_1  and  C_2
REMARK    2  A    between atoms: C_2  and  C_3
REMARK    3  A    between atoms: C_5  and  C_6
REMARK    4  A    between atoms: C_11  and  S_12
REMARK    5  A    between atoms: S_12  and  C_13
REMARK    6  A    between atoms: C_17  and  C_18
REMARK                            x       y       z     vdW  Elec       q    Type
REMARK                         _______ _______ _______ _____ _____    ______ ____
ROOT
ATOM      1  C   UNL     1       1.666   8.279  20.031  0.00  0.00    +0.000 A 
ATOM      2  S   UNL     1       2.587   6.843  19.912  0.00  0.00    +0.000 S 
ATOM      3  C   UNL     1       2.915   7.062  18.231  0.00  0.00    +0.000 A 
ATOM      4  C   UNL     1       2.210   8.164  17.784  0.00  0.00    +0.000 A 
ATOM      5  C   UNL     1       1.586   8.945  18.819  0.00  0.00    +0.000 A 
ENDROOT
BRANCH   5   6
ATOM      6  C   UNL     1       0.996  10.283  18.644  0.00  0.00    +0.000 C 
ATOM      7  O   UNL     1      -0.204  10.419  18.436  0.00  0.00    +0.000 OA
ATOM      8  N   UNL     1       1.919  11.302  18.701  0.00  0.00    +0.000 N 
ATOM      9  C   UNL     1       1.532  12.609  18.766  0.00  0.00    +0.000 A 
ATOM     10  N   UNL     1       0.349  13.103  19.068  0.00  0.00    +0.000 NA
ATOM     11  C   UNL     1       0.448  14.454  18.992  0.00  0.00    +0.000 A 
ATOM     12  C   UNL     1       1.656  14.961  18.609  0.00  0.00    +0.000 A 
ATOM     13  S   UNL     1       2.791  13.747  18.421  0.00  0.00    +0.000 S 
ATOM     14  C   UNL     1       1.663  16.431  18.482  0.00  0.00    +0.000 C 
ATOM     15  C   UNL     1       0.347  16.790  19.255  0.00  0.00    +0.000 C 
ATOM     16  C   UNL     1      -0.555  15.509  19.241  0.00  0.00    +0.000 C 
ATOM     17  H   UNL     1       2.907  11.115  18.627  0.00  0.00    +0.000 HD
ENDBRANCH   5   6
BRANCH   3  18
ATOM     18  C   UNL     1       3.831   6.127  17.519  0.00  0.00    +0.000 A 
ATOM     19  C   UNL     1       4.995   6.667  16.918  0.00  0.00    +0.000 A 
ATOM     20  C   UNL     1       5.890   5.888  16.178  0.00  0.00    +0.000 A 
ATOM     21  C   UNL     1       5.660   4.533  16.024  0.00  0.00    +0.000 A 
ATOM     22  C   UNL     1       4.541   3.955  16.618  0.00  0.00    +0.000 A 
ATOM     23  C   UNL     1       3.631   4.731  17.364  0.00  0.00    +0.000 A 
BRANCH  23  24
ATOM     24  S   UNL     1       2.224   3.888  18.071  0.00  0.00    +0.000 S 
ATOM     25  C   UNL     1       2.353   2.164  17.707  0.00  0.00    +0.000 C 
ATOM     26  O   UNL     1       2.368   3.978  19.516  0.00  0.00    +0.000 OA
ATOM     27  O   UNL     1       1.042   4.373  17.387  0.00  0.00    +0.000 OA
ENDBRANCH  23  24
ENDBRANCH   3  18
BRANCH   1  29
ATOM     28  C   UNL     1      -0.396   8.349  21.448  0.00  0.00    +0.000 C 
ATOM     29  C   UNL     1       1.088   8.668  21.366  0.00  0.00    +0.000 C 
ENDBRANCH   1  29
TORSDOF 4
ENDMDL
MODEL 2
REMARK VINA RESULT:      -7.9      3.196      4.718
REMARK  Name = 
REMARK  6 active torsions:
REMARK  status: ('A' for Active; 'I' for Inactive)
REMARK    1  A    between atoms: C_1  and  C_2
REMARK    2  A    between atoms: C_2  and  C_3
REMARK    3  A    between atoms: C_5  and  C_6
REMARK    4  A    between atoms: C_11  and  S_12
REMARK    5  A    between atoms: S_12  and  C_13
REMARK    6  A    between atoms: C_17  and  C_18
REMARK                            x       y       z     vdW  Elec       q    Type
REMARK                         _______ _______ _______ _____ _____    ______ ____
ROOT
ATOM      1  C   UNL     1       3.060   4.143  20.040  0.00  0.00    +0.000 A 
ATOM      2  S   UNL     1       4.289   3.431  19.086  0.00  0.00    +0.000 S 
ATOM      3  C   UNL     1       4.267   4.700  17.914  0.00  0.00    +0.000 A 
ATOM      4  C   UNL     1       3.238   5.569  18.225  0.00  0.00    +0.000 A 
ATOM      5  C   UNL     1       2.612   5.338  19.500  0.00  0.00    +0.000 A 
ENDROOT
BRANCH   5   6
ATOM      6  C   UNL     1       1.677   6.255  20.174  0.00  0.00    +0.000 C 
ATOM      7  O   UNL     1       0.896   5.842  21.024  0.00  0.00    +0.000 OA
ATOM      8  N   UNL     1       1.759   7.552  19.724  0.00  0.00    +0.000 N 
ATOM      9  C   UNL     1       1.121   8.570  20.371  0.00  0.00    +0.000 A 
ATOM     10  N   UNL     1       0.613   8.584  21.587  0.00  0.00    +0.000 NA
ATOM     11  C   UNL     1       0.074   9.813  21.783  0.00  0.00    +0.000 A 
ATOM     12  C   UNL     1       0.140  10.687  20.735  0.00  0.00    +0.000 A 
ATOM     13  S   UNL     1       0.995  10.034  19.455  0.00  0.00    +0.000 S 
ATOM     14  C   UNL     1      -0.529  11.974  21.001  0.00  0.00    +0.000 C 
ATOM     15  C   UNL     1      -0.673  11.904  22.561  0.00  0.00    +0.000 C 
ATOM     16  C   UNL     1      -0.609  10.390  22.958  0.00  0.00    +0.000 C 
ATOM     17  H   UNL     1       2.235   7.777  18.865  0.00  0.00    +0.000 HD
ENDBRANCH   5   6
BRANCH   3  18
ATOM     18  C   UNL     1       5.263   4.713  16.806  0.00  0.00    +0.000 A 
ATOM     19  C   UNL     1       4.829   4.315  15.518  0.00  0.00    +0.000 A 
ATOM     20  C   UNL     1       5.694   4.236  14.423  0.00  0.00    +0.000 A 
ATOM     21  C   UNL     1       7.029   4.569  14.575  0.00  0.00    +0.000 A 
ATOM     22  C   UNL     1       7.494   4.989  15.817  0.00  0.00    +0.000 A 
ATOM     23  C   UNL     1       6.631   5.070  16.929  0.00  0.00    +0.000 A 
BRANCH  23  24
ATOM     24  S   UNL     1       7.338   5.610  18.477  0.00  0.00    +0.000 S 
ATOM     25  C   UNL     1       8.055   7.208  18.248  0.00  0.00    +0.000 C 
ATOM     26  O   UNL     1       6.226   5.824  19.391  0.00  0.00    +0.000 OA
ATOM     27  O   UNL     1       8.425   4.705  18.793  0.00  0.00    +0.000 OA
ENDBRANCH  23  24
ENDBRANCH   3  18
BRANCH   1  29
ATOM     28  C   UNL     1       1.422   2.563  21.079  0.00  0.00    +0.000 C 
ATOM     29  C   UNL     1       2.630   3.456  21.308  0.00  0.00    +0.000 C 
ENDBRANCH   1  29
TORSDOF 4
ENDMDL
MODEL 3
REMARK VINA RESULT:      -7.9      3.159      4.765
REMARK  Name = 
REMARK  6 active torsions:
REMARK  status: ('A' for Active; 'I' for Inactive)
REMARK    1  A    between atoms: C_1  and  C_2
REMARK    2  A    between atoms: C_2  and  C_3
REMARK    3  A    between atoms: C_5  and  C_6
REMARK    4  A    between atoms: C_11  and  S_12
REMARK    5  A    between atoms: S_12  and  C_13
REMARK    6  A    between atoms: C_17  and  C_18
REMARK                            x       y       z     vdW  Elec       q    Type
REMARK                         _______ _______ _______ _____ _____    ______ ____
ROOT
ATOM      1  C   UNL     1       3.312   4.116  19.696  0.00  0.00    +0.000 A 
ATOM      2  S   UNL     1       4.495   3.442  18.661  0.00  0.00    +0.000 S 
ATOM      3  C   UNL     1       4.332   4.690  17.479  0.00  0.00    +0.000 A 
ATOM      4  C   UNL     1       3.293   5.520  17.855  0.00  0.00    +0.000 A 
ATOM      5  C   UNL     1       2.775   5.283  19.177  0.00  0.00    +0.000 A 
ENDROOT
BRANCH   5   6
ATOM      6  C   UNL     1       1.854   6.170  19.908  0.00  0.00    +0.000 C 
ATOM      7  O   UNL     1       1.146   5.736  20.808  0.00  0.00    +0.000 OA
ATOM      8  N   UNL     1       1.861   7.467  19.450  0.00  0.00    +0.000 N 
ATOM      9  C   UNL     1       1.232   8.466  20.135  0.00  0.00    +0.000 A 
ATOM     10  N   UNL     1       0.805   8.469  21.381  0.00  0.00    +0.000 NA
ATOM     11  C   UNL     1       0.238   9.680  21.609  0.00  0.00    +0.000 A 
ATOM     12  C   UNL     1       0.205  10.550  20.557  0.00  0.00    +0.000 A 
ATOM     13  S   UNL     1       0.996   9.920  19.225  0.00  0.00    +0.000 S 
ATOM     14  C   UNL     1      -0.490  11.815  20.862  0.00  0.00    +0.000 C 
ATOM     15  C   UNL     1      -0.529  11.747  22.428  0.00  0.00    +0.000 C 
ATOM     16  C   UNL     1      -0.387  10.238  22.824  0.00  0.00    +0.000 C 
ATOM     17  H   UNL     1       2.273   7.704  18.561  0.00  0.00    +0.000 HD
ENDBRANCH   5   6
BRANCH   3  18
ATOM     18  C   UNL     1       5.241   4.728  16.299  0.00  0.00    +0.000 A 
ATOM     19  C   UNL     1       4.973   3.842  15.226  0.00  0.00    +0.000 A 
ATOM     20  C   UNL     1       5.795   3.756  14.098  0.00  0.00    +0.000 A 
ATOM     21  C   UNL     1       6.912   4.566  13.997  0.00  0.00    +0.000 A 
ATOM     22  C   UNL     1       7.200   5.468  15.016  0.00  0.00    +0.000 A 
ATOM     23  C   UNL     1       6.380   5.562  16.159  0.00  0.00    +0.000 A 
BRANCH  23  24
ATOM     24  S   UNL     1       6.851   6.746  17.411  0.00  0.00    +0.000 S 
ATOM     25  C   UNL     1       7.397   5.870  18.844  0.00  0.00    +0.000 C 
ATOM     26  O   UNL     1       8.037   7.427  16.913  0.00  0.00    +0.000 OA
ATOM     27  O   UNL     1       5.655   7.469  17.792  0.00  0.00    +0.000 OA
ENDBRANCH  23  24
ENDBRANCH   3  18
BRANCH   1  29
ATOM     28  C   UNL     1       1.812   2.502  20.881  0.00  0.00    +0.000 C 
ATOM     29  C   UNL     1       3.008   3.432  21.002  0.00  0.00    +0.000 C 
ENDBRANCH   1  29
TORSDOF 4
ENDMDL
MODEL 4
REMARK VINA RESULT:      -7.7      2.707      3.838
REMARK  Name = 
REMARK  6 active torsions:
REMARK  status: ('A' for Active; 'I' for Inactive)
REMARK    1  A    between atoms: C_1  and  C_2
REMARK    2  A    between atoms: C_2  and  C_3
REMARK    3  A    between atoms: C_5  and  C_6
REMARK    4  A    between atoms: C_11  and  S_12
REMARK    5  A    between atoms: S_12  and  C_13
REMARK    6  A    between atoms: C_17  and  C_18
REMARK                            x       y       z     vdW  Elec       q    Type
REMARK                         _______ _______ _______ _____ _____    ______ ____
ROOT
ATOM      1  C   UNL     1       2.292   5.219  19.376  0.00  0.00    +0.000 A 
ATOM      2  S   UNL     1       3.251   4.128  18.473  0.00  0.00    +0.000 S 
ATOM      3  C   UNL     1       3.959   5.375  17.511  0.00  0.00    +0.000 A 
ATOM      4  C   UNL     1       3.351   6.575  17.827  0.00  0.00    +0.000 A 
ATOM      5  C   UNL     1       2.482   6.531  18.973  0.00  0.00    +0.000 A 
ENDROOT
BRANCH   5   6
ATOM      6  C   UNL     1       1.916   7.702  19.665  0.00  0.00    +0.000 C 
ATOM      7  O   UNL     1       2.085   7.862  20.868  0.00  0.00    +0.000 OA
ATOM      8  N   UNL     1       1.182   8.524  18.842  0.00  0.00    +0.000 N 
ATOM      9  C   UNL     1       0.761   9.754  19.259  0.00  0.00    +0.000 A 
ATOM     10  N   UNL     1       1.176  10.461  20.290  0.00  0.00    +0.000 NA
ATOM     11  C   UNL     1       0.456  11.611  20.304  0.00  0.00    +0.000 A 
ATOM     12  C   UNL     1      -0.498  11.750  19.337  0.00  0.00    +0.000 A 
ATOM     13  S   UNL     1      -0.471  10.463  18.270  0.00  0.00    +0.000 S 
ATOM     14  C   UNL     1      -1.285  12.991  19.463  0.00  0.00    +0.000 C 
ATOM     15  C   UNL     1      -0.376  13.807  20.446  0.00  0.00    +0.000 C 
ATOM     16  C   UNL     1       0.507  12.769  21.218  0.00  0.00    +0.000 C 
ATOM     17  H   UNL     1       0.877   8.215  17.933  0.00  0.00    +0.000 HD
ENDBRANCH   5   6
BRANCH   3  18
ATOM     18  C   UNL     1       5.040   5.047  16.539  0.00  0.00    +0.000 A 
ATOM     19  C   UNL     1       4.663   4.690  15.221  0.00  0.00    +0.000 A 
ATOM     20  C   UNL     1       5.592   4.310  14.248  0.00  0.00    +0.000 A 
ATOM     21  C   UNL     1       6.941   4.287  14.557  0.00  0.00    +0.000 A 
ATOM     22  C   UNL     1       7.359   4.654  15.832  0.00  0.00    +0.000 A 
ATOM     23  C   UNL     1       6.430   5.037  16.822  0.00  0.00    +0.000 A 
BRANCH  23  24
ATOM     24  S   UNL     1       7.078   5.476  18.427  0.00  0.00    +0.000 S 
ATOM     25  C   UNL     1       7.805   7.082  18.326  0.00  0.00    +0.000 C 
ATOM     26  O   UNL     1       5.931   5.637  19.308  0.00  0.00    +0.000 OA
ATOM     27  O   UNL     1       8.150   4.549  18.728  0.00  0.00    +0.000 OA
ENDBRANCH  23  24
ENDBRANCH   3  18
BRANCH   1  29
ATOM     28  C   UNL     1       1.105   3.206  20.271  0.00  0.00    +0.000 C 
ATOM     29  C   UNL     1       1.407   4.682  20.469  0.00  0.00    +0.000 C 
ENDBRANCH   1  29
TORSDOF 4
ENDMDL
MODEL 5
REMARK VINA RESULT:      -7.6      3.090      4.199
REMARK  Name = 
REMARK  6 active torsions:
REMARK  status: ('A' for Active; 'I' for Inactive)
REMARK    1  A    between atoms: C_1  and  C_2
REMARK    2  A    between atoms: C_2  and  C_3
REMARK    3  A    between atoms: C_5  and  C_6
REMARK    4  A    between atoms: C_11  and  S_12
REMARK    5  A    between atoms: S_12  and  C_13
REMARK    6  A    between atoms: C_17  and  C_18
REMARK                            x       y       z     vdW  Elec       q    Type
REMARK                         _______ _______ _______ _____ _____    ______ ____
ROOT
ATOM      1  C   UNL     1       2.453   5.894  19.317  0.00  0.00    +0.000 A 
ATOM      2  S   UNL     1       3.451   4.671  18.658  0.00  0.00    +0.000 S 
ATOM      3  C   UNL     1       4.058   5.689  17.402  0.00  0.00    +0.000 A 
ATOM      4  C   UNL     1       3.388   6.898  17.452  0.00  0.00    +0.000 A 
ATOM      5  C   UNL     1       2.554   7.081  18.610  0.00  0.00    +0.000 A 
ENDROOT
BRANCH   5   6
ATOM      6  C   UNL     1       1.939   8.352  19.030  0.00  0.00    +0.000 C 
ATOM      7  O   UNL     1       2.000   9.345  18.315  0.00  0.00    +0.000 OA
ATOM      8  N   UNL     1       1.356   8.296  20.274  0.00  0.00    +0.000 N 
ATOM      9  C   UNL     1       0.564   9.308  20.735  0.00  0.00    +0.000 A 
ATOM     10  N   UNL     1       0.002  10.288  20.057  0.00  0.00    +0.000 NA
ATOM     11  C   UNL     1      -0.681  11.051  20.947  0.00  0.00    +0.000 A 
ATOM     12  C   UNL     1      -0.606  10.680  22.259  0.00  0.00    +0.000 A 
ATOM     13  S   UNL     1       0.259   9.260  22.439  0.00  0.00    +0.000 S 
ATOM     14  C   UNL     1      -1.315  11.598  23.170  0.00  0.00    +0.000 C 
ATOM     15  C   UNL     1      -2.198  12.391  22.145  0.00  0.00    +0.000 C 
ATOM     16  C   UNL     1      -1.504  12.260  20.747  0.00  0.00    +0.000 C 
ATOM     17  H   UNL     1       1.551   7.537  20.908  0.00  0.00    +0.000 HD
ENDBRANCH   5   6
BRANCH   3  18
ATOM     18  C   UNL     1       5.130   5.197  16.492  0.00  0.00    +0.000 A 
ATOM     19  C   UNL     1       4.756   4.773  15.193  0.00  0.00    +0.000 A 
ATOM     20  C   UNL     1       5.673   4.241  14.281  0.00  0.00    +0.000 A 
ATOM     21  C   UNL     1       7.006   4.128  14.633  0.00  0.00    +0.000 A 
ATOM     22  C   UNL     1       7.423   4.555  15.890  0.00  0.00    +0.000 A 
ATOM     23  C   UNL     1       6.506   5.090  16.818  0.00  0.00    +0.000 A 
BRANCH  23  24
ATOM     24  S   UNL     1       7.150   5.595  18.407  0.00  0.00    +0.000 S 
ATOM     25  C   UNL     1       7.841   7.213  18.251  0.00  0.00    +0.000 C 
ATOM     26  O   UNL     1       6.003   5.759  19.287  0.00  0.00    +0.000 OA
ATOM     27  O   UNL     1       8.243   4.701  18.732  0.00  0.00    +0.000 OA
ENDBRANCH  23  24
ENDBRANCH   3  18
BRANCH   1  29
ATOM     28  C   UNL     1       1.085   4.169  20.507  0.00  0.00    +0.000 C 
ATOM     29  C   UNL     1       1.632   5.587  20.540  0.00  0.00    +0.000 C 
ENDBRANCH   1  29
TORSDOF 4
ENDMDL
MODEL 6
REMARK VINA RESULT:      -7.5      3.089      9.119
REMARK  Name = 
REMARK  6 active torsions:
REMARK  status: ('A' for Active; 'I' for Inactive)
REMARK    1  A    between atoms: C_1  and  C_2
REMARK    2  A    between atoms: C_2  and  C_3
REMARK    3  A    between atoms: C_5  and  C_6
REMARK    4  A    between atoms: C_11  and  S_12
REMARK    5  A    between atoms: S_12  and  C_13
REMARK    6  A    between atoms: C_17  and  C_18
REMARK                            x       y       z     vdW  Elec       q    Type
REMARK                         _______ _______ _______ _____ _____    ______ ____
ROOT
ATOM      1  C   UNL     1      -0.875  10.324  18.339  0.00  0.00    +0.000 A 
ATOM      2  S   UNL     1      -1.805  11.379  19.312  0.00  0.00    +0.000 S 
ATOM      3  C   UNL     1      -0.542  11.602  20.469  0.00  0.00    +0.000 A 
ATOM      4  C   UNL     1       0.510  10.769  20.139  0.00  0.00    +0.000 A 
ATOM      5  C   UNL     1       0.391  10.119  18.861  0.00  0.00    +0.000 A 
ENDROOT
BRANCH   5   6
ATOM      6  C   UNL     1       1.467   9.389  18.168  0.00  0.00    +0.000 C 
ATOM      7  O   UNL     1       2.172   9.950  17.337  0.00  0.00    +0.000 OA
ATOM      8  N   UNL     1       1.548   8.063  18.522  0.00  0.00    +0.000 N 
ATOM      9  C   UNL     1       2.606   7.288  18.141  0.00  0.00    +0.000 A 
ATOM     10  N   UNL     1       3.779   7.667  17.680  0.00  0.00    +0.000 NA
ATOM     11  C   UNL     1       4.495   6.542  17.430  0.00  0.00    +0.000 A 
ATOM     12  C   UNL     1       3.867   5.351  17.661  0.00  0.00    +0.000 A 
ATOM     13  S   UNL     1       2.347   5.585  18.319  0.00  0.00    +0.000 S 
ATOM     14  C   UNL     1       4.683   4.177  17.299  0.00  0.00    +0.000 C 
ATOM     15  C   UNL     1       6.099   4.839  17.183  0.00  0.00    +0.000 C 
ATOM     16  C   UNL     1       5.869   6.366  16.921  0.00  0.00    +0.000 C 
ATOM     17  H   UNL     1       0.796   7.608  19.016  0.00  0.00    +0.000 HD
ENDBRANCH   5   6
BRANCH   3  18
ATOM     18  C   UNL     1      -0.713  12.574  21.586  0.00  0.00    +0.000 A 
ATOM     19  C   UNL     1      -1.750  12.334  22.522  0.00  0.00    +0.000 A 
ATOM     20  C   UNL     1      -2.033  13.211  23.573  0.00  0.00    +0.000 A 
ATOM     21  C   UNL     1      -1.276  14.358  23.735  0.00  0.00    +0.000 A 
ATOM     22  C   UNL     1      -0.232  14.622  22.853  0.00  0.00    +0.000 A 
ATOM     23  C   UNL     1       0.061  13.745  21.788  0.00  0.00    +0.000 A 
BRANCH  23  24
ATOM     24  S   UNL     1       1.415  14.189  20.711  0.00  0.00    +0.000 S 
ATOM     25  C   UNL     1       1.942  15.828  21.106  0.00  0.00    +0.000 C 
ATOM     26  O   UNL     1       2.535  13.335  21.078  0.00  0.00    +0.000 OA
ATOM     27  O   UNL     1       0.894  14.231  19.359  0.00  0.00    +0.000 OA
ENDBRANCH  23  24
ENDBRANCH   3  18
BRANCH   1  29
ATOM     28  C   UNL     1      -2.996   9.865  17.092  0.00  0.00    +0.000 C 
ATOM     29  C   UNL     1      -1.479   9.774  17.074  0.00  0.00    +0.000 C 
ENDBRANCH   1  29
TORSDOF 4
ENDMDL
MODEL 7
REMARK VINA RESULT:      -7.3      2.994      9.185
REMARK  Name = 
REMARK  6 active torsions:
REMARK  status: ('A' for Active; 'I' for Inactive)
REMARK    1  A    between atoms: C_1  and  C_2
REMARK    2  A    between atoms: C_2  and  C_3
REMARK    3  A    between atoms: C_5  and  C_6
REMARK    4  A    between atoms: C_11  and  S_12
REMARK    5  A    between atoms: S_12  and  C_13
REMARK    6  A    between atoms: C_17  and  C_18
REMARK                            x       y       z     vdW  Elec       q    Type
REMARK                         _______ _______ _______ _____ _____    ______ ____
ROOT
ATOM      1  C   UNL     1      -0.329  10.821  19.136  0.00  0.00    +0.000 A 
ATOM      2  S   UNL     1      -0.341  12.427  18.548  0.00  0.00    +0.000 S 
ATOM      3  C   UNL     1       1.131  12.847  19.346  0.00  0.00    +0.000 A 
ATOM      4  C   UNL     1       1.525  11.783  20.135  0.00  0.00    +0.000 A 
ATOM      5  C   UNL     1       0.772  10.572  19.939  0.00  0.00    +0.000 A 
ENDROOT
BRANCH   5   6
ATOM      6  C   UNL     1       1.137   9.243  20.459  0.00  0.00    +0.000 C 
ATOM      7  O   UNL     1       0.868   8.923  21.610  0.00  0.00    +0.000 OA
ATOM      8  N   UNL     1       1.817   8.466  19.550  0.00  0.00    +0.000 N 
ATOM      9  C   UNL     1       2.052   7.141  19.782  0.00  0.00    +0.000 A 
ATOM     10  N   UNL     1       1.481   6.346  20.664  0.00  0.00    +0.000 NA
ATOM     11  C   UNL     1       2.049   5.122  20.527  0.00  0.00    +0.000 A 
ATOM     12  C   UNL     1       3.042   5.006  19.597  0.00  0.00    +0.000 A 
ATOM     13  S   UNL     1       3.250   6.434  18.751  0.00  0.00    +0.000 S 
ATOM     14  C   UNL     1       3.657   3.666  19.558  0.00  0.00    +0.000 C 
ATOM     15  C   UNL     1       2.587   2.838  20.351  0.00  0.00    +0.000 C 
ATOM     16  C   UNL     1       1.790   3.854  21.238  0.00  0.00    +0.000 C 
ATOM     17  H   UNL     1       2.221   8.868  18.719  0.00  0.00    +0.000 HD
ENDBRANCH   5   6
BRANCH   3  18
ATOM     18  C   UNL     1       1.752  14.183  19.118  0.00  0.00    +0.000 A 
ATOM     19  C   UNL     1       2.618  14.332  18.007  0.00  0.00    +0.000 A 
ATOM     20  C   UNL     1       3.296  15.524  17.735  0.00  0.00    +0.000 A 
ATOM     21  C   UNL     1       3.119  16.620  18.562  0.00  0.00    +0.000 A 
ATOM     22  C   UNL     1       2.258  16.526  19.651  0.00  0.00    +0.000 A 
ATOM     23  C   UNL     1       1.572  15.328  19.936  0.00  0.00    +0.000 A 
BRANCH  23  24
ATOM     24  S   UNL     1       0.503  15.317  21.367  0.00  0.00    +0.000 S 
ATOM     25  C   UNL     1       0.492  16.933  22.080  0.00  0.00    +0.000 C 
ATOM     26  O   UNL     1      -0.851  15.116  20.873  0.00  0.00    +0.000 OA
ATOM     27  O   UNL     1       1.101  14.431  22.345  0.00  0.00    +0.000 OA
ENDBRANCH  23  24
ENDBRANCH   3  18
BRANCH   1  29
ATOM     28  C   UNL     1      -1.793  10.045  17.260  0.00  0.00    +0.000 C 
ATOM     29  C   UNL     1      -1.435   9.885  18.729  0.00  0.00    +0.000 C 
ENDBRANCH   1  29
TORSDOF 4
ENDMDL
MODEL 8
REMARK VINA RESULT:      -7.2      3.764      9.221
REMARK  Name = 
REMARK  6 active torsions:
REMARK  status: ('A' for Active; 'I' for Inactive)
REMARK    1  A    between atoms: C_1  and  C_2
REMARK    2  A    between atoms: C_2  and  C_3
REMARK    3  A    between atoms: C_5  and  C_6
REMARK    4  A    between atoms: C_11  and  S_12
REMARK    5  A    between atoms: S_12  and  C_13
REMARK    6  A    between atoms: C_17  and  C_18
REMARK                            x       y       z     vdW  Elec       q    Type
REMARK                         _______ _______ _______ _____ _____    ______ ____
ROOT
ATOM      1  C   UNL     1       0.653  11.639  18.785  0.00  0.00    +0.000 A 
ATOM      2  S   UNL     1      -0.652  12.714  18.523  0.00  0.00    +0.000 S 
ATOM      3  C   UNL     1      -1.849  11.494  18.768  0.00  0.00    +0.000 A 
ATOM      4  C   UNL     1      -1.213  10.277  18.925  0.00  0.00    +0.000 A 
ATOM      5  C   UNL     1       0.218  10.353  19.058  0.00  0.00    +0.000 A 
ENDROOT
BRANCH   5   6
ATOM      6  C   UNL     1       1.099   9.250  19.481  0.00  0.00    +0.000 C 
ATOM      7  O   UNL     1       1.158   8.909  20.656  0.00  0.00    +0.000 OA
ATOM      8  N   UNL     1       1.836   8.711  18.452  0.00  0.00    +0.000 N 
ATOM      9  C   UNL     1       2.544   7.556  18.614  0.00  0.00    +0.000 A 
ATOM     10  N   UNL     1       2.441   6.654  19.568  0.00  0.00    +0.000 NA
ATOM     11  C   UNL     1       3.360   5.690  19.310  0.00  0.00    +0.000 A 
ATOM     12  C   UNL     1       4.157   5.878  18.217  0.00  0.00    +0.000 A 
ATOM     13  S   UNL     1       3.715   7.253  17.375  0.00  0.00    +0.000 S 
ATOM     14  C   UNL     1       5.175   4.825  18.045  0.00  0.00    +0.000 C 
ATOM     15  C   UNL     1       4.606   3.719  18.999  0.00  0.00    +0.000 C 
ATOM     16  C   UNL     1       3.676   4.441  20.032  0.00  0.00    +0.000 C 
ATOM     17  H   UNL     1       1.928   9.190  17.570  0.00  0.00    +0.000 HD
ENDBRANCH   5   6
BRANCH   3  18
ATOM     18  C   UNL     1      -3.295  11.855  18.781  0.00  0.00    +0.000 A 
ATOM     19  C   UNL     1      -4.080  11.491  17.660  0.00  0.00    +0.000 A 
ATOM     20  C   UNL     1      -5.431  11.831  17.544  0.00  0.00    +0.000 A 
ATOM     21  C   UNL     1      -6.051  12.540  18.557  0.00  0.00    +0.000 A 
ATOM     22  C   UNL     1      -5.324  12.899  19.688  0.00  0.00    +0.000 A 
ATOM     23  C   UNL     1      -3.961  12.563  19.814  0.00  0.00    +0.000 A 
BRANCH  23  24
ATOM     24  S   UNL     1      -3.123  13.085  21.303  0.00  0.00    +0.000 S 
ATOM     25  C   UNL     1      -4.326  13.341  22.571  0.00  0.00    +0.000 C 
ATOM     26  O   UNL     1      -2.335  11.948  21.757  0.00  0.00    +0.000 OA
ATOM     27  O   UNL     1      -2.521  14.374  21.030  0.00  0.00    +0.000 OA
ENDBRANCH  23  24
ENDBRANCH   3  18
BRANCH   1  29
ATOM     28  C   UNL     1       2.121  13.644  19.085  0.00  0.00    +0.000 C 
ATOM     29  C   UNL     1       2.061  12.170  18.722  0.00  0.00    +0.000 C 
ENDBRANCH   1  29
TORSDOF 4
ENDMDL
MODEL 9
REMARK VINA RESULT:      -7.2      3.542      9.304
REMARK  Name = 
REMARK  6 active torsions:
REMARK  status: ('A' for Active; 'I' for Inactive)
REMARK    1  A    between atoms: C_1  and  C_2
REMARK    2  A    between atoms: C_2  and  C_3
REMARK    3  A    between atoms: C_5  and  C_6
REMARK    4  A    between atoms: C_11  and  S_12
REMARK    5  A    between atoms: S_12  and  C_13
REMARK    6  A    between atoms: C_17  and  C_18
REMARK                            x       y       z     vdW  Elec       q    Type
REMARK                         _______ _______ _______ _____ _____    ______ ____
ROOT
ATOM      1  C   UNL     1      -0.313  10.404  19.145  0.00  0.00    +0.000 A 
ATOM      2  S   UNL     1      -0.919  11.977  19.440  0.00  0.00    +0.000 S 
ATOM      3  C   UNL     1      -0.228  12.066  21.020  0.00  0.00    +0.000 A 
ATOM      4  C   UNL     1       0.344  10.844  21.321  0.00  0.00    +0.000 A 
ATOM      5  C   UNL     1       0.413   9.919  20.220  0.00  0.00    +0.000 A 
ENDROOT
BRANCH   5   6
ATOM      6  C   UNL     1       1.186   8.665  20.202  0.00  0.00    +0.000 C 
ATOM      7  O   UNL     1       1.188   7.915  21.170  0.00  0.00    +0.000 OA
ATOM      8  N   UNL     1       1.898   8.476  19.040  0.00  0.00    +0.000 N 
ATOM      9  C   UNL     1       2.502   7.283  18.763  0.00  0.00    +0.000 A 
ATOM     10  N   UNL     1       2.299   6.108  19.322  0.00  0.00    +0.000 NA
ATOM     11  C   UNL     1       3.138   5.228  18.721  0.00  0.00    +0.000 A 
ATOM     12  C   UNL     1       3.974   5.731  17.765  0.00  0.00    +0.000 A 
ATOM     13  S   UNL     1       3.671   7.352  17.488  0.00  0.00    +0.000 S 
ATOM     14  C   UNL     1       4.903   4.728  17.211  0.00  0.00    +0.000 C 
ATOM     15  C   UNL     1       4.219   3.405  17.701  0.00  0.00    +0.000 C 
ATOM     16  C   UNL     1       3.329   3.780  18.934  0.00  0.00    +0.000 C 
ATOM     17  H   UNL     1       2.052   9.234  18.394  0.00  0.00    +0.000 HD
ENDBRANCH   5   6
BRANCH   3  18
ATOM     18  C   UNL     1      -0.318  13.328  21.806  0.00  0.00    +0.000 A 
ATOM     19  C   UNL     1       0.724  14.277  21.663  0.00  0.00    +0.000 A 
ATOM     20  C   UNL     1       0.766  15.466  22.397  0.00  0.00    +0.000 A 
ATOM     21  C   UNL     1      -0.246  15.757  23.294  0.00  0.00    +0.000 A 
ATOM     22  C   UNL     1      -1.303  14.865  23.449  0.00  0.00    +0.000 A 
ATOM     23  C   UNL     1      -1.354  13.662  22.716  0.00  0.00    +0.000 A 
BRANCH  23  24
ATOM     24  S   UNL     1      -2.751  12.587  23.004  0.00  0.00    +0.000 S 
ATOM     25  C   UNL     1      -3.745  13.278  24.291  0.00  0.00    +0.000 C 
ATOM     26  O   UNL     1      -3.581  12.654  21.811  0.00  0.00    +0.000 OA
ATOM     27  O   UNL     1      -2.232  11.330  23.506  0.00  0.00    +0.000 OA
ENDBRANCH  23  24
ENDBRANCH   3  18
BRANCH   1  29
ATOM     28  C   UNL     1      -2.008  10.026  17.343  0.00  0.00    +0.000 C 
ATOM     29  C   UNL     1      -0.591   9.752  17.817  0.00  0.00    +0.000 C 
ENDBRANCH   1  29
TORSDOF 4
ENDMDL
