MODEL 1
REMARK VINA RESULT:      -7.7      0.000      0.000
REMARK  Name = 
REMARK  7 active torsions:
REMARK  status: ('A' for Active; 'I' for Inactive)
REMARK    1  A    between atoms: C_1  and  C_2
REMARK    2  A    between atoms: C_2  and  C_3
REMARK    3  A    between atoms: C_2  and  C_4
REMARK    4  A    between atoms: C_2  and  C_5
REMARK    5  A    between atoms: N_7  and  C_8
REMARK    6  A    between atoms: C_16  and  C_17
REMARK    7  A    between atoms: C_20  and  O_21
REMARK                            x       y       z     vdW  Elec       q    Type
REMARK                         _______ _______ _______ _____ _____    ______ ____
ROOT
ATOM      1  C   UNL     1       5.732   6.003  18.155  0.00  0.00    +0.000 C 
ATOM      2  N   UNL     1       4.841   6.924  17.953  0.00  0.00    +0.000 NA
ATOM      3  N   UNL     1       3.788   6.654  18.773  0.00  0.00    +0.000 N 
ATOM      4  C   UNL     1       3.958   5.442  19.572  0.00  0.00    +0.000 C 
ATOM      5  C   UNL     1       5.338   4.938  19.145  0.00  0.00    +0.000 C 
ENDROOT
BRANCH   3   6
ATOM      6  C   UNL     1       2.724   7.542  18.875  0.00  0.00    +0.000 A 
ATOM      7  C   UNL     1       2.314   8.289  17.756  0.00  0.00    +0.000 A 
ATOM      8  C   UNL     1       1.220   9.156  17.816  0.00  0.00    +0.000 A 
ATOM      9  C   UNL     1       0.541   9.321  19.016  0.00  0.00    +0.000 A 
ATOM     10  F   UNL     1      -0.501  10.163  19.060  0.00  0.00    +0.000 F 
ATOM     11  C   UNL     1       0.941   8.617  20.146  0.00  0.00    +0.000 A 
ATOM     12 CL   UNL     1       0.127   8.834  21.649  0.00  0.00    +0.000 Cl
ATOM     13  C   UNL     1       2.016   7.728  20.074  0.00  0.00    +0.000 A 
ENDBRANCH   3   6
BRANCH   4  14
ATOM     14  C   UNL     1       2.847   4.443  19.287  0.00  0.00    +0.000 A 
ATOM     15  C   UNL     1       1.883   4.124  20.263  0.00  0.00    +0.000 A 
ATOM     16  C   UNL     1       0.881   3.188  20.001  0.00  0.00    +0.000 A 
ATOM     17  C   UNL     1       0.845   2.556  18.764  0.00  0.00    +0.000 A 
ATOM     18  C   UNL     1       1.793   2.843  17.790  0.00  0.00    +0.000 A 
ATOM     19  C   UNL     1       2.791   3.784  18.048  0.00  0.00    +0.000 A 
BRANCH  17  20
ATOM     20  O   UNL     1      -0.114   1.634  18.466  0.00  0.00    +0.000 OA
ATOM     21  H   UNL     1       0.140   1.180  17.646  0.00  0.00    +0.000 HD
ENDBRANCH  17  20
ENDBRANCH   4  14
BRANCH   1  23
ATOM     22  C   UNL     1       8.028   4.967  18.115  0.00  0.00    +0.000 C 
ATOM     23  C   UNL     1       7.088   5.988  17.452  0.00  0.00    +0.000 C 
ATOM     24  C   UNL     1       7.727   7.380  17.537  0.00  0.00    +0.000 C 
ATOM     25  C   UNL     1       6.896   5.594  15.980  0.00  0.00    +0.000 C 
ENDBRANCH   1  23
TORSDOF 4
ENDMDL
MODEL 2
REMARK VINA RESULT:      -7.6      0.542      1.439
REMARK  Name = 
REMARK  7 active torsions:
REMARK  status: ('A' for Active; 'I' for Inactive)
REMARK    1  A    between atoms: C_1  and  C_2
REMARK    2  A    between atoms: C_2  and  C_3
REMARK    3  A    between atoms: C_2  and  C_4
REMARK    4  A    between atoms: C_2  and  C_5
REMARK    5  A    between atoms: N_7  and  C_8
REMARK    6  A    between atoms: C_16  and  C_17
REMARK    7  A    between atoms: C_20  and  O_21
REMARK                            x       y       z     vdW  Elec       q    Type
REMARK                         _______ _______ _______ _____ _____    ______ ____
ROOT
ATOM      1  C   UNL     1       5.573   6.058  17.867  0.00  0.00    +0.000 C 
ATOM      2  N   UNL     1       4.665   6.966  17.680  0.00  0.00    +0.000 NA
ATOM      3  N   UNL     1       3.740   6.822  18.668  0.00  0.00    +0.000 N 
ATOM      4  C   UNL     1       4.018   5.714  19.580  0.00  0.00    +0.000 C 
ATOM      5  C   UNL     1       5.321   5.132  19.028  0.00  0.00    +0.000 C 
ENDROOT
BRANCH   3   6
ATOM      6  C   UNL     1       2.705   7.738  18.808  0.00  0.00    +0.000 A 
ATOM      7  C   UNL     1       2.316   8.542  17.722  0.00  0.00    +0.000 A 
ATOM      8  C   UNL     1       1.251   9.440  17.819  0.00  0.00    +0.000 A 
ATOM      9  C   UNL     1       0.578   9.577  19.027  0.00  0.00    +0.000 A 
ATOM     10  F   UNL     1      -0.437  10.449  19.108  0.00  0.00    +0.000 F 
ATOM     11  C   UNL     1       0.957   8.816  20.127  0.00  0.00    +0.000 A 
ATOM     12 CL   UNL     1       0.152   8.997  21.639  0.00  0.00    +0.000 Cl
ATOM     13  C   UNL     1       2.004   7.897  20.016  0.00  0.00    +0.000 A 
ENDBRANCH   3   6
BRANCH   4  14
ATOM     14  C   UNL     1       2.874   4.711  19.582  0.00  0.00    +0.000 A 
ATOM     15  C   UNL     1       2.377   4.168  18.382  0.00  0.00    +0.000 A 
ATOM     16  C   UNL     1       1.311   3.267  18.390  0.00  0.00    +0.000 A 
ATOM     17  C   UNL     1       0.727   2.914  19.601  0.00  0.00    +0.000 A 
ATOM     18  C   UNL     1       1.189   3.447  20.797  0.00  0.00    +0.000 A 
ATOM     19  C   UNL     1       2.261   4.342  20.790  0.00  0.00    +0.000 A 
BRANCH  17  20
ATOM     20  O   UNL     1      -0.318   2.039  19.657  0.00  0.00    +0.000 OA
ATOM     21  H   UNL     1      -0.857   2.153  18.857  0.00  0.00    +0.000 HD
ENDBRANCH  17  20
ENDBRANCH   4  14
BRANCH   1  23
ATOM     22  C   UNL     1       6.412   5.727  15.515  0.00  0.00    +0.000 C 
ATOM     23  C   UNL     1       6.813   5.928  16.986  0.00  0.00    +0.000 C 
ATOM     24  C   UNL     1       7.645   4.723  17.443  0.00  0.00    +0.000 C 
ATOM     25  C   UNL     1       7.654   7.210  17.095  0.00  0.00    +0.000 C 
ENDBRANCH   1  23
TORSDOF 4
ENDMDL
MODEL 3
REMARK VINA RESULT:      -7.5      2.534      4.974
REMARK  Name = 
REMARK  7 active torsions:
REMARK  status: ('A' for Active; 'I' for Inactive)
REMARK    1  A    between atoms: C_1  and  C_2
REMARK    2  A    between atoms: C_2  and  C_3
REMARK    3  A    between atoms: C_2  and  C_4
REMARK    4  A    between atoms: C_2  and  C_5
REMARK    5  A    between atoms: N_7  and  C_8
REMARK    6  A    between atoms: C_16  and  C_17
REMARK    7  A    between atoms: C_20  and  O_21
REMARK                            x       y       z     vdW  Elec       q    Type
REMARK                         _______ _______ _______ _____ _____    ______ ____
ROOT
ATOM      1  C   UNL     1       2.510   3.738  18.772  0.00  0.00    +0.000 C 
ATOM      2  N   UNL     1       2.036   4.854  19.235  0.00  0.00    +0.000 NA
ATOM      3  N   UNL     1       2.658   5.865  18.569  0.00  0.00    +0.000 N 
ATOM      4  C   UNL     1       3.654   5.409  17.601  0.00  0.00    +0.000 C 
ATOM      5  C   UNL     1       3.586   3.886  17.728  0.00  0.00    +0.000 C 
ENDROOT
BRANCH   3   6
ATOM      6  C   UNL     1       2.267   7.185  18.759  0.00  0.00    +0.000 A 
ATOM      7  C   UNL     1       2.231   8.078  17.674  0.00  0.00    +0.000 A 
ATOM      8  C   UNL     1       1.800   9.398  17.825  0.00  0.00    +0.000 A 
ATOM      9  C   UNL     1       1.435   9.859  19.083  0.00  0.00    +0.000 A 
ATOM     10  F   UNL     1       1.032  11.131  19.215  0.00  0.00    +0.000 F 
ATOM     11  C   UNL     1       1.487   9.007  20.181  0.00  0.00    +0.000 A 
ATOM     12 CL   UNL     1       1.066   9.574  21.753  0.00  0.00    +0.000 Cl
ATOM     13  C   UNL     1       1.890   7.679  20.019  0.00  0.00    +0.000 A 
ENDBRANCH   3   6
BRANCH   4  14
ATOM     14  C   UNL     1       5.029   5.971  17.929  0.00  0.00    +0.000 A 
ATOM     15  C   UNL     1       5.598   7.004  17.160  0.00  0.00    +0.000 A 
ATOM     16  C   UNL     1       6.871   7.497  17.453  0.00  0.00    +0.000 A 
ATOM     17  C   UNL     1       7.587   6.950  18.511  0.00  0.00    +0.000 A 
ATOM     18  C   UNL     1       7.053   5.920  19.275  0.00  0.00    +0.000 A 
ATOM     19  C   UNL     1       5.777   5.431  18.987  0.00  0.00    +0.000 A 
BRANCH  17  20
ATOM     20  O   UNL     1       8.834   7.399  18.831  0.00  0.00    +0.000 OA
ATOM     21  H   UNL     1       9.080   8.099  18.205  0.00  0.00    +0.000 HD
ENDBRANCH  17  20
ENDBRANCH   4  14
BRANCH   1  23
ATOM     22  C   UNL     1       1.956   2.312  20.773  0.00  0.00    +0.000 C 
ATOM     23  C   UNL     1       2.019   2.369  19.237  0.00  0.00    +0.000 C 
ATOM     24  C   UNL     1       2.980   1.282  18.739  0.00  0.00    +0.000 C 
ATOM     25  C   UNL     1       0.611   2.114  18.678  0.00  0.00    +0.000 C 
ENDBRANCH   1  23
TORSDOF 4
ENDMDL
MODEL 4
REMARK VINA RESULT:      -7.4      2.525      4.947
REMARK  Name = 
REMARK  7 active torsions:
REMARK  status: ('A' for Active; 'I' for Inactive)
REMARK    1  A    between atoms: C_1  and  C_2
REMARK    2  A    between atoms: C_2  and  C_3
REMARK    3  A    between atoms: C_2  and  C_4
REMARK    4  A    between atoms: C_2  and  C_5
REMARK    5  A    between atoms: N_7  and  C_8
REMARK    6  A    between atoms: C_16  and  C_17
REMARK    7  A    between atoms: C_20  and  O_21
REMARK                            x       y       z     vdW  Elec       q    Type
REMARK                         _______ _______ _______ _____ _____    ______ ____
ROOT
ATOM      1  C   UNL     1       2.380   3.762  18.854  0.00  0.00    +0.000 C 
ATOM      2  N   UNL     1       1.954   4.900  19.309  0.00  0.00    +0.000 NA
ATOM      3  N   UNL     1       2.594   5.878  18.611  0.00  0.00    +0.000 N 
ATOM      4  C   UNL     1       3.551   5.374  17.629  0.00  0.00    +0.000 C 
ATOM      5  C   UNL     1       3.436   3.856  17.783  0.00  0.00    +0.000 C 
ENDROOT
BRANCH   3   6
ATOM      6  C   UNL     1       2.251   7.213  18.788  0.00  0.00    +0.000 A 
ATOM      7  C   UNL     1       2.290   8.106  17.702  0.00  0.00    +0.000 A 
ATOM      8  C   UNL     1       1.909   9.443  17.839  0.00  0.00    +0.000 A 
ATOM      9  C   UNL     1       1.518   9.920  19.083  0.00  0.00    +0.000 A 
ATOM     10  F   UNL     1       1.163  11.207  19.201  0.00  0.00    +0.000 F 
ATOM     11  C   UNL     1       1.496   9.068  20.182  0.00  0.00    +0.000 A 
ATOM     12 CL   UNL     1       1.043   9.654  21.738  0.00  0.00    +0.000 Cl
ATOM     13  C   UNL     1       1.849   7.725  20.033  0.00  0.00    +0.000 A 
ENDBRANCH   3   6
BRANCH   4  14
ATOM     14  C   UNL     1       4.951   5.895  17.916  0.00  0.00    +0.000 A 
ATOM     15  C   UNL     1       5.712   5.390  18.989  0.00  0.00    +0.000 A 
ATOM     16  C   UNL     1       6.986   5.891  19.261  0.00  0.00    +0.000 A 
ATOM     17  C   UNL     1       7.502   6.909  18.469  0.00  0.00    +0.000 A 
ATOM     18  C   UNL     1       6.765   7.434  17.414  0.00  0.00    +0.000 A 
ATOM     19  C   UNL     1       5.494   6.929  17.136  0.00  0.00    +0.000 A 
BRANCH  17  20
ATOM     20  O   UNL     1       8.741   7.430  18.699  0.00  0.00    +0.000 OA
ATOM     21  H   UNL     1       8.644   8.374  18.907  0.00  0.00    +0.000 HD
ENDBRANCH  17  20
ENDBRANCH   4  14
BRANCH   1  23
ATOM     22  C   UNL     1       0.501   2.091  18.701  0.00  0.00    +0.000 C 
ATOM     23  C   UNL     1       1.856   2.417  19.353  0.00  0.00    +0.000 C 
ATOM     24  C   UNL     1       1.674   2.468  20.875  0.00  0.00    +0.000 C 
ATOM     25  C   UNL     1       2.856   1.311  18.986  0.00  0.00    +0.000 C 
ENDBRANCH   1  23
TORSDOF 4
ENDMDL
MODEL 5
REMARK VINA RESULT:      -7.3      3.105      4.971
REMARK  Name = 
REMARK  7 active torsions:
REMARK  status: ('A' for Active; 'I' for Inactive)
REMARK    1  A    between atoms: C_1  and  C_2
REMARK    2  A    between atoms: C_2  and  C_3
REMARK    3  A    between atoms: C_2  and  C_4
REMARK    4  A    between atoms: C_2  and  C_5
REMARK    5  A    between atoms: N_7  and  C_8
REMARK    6  A    between atoms: C_16  and  C_17
REMARK    7  A    between atoms: C_20  and  O_21
REMARK                            x       y       z     vdW  Elec       q    Type
REMARK                         _______ _______ _______ _____ _____    ______ ____
ROOT
ATOM      1  C   UNL     1       5.629   6.324  17.889  0.00  0.00    +0.000 C 
ATOM      2  N   UNL     1       5.148   5.499  18.766  0.00  0.00    +0.000 NA
ATOM      3  N   UNL     1       3.791   5.594  18.709  0.00  0.00    +0.000 N 
ATOM      4  C   UNL     1       3.308   6.579  17.743  0.00  0.00    +0.000 C 
ATOM      5  C   UNL     1       4.601   7.135  17.143  0.00  0.00    +0.000 C 
ENDROOT
BRANCH   3   6
ATOM      6  C   UNL     1       2.989   4.734  19.449  0.00  0.00    +0.000 A 
ATOM      7  C   UNL     1       3.053   4.737  20.854  0.00  0.00    +0.000 A 
ATOM      8  C   UNL     1       2.228   3.916  21.626  0.00  0.00    +0.000 A 
ATOM      9  C   UNL     1       1.348   3.044  20.998  0.00  0.00    +0.000 A 
ATOM     10  F   UNL     1       0.568   2.256  21.752  0.00  0.00    +0.000 F 
ATOM     11  C   UNL     1       1.281   2.999  19.610  0.00  0.00    +0.000 A 
ATOM     12 CL   UNL     1       0.216   1.901  18.818  0.00  0.00    +0.000 Cl
ATOM     13  C   UNL     1       2.087   3.844  18.843  0.00  0.00    +0.000 A 
ENDBRANCH   3   6
BRANCH   4  14
ATOM     14  C   UNL     1       2.466   7.645  18.428  0.00  0.00    +0.000 A 
ATOM     15  C   UNL     1       2.154   7.560  19.798  0.00  0.00    +0.000 A 
ATOM     16  C   UNL     1       1.360   8.529  20.414  0.00  0.00    +0.000 A 
ATOM     17  C   UNL     1       0.863   9.584  19.658  0.00  0.00    +0.000 A 
ATOM     18  C   UNL     1       1.145   9.683  18.301  0.00  0.00    +0.000 A 
ATOM     19  C   UNL     1       1.945   8.717  17.686  0.00  0.00    +0.000 A 
BRANCH  17  20
ATOM     20  O   UNL     1       0.082  10.552  20.216  0.00  0.00    +0.000 OA
ATOM     21  H   UNL     1       0.156  11.356  19.677  0.00  0.00    +0.000 HD
ENDBRANCH  17  20
ENDBRANCH   4  14
BRANCH   1  23
ATOM     22  C   UNL     1       7.497   7.951  17.426  0.00  0.00    +0.000 C 
ATOM     23  C   UNL     1       7.124   6.470  17.616  0.00  0.00    +0.000 C 
ATOM     24  C   UNL     1       7.493   5.699  16.342  0.00  0.00    +0.000 C 
ATOM     25  C   UNL     1       7.918   5.913  18.807  0.00  0.00    +0.000 C 
ENDBRANCH   1  23
TORSDOF 4
ENDMDL
MODEL 6
REMARK VINA RESULT:      -7.3      5.005      7.517
REMARK  Name = 
REMARK  7 active torsions:
REMARK  status: ('A' for Active; 'I' for Inactive)
REMARK    1  A    between atoms: C_1  and  C_2
REMARK    2  A    between atoms: C_2  and  C_3
REMARK    3  A    between atoms: C_2  and  C_4
REMARK    4  A    between atoms: C_2  and  C_5
REMARK    5  A    between atoms: N_7  and  C_8
REMARK    6  A    between atoms: C_16  and  C_17
REMARK    7  A    between atoms: C_20  and  O_21
REMARK                            x       y       z     vdW  Elec       q    Type
REMARK                         _______ _______ _______ _____ _____    ______ ____
ROOT
ATOM      1  C   UNL     1       3.774   3.915  18.133  0.00  0.00    +0.000 C 
ATOM      2  N   UNL     1       3.945   3.985  16.848  0.00  0.00    +0.000 NA
ATOM      3  N   UNL     1       5.256   4.280  16.631  0.00  0.00    +0.000 N 
ATOM      4  C   UNL     1       6.034   4.455  17.856  0.00  0.00    +0.000 C 
ATOM      5  C   UNL     1       4.999   4.214  18.958  0.00  0.00    +0.000 C 
ENDROOT
BRANCH   3   6
ATOM      6  C   UNL     1       5.774   4.297  15.341  0.00  0.00    +0.000 A 
ATOM      7  C   UNL     1       7.048   4.838  15.095  0.00  0.00    +0.000 A 
ATOM      8  C   UNL     1       7.613   4.829  13.817  0.00  0.00    +0.000 A 
ATOM      9  C   UNL     1       6.889   4.311  12.751  0.00  0.00    +0.000 A 
ATOM     10  F   UNL     1       7.440   4.317  11.530  0.00  0.00    +0.000 F 
ATOM     11  C   UNL     1       5.615   3.793  12.959  0.00  0.00    +0.000 A 
ATOM     12 CL   UNL     1       4.693   3.175  11.641  0.00  0.00    +0.000 Cl
ATOM     13  C   UNL     1       5.066   3.777  14.244  0.00  0.00    +0.000 A 
ENDBRANCH   3   6
BRANCH   4  14
ATOM     14  C   UNL     1       6.650   5.844  17.915  0.00  0.00    +0.000 A 
ATOM     15  C   UNL     1       6.087   6.924  17.207  0.00  0.00    +0.000 A 
ATOM     16  C   UNL     1       6.672   8.190  17.247  0.00  0.00    +0.000 A 
ATOM     17  C   UNL     1       7.833   8.382  17.987  0.00  0.00    +0.000 A 
ATOM     18  C   UNL     1       8.416   7.329  18.682  0.00  0.00    +0.000 A 
ATOM     19  C   UNL     1       7.827   6.064  18.649  0.00  0.00    +0.000 A 
BRANCH  17  20
ATOM     20  O   UNL     1       8.441   9.600  18.053  0.00  0.00    +0.000 OA
ATOM     21  H   UNL     1       9.216   9.590  17.467  0.00  0.00    +0.000 HD
ENDBRANCH  17  20
ENDBRANCH   4  14
BRANCH   1  23
ATOM     22  C   UNL     1       2.319   2.027  18.948  0.00  0.00    +0.000 C 
ATOM     23  C   UNL     1       2.438   3.551  18.776  0.00  0.00    +0.000 C 
ATOM     24  C   UNL     1       1.288   4.041  17.886  0.00  0.00    +0.000 C 
ATOM     25  C   UNL     1       2.341   4.211  20.160  0.00  0.00    +0.000 C 
ENDBRANCH   1  23
TORSDOF 4
ENDMDL
MODEL 7
REMARK VINA RESULT:      -7.3      3.000      4.753
REMARK  Name = 
REMARK  7 active torsions:
REMARK  status: ('A' for Active; 'I' for Inactive)
REMARK    1  A    between atoms: C_1  and  C_2
REMARK    2  A    between atoms: C_2  and  C_3
REMARK    3  A    between atoms: C_2  and  C_4
REMARK    4  A    between atoms: C_2  and  C_5
REMARK    5  A    between atoms: N_7  and  C_8
REMARK    6  A    between atoms: C_16  and  C_17
REMARK    7  A    between atoms: C_20  and  O_21
REMARK                            x       y       z     vdW  Elec       q    Type
REMARK                         _______ _______ _______ _____ _____    ______ ____
ROOT
ATOM      1  C   UNL     1       5.707   6.325  17.824  0.00  0.00    +0.000 C 
ATOM      2  N   UNL     1       5.068   5.359  18.408  0.00  0.00    +0.000 NA
ATOM      3  N   UNL     1       3.738   5.587  18.229  0.00  0.00    +0.000 N 
ATOM      4  C   UNL     1       3.443   6.817  17.496  0.00  0.00    +0.000 C 
ATOM      5  C   UNL     1       4.833   7.383  17.199  0.00  0.00    +0.000 C 
ENDROOT
BRANCH   3   6
ATOM      6  C   UNL     1       2.797   4.650  18.638  0.00  0.00    +0.000 A 
ATOM      7  C   UNL     1       1.800   4.211  17.749  0.00  0.00    +0.000 A 
ATOM      8  C   UNL     1       0.868   3.238  18.117  0.00  0.00    +0.000 A 
ATOM      9  C   UNL     1       0.895   2.714  19.403  0.00  0.00    +0.000 A 
ATOM     10  F   UNL     1      -0.010   1.786  19.744  0.00  0.00    +0.000 F 
ATOM     11  C   UNL     1       1.853   3.148  20.313  0.00  0.00    +0.000 A 
ATOM     12 CL   UNL     1       1.880   2.529  21.920  0.00  0.00    +0.000 Cl
ATOM     13  C   UNL     1       2.801   4.099  19.931  0.00  0.00    +0.000 A 
ENDBRANCH   3   6
BRANCH   4  14
ATOM     14  C   UNL     1       2.587   7.756  18.331  0.00  0.00    +0.000 A 
ATOM     15  C   UNL     1       2.299   7.476  19.681  0.00  0.00    +0.000 A 
ATOM     16  C   UNL     1       1.492   8.331  20.434  0.00  0.00    +0.000 A 
ATOM     17  C   UNL     1       0.957   9.466  19.836  0.00  0.00    +0.000 A 
ATOM     18  C   UNL     1       1.214   9.756  18.502  0.00  0.00    +0.000 A 
ATOM     19  C   UNL     1       2.028   8.906  17.750  0.00  0.00    +0.000 A 
BRANCH  17  20
ATOM     20  O   UNL     1       0.162  10.328  20.532  0.00  0.00    +0.000 OA
ATOM     21  H   UNL     1      -0.557  10.622  19.949  0.00  0.00    +0.000 HD
ENDBRANCH  17  20
ENDBRANCH   4  14
BRANCH   1  23
ATOM     22  C   UNL     1       7.849   5.918  19.085  0.00  0.00    +0.000 C 
ATOM     23  C   UNL     1       7.230   6.397  17.760  0.00  0.00    +0.000 C 
ATOM     24  C   UNL     1       7.668   7.845  17.503  0.00  0.00    +0.000 C 
ATOM     25  C   UNL     1       7.738   5.493  16.626  0.00  0.00    +0.000 C 
ENDBRANCH   1  23
TORSDOF 4
ENDMDL
MODEL 8
REMARK VINA RESULT:      -7.2      5.005      7.517
REMARK  Name = 
REMARK  7 active torsions:
REMARK  status: ('A' for Active; 'I' for Inactive)
REMARK    1  A    between atoms: C_1  and  C_2
REMARK    2  A    between atoms: C_2  and  C_3
REMARK    3  A    between atoms: C_2  and  C_4
REMARK    4  A    between atoms: C_2  and  C_5
REMARK    5  A    between atoms: N_7  and  C_8
REMARK    6  A    between atoms: C_16  and  C_17
REMARK    7  A    between atoms: C_20  and  O_21
REMARK                            x       y       z     vdW  Elec       q    Type
REMARK                         _______ _______ _______ _____ _____    ______ ____
ROOT
ATOM      1  C   UNL     1       3.786   3.946  18.068  0.00  0.00    +0.000 C 
ATOM      2  N   UNL     1       3.958   4.018  16.784  0.00  0.00    +0.000 NA
ATOM      3  N   UNL     1       5.273   4.293  16.566  0.00  0.00    +0.000 N 
ATOM      4  C   UNL     1       6.054   4.451  17.792  0.00  0.00    +0.000 C 
ATOM      5  C   UNL     1       5.016   4.222  18.893  0.00  0.00    +0.000 C 
ENDROOT
BRANCH   3   6
ATOM      6  C   UNL     1       5.790   4.307  15.277  0.00  0.00    +0.000 A 
ATOM      7  C   UNL     1       7.055   4.867  15.025  0.00  0.00    +0.000 A 
ATOM      8  C   UNL     1       7.620   4.856  13.748  0.00  0.00    +0.000 A 
ATOM      9  C   UNL     1       6.905   4.315  12.687  0.00  0.00    +0.000 A 
ATOM     10  F   UNL     1       7.456   4.319  11.465  0.00  0.00    +0.000 F 
ATOM     11  C   UNL     1       5.640   3.778  12.900  0.00  0.00    +0.000 A 
ATOM     12 CL   UNL     1       4.729   3.132  11.588  0.00  0.00    +0.000 Cl
ATOM     13  C   UNL     1       5.092   3.765  14.184  0.00  0.00    +0.000 A 
ENDBRANCH   3   6
BRANCH   4  14
ATOM     14  C   UNL     1       6.692   5.830  17.856  0.00  0.00    +0.000 A 
ATOM     15  C   UNL     1       7.851   6.063  18.622  0.00  0.00    +0.000 A 
ATOM     16  C   UNL     1       8.417   7.337  18.695  0.00  0.00    +0.000 A 
ATOM     17  C   UNL     1       7.819   8.389  18.012  0.00  0.00    +0.000 A 
ATOM     18  C   UNL     1       6.666   8.188  17.262  0.00  0.00    +0.000 A 
ATOM     19  C   UNL     1       6.104   6.912  17.182  0.00  0.00    +0.000 A 
BRANCH  17  20
ATOM     20  O   UNL     1       8.335   9.650  18.057  0.00  0.00    +0.000 OA
ATOM     21  H   UNL     1       7.861  10.200  17.411  0.00  0.00    +0.000 HD
ENDBRANCH  17  20
ENDBRANCH   4  14
BRANCH   1  23
ATOM     22  C   UNL     1       1.283   4.130  17.851  0.00  0.00    +0.000 C 
ATOM     23  C   UNL     1       2.445   3.601  18.710  0.00  0.00    +0.000 C 
ATOM     24  C   UNL     1       2.361   4.239  20.103  0.00  0.00    +0.000 C 
ATOM     25  C   UNL     1       2.313   2.075  18.829  0.00  0.00    +0.000 C 
ENDBRANCH   1  23
TORSDOF 4
ENDMDL
MODEL 9
REMARK VINA RESULT:      -7.2      3.009      4.917
REMARK  Name = 
REMARK  7 active torsions:
REMARK  status: ('A' for Active; 'I' for Inactive)
REMARK    1  A    between atoms: C_1  and  C_2
REMARK    2  A    between atoms: C_2  and  C_3
REMARK    3  A    between atoms: C_2  and  C_4
REMARK    4  A    between atoms: C_2  and  C_5
REMARK    5  A    between atoms: N_7  and  C_8
REMARK    6  A    between atoms: C_16  and  C_17
REMARK    7  A    between atoms: C_20  and  O_21
REMARK                            x       y       z     vdW  Elec       q    Type
REMARK                         _______ _______ _______ _____ _____    ______ ____
ROOT
ATOM      1  C   UNL     1       5.676   6.388  17.768  0.00  0.00    +0.000 C 
ATOM      2  N   UNL     1       5.056   5.414  18.362  0.00  0.00    +0.000 NA
ATOM      3  N   UNL     1       3.722   5.621  18.191  0.00  0.00    +0.000 N 
ATOM      4  C   UNL     1       3.402   6.842  17.453  0.00  0.00    +0.000 C 
ATOM      5  C   UNL     1       4.782   7.428  17.144  0.00  0.00    +0.000 C 
ENDROOT
BRANCH   3   6
ATOM      6  C   UNL     1       2.798   4.671  18.612  0.00  0.00    +0.000 A 
ATOM      7  C   UNL     1       1.793   4.223  17.737  0.00  0.00    +0.000 A 
ATOM      8  C   UNL     1       0.879   3.237  18.115  0.00  0.00    +0.000 A 
ATOM      9  C   UNL     1       0.932   2.710  19.399  0.00  0.00    +0.000 A 
ATOM     10  F   UNL     1       0.042   1.771  19.752  0.00  0.00    +0.000 F 
ATOM     11  C   UNL     1       1.897   3.154  20.296  0.00  0.00    +0.000 A 
ATOM     12 CL   UNL     1       1.956   2.532  21.902  0.00  0.00    +0.000 Cl
ATOM     13  C   UNL     1       2.828   4.118  19.903  0.00  0.00    +0.000 A 
ENDBRANCH   3   6
BRANCH   4  14
ATOM     14  C   UNL     1       2.537   7.772  18.290  0.00  0.00    +0.000 A 
ATOM     15  C   UNL     1       2.005   8.959  17.748  0.00  0.00    +0.000 A 
ATOM     16  C   UNL     1       1.233   9.820  18.529  0.00  0.00    +0.000 A 
ATOM     17  C   UNL     1       0.997   9.504  19.862  0.00  0.00    +0.000 A 
ATOM     18  C   UNL     1       1.523   8.347  20.423  0.00  0.00    +0.000 A 
ATOM     19  C   UNL     1       2.290   7.482  19.641  0.00  0.00    +0.000 A 
BRANCH  17  20
ATOM     20  O   UNL     1       0.250  10.316  20.663  0.00  0.00    +0.000 OA
ATOM     21  H   UNL     1       0.851  10.891  21.164  0.00  0.00    +0.000 HD
ENDBRANCH  17  20
ENDBRANCH   4  14
BRANCH   1  23
ATOM     22  C   UNL     1       7.639   7.945  17.512  0.00  0.00    +0.000 C 
ATOM     23  C   UNL     1       7.198   6.483  17.693  0.00  0.00    +0.000 C 
ATOM     24  C   UNL     1       7.707   5.660  16.503  0.00  0.00    +0.000 C 
ATOM     25  C   UNL     1       7.808   5.944  18.996  0.00  0.00    +0.000 C 
ENDBRANCH   1  23
TORSDOF 4
ENDMDL
