MODEL 1
REMARK VINA RESULT:      -7.7      0.000      0.000
REMARK  Name = 
REMARK  4 active torsions:
REMARK  status: ('A' for Active; 'I' for Inactive)
REMARK    1  A    between atoms: C_5  and  C_6
REMARK    2  A    between atoms: C_6  and  N_7
REMARK    3  A    between atoms: N_9  and  C_10
REMARK    4  A    between atoms: C_10  and  C_11
REMARK                            x       y       z     vdW  Elec       q    Type
REMARK                         _______ _______ _______ _____ _____    ______ ____
ROOT
ATOM      1  N   UNL     1      -4.122  12.066  18.959  0.00  0.00    +0.000 N 
ATOM      2  C   UNL     1      -2.967  12.382  19.568  0.00  0.00    +0.000 A 
ATOM      3  N   UNL     1      -1.941  11.973  18.808  0.00  0.00    +0.000 N 
ATOM      4  C   UNL     1      -2.445  11.344  17.669  0.00  0.00    +0.000 A 
ATOM      5  C   UNL     1      -1.822  10.685  16.613  0.00  0.00    +0.000 A 
ATOM      6  C   UNL     1      -2.668  10.130  15.642  0.00  0.00    +0.000 A 
ATOM      7  C   UNL     1      -4.068  10.256  15.713  0.00  0.00    +0.000 A 
ATOM      8  C   UNL     1      -4.689  10.936  16.766  0.00  0.00    +0.000 A 
ATOM      9  C   UNL     1      -3.842  11.453  17.746  0.00  0.00    +0.000 A 
ENDROOT
BRANCH   1  10
ATOM     10  C   UNL     1      -5.444  12.336  19.523  0.00  0.00    +0.000 C 
BRANCH  10  15
ATOM     11 BR   UNL     1      -7.485  17.764  17.284  0.00  0.00    +0.000 Br
ATOM     12  C   UNL     1      -6.904  16.102  17.968  0.00  0.00    +0.000 A 
ATOM     13  C   UNL     1      -6.319  16.037  19.229  0.00  0.00    +0.000 A 
ATOM     14  C   UNL     1      -5.877  14.805  19.730  0.00  0.00    +0.000 A 
ATOM     15  C   UNL     1      -6.024  13.625  18.980  0.00  0.00    +0.000 A 
ATOM     16  C   UNL     1      -6.619  13.720  17.711  0.00  0.00    +0.000 A 
ATOM     17  C   UNL     1      -7.059  14.951  17.209  0.00  0.00    +0.000 A 
ENDBRANCH  10  15
ENDBRANCH   1  10
BRANCH   3  18
ATOM     18  C   UNL     1      -0.527  12.136  19.192  0.00  0.00    +0.000 C 
BRANCH  18  19
ATOM     19  C   UNL     1      -0.001  10.917  19.899  0.00  0.00    +0.000 A 
ATOM     20  C   UNL     1       0.817   9.956  19.291  0.00  0.00    +0.000 A 
ATOM     21  C   UNL     1       1.247   8.822  19.992  0.00  0.00    +0.000 A 
ATOM     22  C   UNL     1       0.936   8.591  21.314  0.00  0.00    +0.000 A 
ATOM     23  C   UNL     1       0.121   9.528  21.918  0.00  0.00    +0.000 A 
ATOM     24  C   UNL     1      -0.360  10.632  21.215  0.00  0.00    +0.000 A 
ATOM     25  O   UNL     1      -1.255  11.375  21.946  0.00  0.00    +0.000 OA
ATOM     26  C   UNL     1      -1.171  10.846  23.292  0.00  0.00    +0.000 C 
ATOM     27  C   UNL     1      -0.396   9.532  23.302  0.00  0.00    +0.000 C 
ATOM     28  O   UNL     1       1.978   7.937  19.245  0.00  0.00    +0.000 OA
ATOM     29  C   UNL     1       2.254   8.640  18.019  0.00  0.00    +0.000 C 
ATOM     30  C   UNL     1       1.309   9.839  17.892  0.00  0.00    +0.000 C 
ENDBRANCH  18  19
ENDBRANCH   3  18
TORSDOF 4
ENDMDL
MODEL 2
REMARK VINA RESULT:      -7.6      2.298      3.781
REMARK  Name = 
REMARK  4 active torsions:
REMARK  status: ('A' for Active; 'I' for Inactive)
REMARK    1  A    between atoms: C_5  and  C_6
REMARK    2  A    between atoms: C_6  and  N_7
REMARK    3  A    between atoms: N_9  and  C_10
REMARK    4  A    between atoms: C_10  and  C_11
REMARK                            x       y       z     vdW  Elec       q    Type
REMARK                         _______ _______ _______ _____ _____    ______ ____
ROOT
ATOM      1  N   UNL     1      -3.732  12.225  19.195  0.00  0.00    +0.000 N 
ATOM      2  C   UNL     1      -2.505  12.431  19.702  0.00  0.00    +0.000 A 
ATOM      3  N   UNL     1      -1.593  11.880  18.890  0.00  0.00    +0.000 N 
ATOM      4  C   UNL     1      -2.251  11.268  17.822  0.00  0.00    +0.000 A 
ATOM      5  C   UNL     1      -1.787  10.502  16.756  0.00  0.00    +0.000 A 
ATOM      6  C   UNL     1      -2.762  10.009  15.877  0.00  0.00    +0.000 A 
ATOM      7  C   UNL     1      -4.130  10.296  16.043  0.00  0.00    +0.000 A 
ATOM      8  C   UNL     1      -4.589  11.082  17.105  0.00  0.00    +0.000 A 
ATOM      9  C   UNL     1      -3.617  11.537  17.995  0.00  0.00    +0.000 A 
ENDROOT
BRANCH   1  10
ATOM     10  C   UNL     1      -4.969  12.665  19.840  0.00  0.00    +0.000 C 
BRANCH  10  15
ATOM     11 BR   UNL     1      -3.480  15.938  24.911  0.00  0.00    +0.000 Br
ATOM     12  C   UNL     1      -3.969  14.962  23.370  0.00  0.00    +0.000 A 
ATOM     13  C   UNL     1      -4.172  13.587  23.454  0.00  0.00    +0.000 A 
ATOM     14  C   UNL     1      -4.522  12.862  22.307  0.00  0.00    +0.000 A 
ATOM     15  C   UNL     1      -4.685  13.504  21.068  0.00  0.00    +0.000 A 
ATOM     16  C   UNL     1      -4.475  14.893  21.011  0.00  0.00    +0.000 A 
ATOM     17  C   UNL     1      -4.122  15.617  22.157  0.00  0.00    +0.000 A 
ENDBRANCH  10  15
ENDBRANCH   1  10
BRANCH   3  18
ATOM     18  C   UNL     1      -0.144  11.896  19.162  0.00  0.00    +0.000 C 
BRANCH  18  19
ATOM     19  C   UNL     1       0.300  10.648  19.873  0.00  0.00    +0.000 A 
ATOM     20  C   UNL     1       0.013  10.371  21.215  0.00  0.00    +0.000 A 
ATOM     21  C   UNL     1       0.486   9.205  21.832  0.00  0.00    +0.000 A 
ATOM     22  C   UNL     1       1.221   8.246  21.169  0.00  0.00    +0.000 A 
ATOM     23  C   UNL     1       1.517   8.517  19.848  0.00  0.00    +0.000 A 
ATOM     24  C   UNL     1       1.100   9.699  19.237  0.00  0.00    +0.000 A 
ATOM     25  O   UNL     1       1.602   9.843  17.966  0.00  0.00    +0.000 OA
ATOM     26  C   UNL     1       2.193   8.559  17.648  0.00  0.00    +0.000 C 
ATOM     27  C   UNL     1       2.302   7.696  18.902  0.00  0.00    +0.000 C 
ATOM     28  O   UNL     1       0.188   9.108  23.166  0.00  0.00    +0.000 OA
ATOM     29  C   UNL     1      -0.750  10.173  23.405  0.00  0.00    +0.000 C 
ATOM     30  C   UNL     1      -0.694  11.175  22.247  0.00  0.00    +0.000 C 
ENDBRANCH  18  19
ENDBRANCH   3  18
TORSDOF 4
ENDMDL
MODEL 3
REMARK VINA RESULT:      -7.5      3.458      6.739
REMARK  Name = 
REMARK  4 active torsions:
REMARK  status: ('A' for Active; 'I' for Inactive)
REMARK    1  A    between atoms: C_5  and  C_6
REMARK    2  A    between atoms: C_6  and  N_7
REMARK    3  A    between atoms: N_9  and  C_10
REMARK    4  A    between atoms: C_10  and  C_11
REMARK                            x       y       z     vdW  Elec       q    Type
REMARK                         _______ _______ _______ _____ _____    ______ ____
ROOT
ATOM      1  N   UNL     1       0.964   9.391  18.965  0.00  0.00    +0.000 N 
ATOM      2  C   UNL     1       1.787   8.331  18.904  0.00  0.00    +0.000 A 
ATOM      3  N   UNL     1       1.919   7.804  20.130  0.00  0.00    +0.000 N 
ATOM      4  C   UNL     1       1.174   8.565  21.031  0.00  0.00    +0.000 A 
ATOM      5  C   UNL     1       1.030   8.497  22.414  0.00  0.00    +0.000 A 
ATOM      6  C   UNL     1       0.210   9.471  23.001  0.00  0.00    +0.000 A 
ATOM      7  C   UNL     1      -0.456  10.446  22.234  0.00  0.00    +0.000 A 
ATOM      8  C   UNL     1      -0.324  10.498  20.843  0.00  0.00    +0.000 A 
ATOM      9  C   UNL     1       0.522   9.548  20.272  0.00  0.00    +0.000 A 
ENDROOT
BRANCH   1  10
ATOM     10  C   UNL     1       0.620  10.227  17.815  0.00  0.00    +0.000 C 
BRANCH  10  15
ATOM     11 BR   UNL     1      -5.513  11.237  17.920  0.00  0.00    +0.000 Br
ATOM     12  C   UNL     1      -3.646  10.959  17.858  0.00  0.00    +0.000 A 
ATOM     13  C   UNL     1      -3.139   9.759  17.367  0.00  0.00    +0.000 A 
ATOM     14  C   UNL     1      -1.754   9.548  17.334  0.00  0.00    +0.000 A 
ATOM     15  C   UNL     1      -0.862  10.538  17.781  0.00  0.00    +0.000 A 
ATOM     16  C   UNL     1      -1.401  11.740  18.271  0.00  0.00    +0.000 A 
ATOM     17  C   UNL     1      -2.785  11.949  18.306  0.00  0.00    +0.000 A 
ENDBRANCH  10  15
ENDBRANCH   1  10
BRANCH   3  18
ATOM     18  C   UNL     1       2.776   6.642  20.428  0.00  0.00    +0.000 C 
BRANCH  18  19
ATOM     19  C   UNL     1       2.834   5.685  19.269  0.00  0.00    +0.000 A 
ATOM     20  C   UNL     1       2.012   4.558  19.147  0.00  0.00    +0.000 A 
ATOM     21  C   UNL     1       2.137   3.683  18.060  0.00  0.00    +0.000 A 
ATOM     22  C   UNL     1       3.035   3.881  17.033  0.00  0.00    +0.000 A 
ATOM     23  C   UNL     1       3.857   4.984  17.152  0.00  0.00    +0.000 A 
ATOM     24  C   UNL     1       3.780   5.832  18.256  0.00  0.00    +0.000 A 
ATOM     25  O   UNL     1       4.764   6.792  18.254  0.00  0.00    +0.000 OA
ATOM     26  C   UNL     1       5.374   6.702  16.944  0.00  0.00    +0.000 C 
ATOM     27  C   UNL     1       4.922   5.432  16.230  0.00  0.00    +0.000 C 
ATOM     28  O   UNL     1       1.317   2.588  18.116  0.00  0.00    +0.000 OA
ATOM     29  C   UNL     1       0.412   2.869  19.200  0.00  0.00    +0.000 C 
ATOM     30  C   UNL     1       0.982   4.000  20.063  0.00  0.00    +0.000 C 
ENDBRANCH  18  19
ENDBRANCH   3  18
TORSDOF 4
ENDMDL
MODEL 4
REMARK VINA RESULT:      -7.5      4.621      8.015
REMARK  Name = 
REMARK  4 active torsions:
REMARK  status: ('A' for Active; 'I' for Inactive)
REMARK    1  A    between atoms: C_5  and  C_6
REMARK    2  A    between atoms: C_6  and  N_7
REMARK    3  A    between atoms: N_9  and  C_10
REMARK    4  A    between atoms: C_10  and  C_11
REMARK                            x       y       z     vdW  Elec       q    Type
REMARK                         _______ _______ _______ _____ _____    ______ ____
ROOT
ATOM      1  N   UNL     1       1.078  10.961  18.613  0.00  0.00    +0.000 N 
ATOM      2  C   UNL     1       1.537  11.983  19.355  0.00  0.00    +0.000 A 
ATOM      3  N   UNL     1       0.499  12.710  19.793  0.00  0.00    +0.000 N 
ATOM      4  C   UNL     1      -0.682  12.155  19.298  0.00  0.00    +0.000 A 
ATOM      5  C   UNL     1      -2.011  12.558  19.389  0.00  0.00    +0.000 A 
ATOM      6  C   UNL     1      -2.949  11.757  18.721  0.00  0.00    +0.000 A 
ATOM      7  C   UNL     1      -2.573  10.593  18.023  0.00  0.00    +0.000 A 
ATOM      8  C   UNL     1      -1.238  10.182  17.951  0.00  0.00    +0.000 A 
ATOM      9  C   UNL     1      -0.309  11.005  18.587  0.00  0.00    +0.000 A 
ENDROOT
BRANCH   1  10
ATOM     10  C   UNL     1       1.938   9.982  17.949  0.00  0.00    +0.000 C 
BRANCH  10  15
ATOM     11 BR   UNL     1       2.251   4.523  20.906  0.00  0.00    +0.000 Br
ATOM     12  C   UNL     1       2.115   6.178  20.007  0.00  0.00    +0.000 A 
ATOM     13  C   UNL     1       2.537   6.287  18.685  0.00  0.00    +0.000 A 
ATOM     14  C   UNL     1       2.448   7.519  18.024  0.00  0.00    +0.000 A 
ATOM     15  C   UNL     1       1.925   8.652  18.672  0.00  0.00    +0.000 A 
ATOM     16  C   UNL     1       1.506   8.513  20.006  0.00  0.00    +0.000 A 
ATOM     17  C   UNL     1       1.597   7.282  20.668  0.00  0.00    +0.000 A 
ENDBRANCH  10  15
ENDBRANCH   1  10
BRANCH   3  18
ATOM     18  C   UNL     1       0.646  13.925  20.614  0.00  0.00    +0.000 C 
BRANCH  18  19
ATOM     19  C   UNL     1       0.523  15.173  19.784  0.00  0.00    +0.000 A 
ATOM     20  C   UNL     1       1.543  15.665  18.960  0.00  0.00    +0.000 A 
ATOM     21  C   UNL     1       1.381  16.854  18.236  0.00  0.00    +0.000 A 
ATOM     22  C   UNL     1       0.217  17.592  18.252  0.00  0.00    +0.000 A 
ATOM     23  C   UNL     1      -0.790  17.120  19.070  0.00  0.00    +0.000 A 
ATOM     24  C   UNL     1      -0.621  15.968  19.838  0.00  0.00    +0.000 A 
ATOM     25  O   UNL     1      -1.681  15.735  20.681  0.00  0.00    +0.000 OA
ATOM     26  C   UNL     1      -2.706  16.669  20.262  0.00  0.00    +0.000 C 
ATOM     27  C   UNL     1      -2.124  17.708  19.308  0.00  0.00    +0.000 C 
ATOM     28  O   UNL     1       2.489  17.247  17.535  0.00  0.00    +0.000 OA
ATOM     29  C   UNL     1       3.382  16.119  17.607  0.00  0.00    +0.000 C 
ATOM     30  C   UNL     1       2.930  15.180  18.731  0.00  0.00    +0.000 C 
ENDBRANCH  18  19
ENDBRANCH   3  18
TORSDOF 4
ENDMDL
MODEL 5
REMARK VINA RESULT:      -7.4      4.714      7.921
REMARK  Name = 
REMARK  4 active torsions:
REMARK  status: ('A' for Active; 'I' for Inactive)
REMARK    1  A    between atoms: C_5  and  C_6
REMARK    2  A    between atoms: C_6  and  N_7
REMARK    3  A    between atoms: N_9  and  C_10
REMARK    4  A    between atoms: C_10  and  C_11
REMARK                            x       y       z     vdW  Elec       q    Type
REMARK                         _______ _______ _______ _____ _____    ______ ____
ROOT
ATOM      1  N   UNL     1       0.977  10.650  18.667  0.00  0.00    +0.000 N 
ATOM      2  C   UNL     1       1.403  11.545  19.575  0.00  0.00    +0.000 A 
ATOM      3  N   UNL     1       0.353  12.242  20.032  0.00  0.00    +0.000 N 
ATOM      4  C   UNL     1      -0.800  11.804  19.379  0.00  0.00    +0.000 A 
ATOM      5  C   UNL     1      -2.121  12.238  19.426  0.00  0.00    +0.000 A 
ATOM      6  C   UNL     1      -3.024  11.570  18.586  0.00  0.00    +0.000 A 
ATOM      7  C   UNL     1      -2.624  10.500  17.763  0.00  0.00    +0.000 A 
ATOM      8  C   UNL     1      -1.299  10.054  17.734  0.00  0.00    +0.000 A 
ATOM      9  C   UNL     1      -0.402  10.748  18.545  0.00  0.00    +0.000 A 
ENDROOT
BRANCH   1  10
ATOM     10  C   UNL     1       1.861   9.741  17.939  0.00  0.00    +0.000 C 
BRANCH  10  15
ATOM     11 BR   UNL     1       2.141   4.308  20.948  0.00  0.00    +0.000 Br
ATOM     12  C   UNL     1       2.097   5.961  20.035  0.00  0.00    +0.000 A 
ATOM     13  C   UNL     1       1.609   7.095  20.676  0.00  0.00    +0.000 A 
ATOM     14  C   UNL     1       1.565   8.318  19.993  0.00  0.00    +0.000 A 
ATOM     15  C   UNL     1       2.018   8.422  18.666  0.00  0.00    +0.000 A 
ATOM     16  C   UNL     1       2.507   7.260  18.044  0.00  0.00    +0.000 A 
ATOM     17  C   UNL     1       2.549   6.038  18.726  0.00  0.00    +0.000 A 
ENDBRANCH  10  15
ENDBRANCH   1  10
BRANCH   3  18
ATOM     18  C   UNL     1       0.466  13.328  21.023  0.00  0.00    +0.000 C 
BRANCH  18  19
ATOM     19  C   UNL     1       1.320  14.456  20.512  0.00  0.00    +0.000 A 
ATOM     20  C   UNL     1       0.874  15.421  19.600  0.00  0.00    +0.000 A 
ATOM     21  C   UNL     1       1.729  16.429  19.134  0.00  0.00    +0.000 A 
ATOM     22  C   UNL     1       3.034  16.565  19.557  0.00  0.00    +0.000 A 
ATOM     23  C   UNL     1       3.484  15.612  20.448  0.00  0.00    +0.000 A 
ATOM     24  C   UNL     1       2.661  14.572  20.877  0.00  0.00    +0.000 A 
ATOM     25  O   UNL     1       3.328  13.656  21.656  0.00  0.00    +0.000 OA
ATOM     26  C   UNL     1       4.609  14.268  21.940  0.00  0.00    +0.000 C 
ATOM     27  C   UNL     1       4.829  15.487  21.049  0.00  0.00    +0.000 C 
ATOM     28  O   UNL     1       1.174  17.252  18.191  0.00  0.00    +0.000 OA
ATOM     29  C   UNL     1      -0.226  16.917  18.197  0.00  0.00    +0.000 C 
ATOM     30  C   UNL     1      -0.426  15.566  18.894  0.00  0.00    +0.000 C 
ENDBRANCH  18  19
ENDBRANCH   3  18
TORSDOF 4
ENDMDL
MODEL 6
REMARK VINA RESULT:      -7.3      4.510      7.879
REMARK  Name = 
REMARK  4 active torsions:
REMARK  status: ('A' for Active; 'I' for Inactive)
REMARK    1  A    between atoms: C_5  and  C_6
REMARK    2  A    between atoms: C_6  and  N_7
REMARK    3  A    between atoms: N_9  and  C_10
REMARK    4  A    between atoms: C_10  and  C_11
REMARK                            x       y       z     vdW  Elec       q    Type
REMARK                         _______ _______ _______ _____ _____    ______ ____
ROOT
ATOM      1  N   UNL     1       1.109  10.339  18.469  0.00  0.00    +0.000 N 
ATOM      2  C   UNL     1       1.562  11.278  19.316  0.00  0.00    +0.000 A 
ATOM      3  N   UNL     1       0.531  12.024  19.739  0.00  0.00    +0.000 N 
ATOM      4  C   UNL     1      -0.637  11.571  19.125  0.00  0.00    +0.000 A 
ATOM      5  C   UNL     1      -1.949  12.036  19.157  0.00  0.00    +0.000 A 
ATOM      6  C   UNL     1      -2.873  11.337  18.367  0.00  0.00    +0.000 A 
ATOM      7  C   UNL     1      -2.505  10.210  17.608  0.00  0.00    +0.000 A 
ATOM      8  C   UNL     1      -1.189   9.735  17.594  0.00  0.00    +0.000 A 
ATOM      9  C   UNL     1      -0.269  10.459  18.353  0.00  0.00    +0.000 A 
ENDROOT
BRANCH   1  10
ATOM     10  C   UNL     1       1.966   9.368  17.790  0.00  0.00    +0.000 C 
BRANCH  10  15
ATOM     11 BR   UNL     1       2.088   4.104  21.094  0.00  0.00    +0.000 Br
ATOM     12  C   UNL     1       2.092   5.703  20.089  0.00  0.00    +0.000 A 
ATOM     13  C   UNL     1       1.707   6.899  20.686  0.00  0.00    +0.000 A 
ATOM     14  C   UNL     1       1.698   8.082  19.936  0.00  0.00    +0.000 A 
ATOM     15  C   UNL     1       2.084   8.084  18.584  0.00  0.00    +0.000 A 
ATOM     16  C   UNL     1       2.469   6.862  18.007  0.00  0.00    +0.000 A 
ATOM     17  C   UNL     1       2.476   5.679  18.757  0.00  0.00    +0.000 A 
ENDBRANCH  10  15
ENDBRANCH   1  10
BRANCH   3  18
ATOM     18  C   UNL     1       0.678  13.167  20.659  0.00  0.00    +0.000 C 
BRANCH  18  19
ATOM     19  C   UNL     1       0.551  14.480  19.937  0.00  0.00    +0.000 A 
ATOM     20  C   UNL     1       1.548  15.016  19.113  0.00  0.00    +0.000 A 
ATOM     21  C   UNL     1       1.386  16.262  18.494  0.00  0.00    +0.000 A 
ATOM     22  C   UNL     1       0.242  17.021  18.618  0.00  0.00    +0.000 A 
ATOM     23  C   UNL     1      -0.742  16.505  19.438  0.00  0.00    +0.000 A 
ATOM     24  C   UNL     1      -0.571  15.292  20.103  0.00  0.00    +0.000 A 
ATOM     25  O   UNL     1      -1.601  15.013  20.968  0.00  0.00    +0.000 OA
ATOM     26  C   UNL     1      -2.619  15.999  20.670  0.00  0.00    +0.000 C 
ATOM     27  C   UNL     1      -2.051  17.100  19.778  0.00  0.00    +0.000 C 
ATOM     28  O   UNL     1       2.474  16.688  17.781  0.00  0.00    +0.000 OA
ATOM     29  C   UNL     1       3.341  15.540  17.725  0.00  0.00    +0.000 C 
ATOM     30  C   UNL     1       2.913  14.522  18.788  0.00  0.00    +0.000 C 
ENDBRANCH  18  19
ENDBRANCH   3  18
TORSDOF 4
ENDMDL
MODEL 7
REMARK VINA RESULT:      -7.3      2.660      3.885
REMARK  Name = 
REMARK  4 active torsions:
REMARK  status: ('A' for Active; 'I' for Inactive)
REMARK    1  A    between atoms: C_5  and  C_6
REMARK    2  A    between atoms: C_6  and  N_7
REMARK    3  A    between atoms: N_9  and  C_10
REMARK    4  A    between atoms: C_10  and  C_11
REMARK                            x       y       z     vdW  Elec       q    Type
REMARK                         _______ _______ _______ _____ _____    ______ ____
ROOT
ATOM      1  N   UNL     1      -4.457  12.224  19.347  0.00  0.00    +0.000 N 
ATOM      2  C   UNL     1      -3.621  12.826  20.209  0.00  0.00    +0.000 A 
ATOM      3  N   UNL     1      -2.361  12.468  19.925  0.00  0.00    +0.000 N 
ATOM      4  C   UNL     1      -2.375  11.578  18.851  0.00  0.00    +0.000 A 
ATOM      5  C   UNL     1      -1.363  10.861  18.219  0.00  0.00    +0.000 A 
ATOM      6  C   UNL     1      -1.762  10.015  17.174  0.00  0.00    +0.000 A 
ATOM      7  C   UNL     1      -3.105   9.918  16.764  0.00  0.00    +0.000 A 
ATOM      8  C   UNL     1      -4.116  10.656  17.388  0.00  0.00    +0.000 A 
ATOM      9  C   UNL     1      -3.715  11.467  18.450  0.00  0.00    +0.000 A 
ENDROOT
BRANCH   1  10
ATOM     10  C   UNL     1      -5.912  12.365  19.384  0.00  0.00    +0.000 C 
BRANCH  10  15
ATOM     11 BR   UNL     1      -7.486  17.377  16.061  0.00  0.00    +0.000 Br
ATOM     12  C   UNL     1      -7.046  15.839  17.066  0.00  0.00    +0.000 A 
ATOM     13  C   UNL     1      -6.794  15.951  18.430  0.00  0.00    +0.000 A 
ATOM     14  C   UNL     1      -6.455  14.812  19.173  0.00  0.00    +0.000 A 
ATOM     15  C   UNL     1      -6.376  13.548  18.562  0.00  0.00    +0.000 A 
ATOM     16  C   UNL     1      -6.636  13.465  17.183  0.00  0.00    +0.000 A 
ATOM     17  C   UNL     1      -6.972  14.604  16.441  0.00  0.00    +0.000 A 
ENDBRANCH  10  15
ENDBRANCH   1  10
BRANCH   3  18
ATOM     18  C   UNL     1      -1.191  12.927  20.697  0.00  0.00    +0.000 C 
BRANCH  18  19
ATOM     19  C   UNL     1      -0.427  13.994  19.963  0.00  0.00    +0.000 A 
ATOM     20  C   UNL     1       0.804  13.777  19.331  0.00  0.00    +0.000 A 
ATOM     21  C   UNL     1       1.485  14.822  18.693  0.00  0.00    +0.000 A 
ATOM     22  C   UNL     1       0.988  16.105  18.609  0.00  0.00    +0.000 A 
ATOM     23  C   UNL     1      -0.220  16.330  19.239  0.00  0.00    +0.000 A 
ATOM     24  C   UNL     1      -0.881  15.312  19.925  0.00  0.00    +0.000 A 
ATOM     25  O   UNL     1      -1.996  15.762  20.591  0.00  0.00    +0.000 OA
ATOM     26  C   UNL     1      -2.198  17.114  20.114  0.00  0.00    +0.000 C 
ATOM     27  C   UNL     1      -0.975  17.595  19.338  0.00  0.00    +0.000 C 
ATOM     28  O   UNL     1       2.709  14.475  18.186  0.00  0.00    +0.000 OA
ATOM     29  C   UNL     1       2.748  13.039  18.287  0.00  0.00    +0.000 C 
ATOM     30  C   UNL     1       1.660  12.564  19.256  0.00  0.00    +0.000 C 
ENDBRANCH  18  19
ENDBRANCH   3  18
TORSDOF 4
ENDMDL
MODEL 8
REMARK VINA RESULT:      -7.3      4.646      8.337
REMARK  Name = 
REMARK  4 active torsions:
REMARK  status: ('A' for Active; 'I' for Inactive)
REMARK    1  A    between atoms: C_5  and  C_6
REMARK    2  A    between atoms: C_6  and  N_7
REMARK    3  A    between atoms: N_9  and  C_10
REMARK    4  A    between atoms: C_10  and  C_11
REMARK                            x       y       z     vdW  Elec       q    Type
REMARK                         _______ _______ _______ _____ _____    ______ ____
ROOT
ATOM      1  N   UNL     1       1.095  10.850  18.604  0.00  0.00    +0.000 N 
ATOM      2  C   UNL     1       1.565  11.863  19.351  0.00  0.00    +0.000 A 
ATOM      3  N   UNL     1       0.537  12.605  19.785  0.00  0.00    +0.000 N 
ATOM      4  C   UNL     1      -0.650  12.071  19.282  0.00  0.00    +0.000 A 
ATOM      5  C   UNL     1      -1.974  12.494  19.365  0.00  0.00    +0.000 A 
ATOM      6  C   UNL     1      -2.919  11.710  18.689  0.00  0.00    +0.000 A 
ATOM      7  C   UNL     1      -2.558  10.542  17.990  0.00  0.00    +0.000 A 
ATOM      8  C   UNL     1      -1.229  10.110  17.926  0.00  0.00    +0.000 A 
ATOM      9  C   UNL     1      -0.291  10.916  18.570  0.00  0.00    +0.000 A 
ENDROOT
BRANCH   1  10
ATOM     10  C   UNL     1       1.944   9.859  17.942  0.00  0.00    +0.000 C 
BRANCH  10  15
ATOM     11 BR   UNL     1       2.255   4.431  20.956  0.00  0.00    +0.000 Br
ATOM     12  C   UNL     1       2.120   6.078  20.041  0.00  0.00    +0.000 A 
ATOM     13  C   UNL     1       2.529   6.170  18.713  0.00  0.00    +0.000 A 
ATOM     14  C   UNL     1       2.439   7.395  18.039  0.00  0.00    +0.000 A 
ATOM     15  C   UNL     1       1.931   8.538  18.681  0.00  0.00    +0.000 A 
ATOM     16  C   UNL     1       1.524   8.416  20.021  0.00  0.00    +0.000 A 
ATOM     17  C   UNL     1       1.615   7.192  20.695  0.00  0.00    +0.000 A 
ENDBRANCH  10  15
ENDBRANCH   1  10
BRANCH   3  18
ATOM     18  C   UNL     1       0.698  13.816  20.610  0.00  0.00    +0.000 C 
BRANCH  18  19
ATOM     19  C   UNL     1       0.627  15.067  19.778  0.00  0.00    +0.000 A 
ATOM     20  C   UNL     1      -0.492  15.908  19.728  0.00  0.00    +0.000 A 
ATOM     21  C   UNL     1      -0.512  17.042  18.905  0.00  0.00    +0.000 A 
ATOM     22  C   UNL     1       0.560  17.427  18.128  0.00  0.00    +0.000 A 
ATOM     23  C   UNL     1       1.663  16.597  18.163  0.00  0.00    +0.000 A 
ATOM     24  C   UNL     1       1.675  15.436  18.935  0.00  0.00    +0.000 A 
ATOM     25  O   UNL     1       2.805  14.681  18.737  0.00  0.00    +0.000 OA
ATOM     26  C   UNL     1       3.689  15.525  17.961  0.00  0.00    +0.000 C 
ATOM     27  C   UNL     1       2.935  16.738  17.424  0.00  0.00    +0.000 C 
ATOM     28  O   UNL     1      -1.699  17.723  18.906  0.00  0.00    +0.000 OA
ATOM     29  C   UNL     1      -2.452  17.137  19.984  0.00  0.00    +0.000 C 
ATOM     30  C   UNL     1      -1.827  15.793  20.373  0.00  0.00    +0.000 C 
ENDBRANCH  18  19
ENDBRANCH   3  18
TORSDOF 4
ENDMDL
MODEL 9
REMARK VINA RESULT:      -7.2      4.804      8.022
REMARK  Name = 
REMARK  4 active torsions:
REMARK  status: ('A' for Active; 'I' for Inactive)
REMARK    1  A    between atoms: C_5  and  C_6
REMARK    2  A    between atoms: C_6  and  N_7
REMARK    3  A    between atoms: N_9  and  C_10
REMARK    4  A    between atoms: C_10  and  C_11
REMARK                            x       y       z     vdW  Elec       q    Type
REMARK                         _______ _______ _______ _____ _____    ______ ____
ROOT
ATOM      1  N   UNL     1       1.047  10.820  18.638  0.00  0.00    +0.000 N 
ATOM      2  C   UNL     1       1.464  11.794  19.465  0.00  0.00    +0.000 A 
ATOM      3  N   UNL     1       0.404  12.501  19.883  0.00  0.00    +0.000 N 
ATOM      4  C   UNL     1      -0.747  11.985  19.287  0.00  0.00    +0.000 A 
ATOM      5  C   UNL     1      -2.078  12.390  19.323  0.00  0.00    +0.000 A 
ATOM      6  C   UNL     1      -2.976  11.637  18.553  0.00  0.00    +0.000 A 
ATOM      7  C   UNL     1      -2.564  10.514  17.811  0.00  0.00    +0.000 A 
ATOM      8  C   UNL     1      -1.229  10.098  17.795  0.00  0.00    +0.000 A 
ATOM      9  C   UNL     1      -0.336  10.876  18.533  0.00  0.00    +0.000 A 
ENDROOT
BRANCH   1  10
ATOM     10  C   UNL     1       1.942   9.876  17.969  0.00  0.00    +0.000 C 
BRANCH  10  15
ATOM     11 BR   UNL     1       2.330   4.353  20.795  0.00  0.00    +0.000 Br
ATOM     12  C   UNL     1       2.171   6.029  19.938  0.00  0.00    +0.000 A 
ATOM     13  C   UNL     1       2.542   6.163  18.603  0.00  0.00    +0.000 A 
ATOM     14  C   UNL     1       2.436   7.410  17.972  0.00  0.00    +0.000 A 
ATOM     15  C   UNL     1       1.947   8.531  18.665  0.00  0.00    +0.000 A 
ATOM     16  C   UNL     1       1.579   8.367  20.011  0.00  0.00    +0.000 A 
ATOM     17  C   UNL     1       1.688   7.121  20.642  0.00  0.00    +0.000 A 
ENDBRANCH  10  15
ENDBRANCH   1  10
BRANCH   3  18
ATOM     18  C   UNL     1       0.506  13.665  20.782  0.00  0.00    +0.000 C 
BRANCH  18  19
ATOM     19  C   UNL     1       1.365  14.748  20.190  0.00  0.00    +0.000 A 
ATOM     20  C   UNL     1       2.734  14.889  20.454  0.00  0.00    +0.000 A 
ATOM     21  C   UNL     1       3.474  15.942  19.899  0.00  0.00    +0.000 A 
ATOM     22  C   UNL     1       2.932  16.875  19.042  0.00  0.00    +0.000 A 
ATOM     23  C   UNL     1       1.581  16.749  18.785  0.00  0.00    +0.000 A 
ATOM     24  C   UNL     1       0.821  15.740  19.374  0.00  0.00    +0.000 A 
ATOM     25  O   UNL     1      -0.520  15.859  19.100  0.00  0.00    +0.000 OA
ATOM     26  C   UNL     1      -0.604  16.879  18.075  0.00  0.00    +0.000 C 
ATOM     27  C   UNL     1       0.730  17.608  17.936  0.00  0.00    +0.000 C 
ATOM     28  O   UNL     1       4.781  15.992  20.307  0.00  0.00    +0.000 OA
ATOM     29  C   UNL     1       4.991  14.749  21.002  0.00  0.00    +0.000 C 
ATOM     30  C   UNL     1       3.637  14.123  21.352  0.00  0.00    +0.000 C 
ENDBRANCH  18  19
ENDBRANCH   3  18
TORSDOF 4
ENDMDL
