MODEL 1
REMARK VINA RESULT:      -8.3      0.000      0.000
REMARK  Name = 
REMARK  5 active torsions:
REMARK  status: ('A' for Active; 'I' for Inactive)
REMARK    1  A    between atoms: C_2  and  C_3
REMARK    2  A    between atoms: C_7  and  N_8
REMARK    3  A    between atoms: C_9  and  C_11
REMARK    4  A    between atoms: C_11  and  C_12
REMARK    5  A    between atoms: C_14  and  N_15
REMARK                            x       y       z     vdW  Elec       q    Type
REMARK                         _______ _______ _______ _____ _____    ______ ____
ROOT
ATOM      1  C   UNL     1       7.123   6.020  17.610  0.00  0.00    +0.000 A 
ATOM      2  N   UNL     1       6.040   5.468  18.056  0.00  0.00    +0.000 NA
ATOM      3  C   UNL     1       5.229   4.812  17.157  0.00  0.00    +0.000 A 
ATOM      4  C   UNL     1       5.587   4.668  15.867  0.00  0.00    +0.000 A 
ATOM      5  C   UNL     1       6.818   5.277  15.374  0.00  0.00    +0.000 A 
ATOM      6  O   UNL     1       7.168   5.178  14.203  0.00  0.00    +0.000 OA
ATOM      7  N   UNL     1       7.526   5.961  16.307  0.00  0.00    +0.000 N 
ATOM      8  H   UNL     1       8.380   6.391  15.980  0.00  0.00    +0.000 HD
ENDROOT
BRANCH   3   9
ATOM      9  N   UNL     1       4.014   4.270  17.565  0.00  0.00    +0.000 N 
ATOM     10  C   UNL     1       3.861   2.863  17.984  0.00  0.00    +0.000 C 
ATOM     11  C   UNL     1       2.451   2.372  17.592  0.00  0.00    +0.000 C 
ATOM     12  O   UNL     1       1.411   3.222  18.110  0.00  0.00    +0.000 OA
ATOM     13  C   UNL     1       1.593   4.573  17.659  0.00  0.00    +0.000 C 
ATOM     14  C   UNL     1       2.942   5.118  18.127  0.00  0.00    +0.000 C 
ENDBRANCH   3   9
BRANCH   1  15
ATOM     15  C   UNL     1       8.033   6.754  18.547  0.00  0.00    +0.000 C 
BRANCH  15  17
ATOM     16  N   UNL     1       9.014   8.925  19.191  0.00  0.00    +0.000 N 
ATOM     17  C   UNL     1       8.197   8.232  18.311  0.00  0.00    +0.000 C 
ATOM     18  O   UNL     1       7.665   8.717  17.306  0.00  0.00    +0.000 OA
ATOM     19  H   UNL     1       9.526   8.367  19.879  0.00  0.00    +0.000 HD
BRANCH  16  24
ATOM     20  C   UNL     1       9.390  12.462  20.297  0.00  0.00    +0.000 A 
ATOM     21  C   UNL     1       9.834  13.079  19.123  0.00  0.00    +0.000 A 
ATOM     22  C   UNL     1       9.976  12.330  17.962  0.00  0.00    +0.000 A 
ATOM     23  C   UNL     1       9.693  10.962  17.976  0.00  0.00    +0.000 A 
ATOM     24  C   UNL     1       9.273  10.318  19.147  0.00  0.00    +0.000 A 
ATOM     25  C   UNL     1       9.099  11.085  20.304  0.00  0.00    +0.000 A 
BRANCH  20  27
ATOM     26  N   UNL     1       9.135  13.876  22.459  0.00  0.00    +0.000 NA
ATOM     27  C   UNL     1       9.250  13.245  21.494  0.00  0.00    +0.000 C 
ENDBRANCH  20  27
ENDBRANCH  16  24
ENDBRANCH  15  17
ENDBRANCH   1  15
TORSDOF 5
ENDMDL
MODEL 2
REMARK VINA RESULT:      -8.2      1.332      2.175
REMARK  Name = 
REMARK  5 active torsions:
REMARK  status: ('A' for Active; 'I' for Inactive)
REMARK    1  A    between atoms: C_2  and  C_3
REMARK    2  A    between atoms: C_7  and  N_8
REMARK    3  A    between atoms: C_9  and  C_11
REMARK    4  A    between atoms: C_11  and  C_12
REMARK    5  A    between atoms: C_14  and  N_15
REMARK                            x       y       z     vdW  Elec       q    Type
REMARK                         _______ _______ _______ _____ _____    ______ ____
ROOT
ATOM      1  C   UNL     1       7.073   6.189  17.601  0.00  0.00    +0.000 A 
ATOM      2  N   UNL     1       5.954   5.746  18.078  0.00  0.00    +0.000 NA
ATOM      3  C   UNL     1       5.061   5.165  17.206  0.00  0.00    +0.000 A 
ATOM      4  C   UNL     1       5.370   4.979  15.908  0.00  0.00    +0.000 A 
ATOM      5  C   UNL     1       6.641   5.463  15.380  0.00  0.00    +0.000 A 
ATOM      6  O   UNL     1       6.949   5.324  14.202  0.00  0.00    +0.000 OA
ATOM      7  N   UNL     1       7.435   6.083  16.288  0.00  0.00    +0.000 N 
ATOM      8  H   UNL     1       8.317   6.427  15.936  0.00  0.00    +0.000 HD
ENDROOT
BRANCH   3   9
ATOM      9  N   UNL     1       3.810   4.745  17.649  0.00  0.00    +0.000 N 
ATOM     10  C   UNL     1       2.759   5.679  18.097  0.00  0.00    +0.000 C 
ATOM     11  C   UNL     1       1.925   5.004  19.206  0.00  0.00    +0.000 C 
ATOM     12  O   UNL     1       1.397   3.729  18.796  0.00  0.00    +0.000 OA
ATOM     13  C   UNL     1       2.459   2.851  18.390  0.00  0.00    +0.000 C 
ATOM     14  C   UNL     1       3.234   3.454  17.219  0.00  0.00    +0.000 C 
ENDBRANCH   3   9
BRANCH   1  15
ATOM     15  C   UNL     1       8.072   6.838  18.508  0.00  0.00    +0.000 C 
BRANCH  15  17
ATOM     16  N   UNL     1       9.095   8.952  19.267  0.00  0.00    +0.000 N 
ATOM     17  C   UNL     1       8.246   8.328  18.366  0.00  0.00    +0.000 C 
ATOM     18  O   UNL     1       7.692   8.884  17.411  0.00  0.00    +0.000 OA
ATOM     19  H   UNL     1       9.619   8.346  19.902  0.00  0.00    +0.000 HD
BRANCH  16  24
ATOM     20  C   UNL     1      10.290  12.329  18.241  0.00  0.00    +0.000 A 
ATOM     21  C   UNL     1       9.878  13.114  19.322  0.00  0.00    +0.000 A 
ATOM     22  C   UNL     1       9.235  12.520  20.401  0.00  0.00    +0.000 A 
ATOM     23  C   UNL     1       8.987  11.145  20.394  0.00  0.00    +0.000 A 
ATOM     24  C   UNL     1       9.367  10.343  19.309  0.00  0.00    +0.000 A 
ATOM     25  C   UNL     1      10.044  10.943  18.241  0.00  0.00    +0.000 A 
BRANCH  20  27
ATOM     26  N   UNL     1      11.483  13.455  16.229  0.00  0.00    +0.000 NA
ATOM     27  C   UNL     1      10.950  12.953  17.128  0.00  0.00    +0.000 C 
ENDBRANCH  20  27
ENDBRANCH  16  24
ENDBRANCH  15  17
ENDBRANCH   1  15
TORSDOF 5
ENDMDL
MODEL 3
REMARK VINA RESULT:      -8.2      0.475      1.054
REMARK  Name = 
REMARK  5 active torsions:
REMARK  status: ('A' for Active; 'I' for Inactive)
REMARK    1  A    between atoms: C_2  and  C_3
REMARK    2  A    between atoms: C_7  and  N_8
REMARK    3  A    between atoms: C_9  and  C_11
REMARK    4  A    between atoms: C_11  and  C_12
REMARK    5  A    between atoms: C_14  and  N_15
REMARK                            x       y       z     vdW  Elec       q    Type
REMARK                         _______ _______ _______ _____ _____    ______ ____
ROOT
ATOM      1  C   UNL     1       7.002   6.111  17.596  0.00  0.00    +0.000 A 
ATOM      2  N   UNL     1       5.899   5.637  18.080  0.00  0.00    +0.000 NA
ATOM      3  C   UNL     1       5.025   5.016  17.215  0.00  0.00    +0.000 A 
ATOM      4  C   UNL     1       5.340   4.825  15.920  0.00  0.00    +0.000 A 
ATOM      5  C   UNL     1       6.593   5.346  15.384  0.00  0.00    +0.000 A 
ATOM      6  O   UNL     1       6.905   5.204  14.207  0.00  0.00    +0.000 OA
ATOM      7  N   UNL     1       7.366   6.002  16.285  0.00  0.00    +0.000 N 
ATOM      8  H   UNL     1       8.237   6.372  15.927  0.00  0.00    +0.000 HD
ENDROOT
BRANCH   3   9
ATOM      9  N   UNL     1       3.790   4.559  17.665  0.00  0.00    +0.000 N 
ATOM     10  C   UNL     1       2.697   5.464  18.071  0.00  0.00    +0.000 C 
ATOM     11  C   UNL     1       1.883   4.794  19.198  0.00  0.00    +0.000 C 
ATOM     12  O   UNL     1       1.411   3.484  18.831  0.00  0.00    +0.000 OA
ATOM     13  C   UNL     1       2.513   2.638  18.464  0.00  0.00    +0.000 C 
ATOM     14  C   UNL     1       3.273   3.230  17.278  0.00  0.00    +0.000 C 
ENDBRANCH   3   9
BRANCH   1  15
ATOM     15  C   UNL     1       7.980   6.804  18.494  0.00  0.00    +0.000 C 
BRANCH  15  17
ATOM     16  N   UNL     1       9.037   8.941  19.134  0.00  0.00    +0.000 N 
ATOM     17  C   UNL     1       8.165   8.283  18.280  0.00  0.00    +0.000 C 
ATOM     18  O   UNL     1       7.597   8.800  17.311  0.00  0.00    +0.000 OA
ATOM     19  H   UNL     1       9.568   8.359  19.786  0.00  0.00    +0.000 HD
BRANCH  16  24
ATOM     20  C   UNL     1       9.504  12.453  20.284  0.00  0.00    +0.000 A 
ATOM     21  C   UNL     1       9.939  13.078  19.112  0.00  0.00    +0.000 A 
ATOM     22  C   UNL     1      10.046  12.343  17.937  0.00  0.00    +0.000 A 
ATOM     23  C   UNL     1       9.736  10.982  17.937  0.00  0.00    +0.000 A 
ATOM     24  C   UNL     1       9.323  10.329  19.106  0.00  0.00    +0.000 A 
ATOM     25  C   UNL     1       9.185  11.082  20.277  0.00  0.00    +0.000 A 
BRANCH  20  27
ATOM     26  N   UNL     1       9.318  13.842  22.470  0.00  0.00    +0.000 NA
ATOM     27  C   UNL     1       9.401  13.220  21.494  0.00  0.00    +0.000 C 
ENDBRANCH  20  27
ENDBRANCH  16  24
ENDBRANCH  15  17
ENDBRANCH   1  15
TORSDOF 5
ENDMDL
MODEL 4
REMARK VINA RESULT:      -8.0      1.725      1.938
REMARK  Name = 
REMARK  5 active torsions:
REMARK  status: ('A' for Active; 'I' for Inactive)
REMARK    1  A    between atoms: C_2  and  C_3
REMARK    2  A    between atoms: C_7  and  N_8
REMARK    3  A    between atoms: C_9  and  C_11
REMARK    4  A    between atoms: C_11  and  C_12
REMARK    5  A    between atoms: C_14  and  N_15
REMARK                            x       y       z     vdW  Elec       q    Type
REMARK                         _______ _______ _______ _____ _____    ______ ____
ROOT
ATOM      1  C   UNL     1       7.183   6.202  17.774  0.00  0.00    +0.000 A 
ATOM      2  N   UNL     1       6.257   5.508  18.355  0.00  0.00    +0.000 NA
ATOM      3  C   UNL     1       5.506   4.651  17.582  0.00  0.00    +0.000 A 
ATOM      4  C   UNL     1       5.778   4.467  16.276  0.00  0.00    +0.000 A 
ATOM      5  C   UNL     1       6.835   5.237  15.630  0.00  0.00    +0.000 A 
ATOM      6  O   UNL     1       7.100   5.106  14.441  0.00  0.00    +0.000 OA
ATOM      7  N   UNL     1       7.482   6.107  16.445  0.00  0.00    +0.000 N 
ATOM      8  H   UNL     1       8.216   6.651  16.011  0.00  0.00    +0.000 HD
ENDROOT
BRANCH   3   9
ATOM      9  N   UNL     1       4.445   3.942  18.138  0.00  0.00    +0.000 N 
ATOM     10  C   UNL     1       4.068   4.042  19.561  0.00  0.00    +0.000 C 
ATOM     11  C   UNL     1       3.509   2.683  20.031  0.00  0.00    +0.000 C 
ATOM     12  O   UNL     1       2.427   2.219  19.201  0.00  0.00    +0.000 OA
ATOM     13  C   UNL     1       2.850   2.118  17.832  0.00  0.00    +0.000 C 
ATOM     14  C   UNL     1       3.310   3.480  17.312  0.00  0.00    +0.000 C 
ENDBRANCH   3   9
BRANCH   1  15
ATOM     15  C   UNL     1       8.019   7.155  18.570  0.00  0.00    +0.000 C 
BRANCH  15  17
ATOM     16  N   UNL     1       9.081   9.381  18.649  0.00  0.00    +0.000 N 
ATOM     17  C   UNL     1       8.180   8.543  18.010  0.00  0.00    +0.000 C 
ATOM     18  O   UNL     1       7.568   8.820  16.972  0.00  0.00    +0.000 OA
ATOM     19  H   UNL     1       9.644   8.967  19.395  0.00  0.00    +0.000 HD
BRANCH  16  24
ATOM     20  C   UNL     1       8.540  12.976  17.832  0.00  0.00    +0.000 A 
ATOM     21  C   UNL     1       9.850  13.418  17.625  0.00  0.00    +0.000 A 
ATOM     22  C   UNL     1      10.905  12.520  17.725  0.00  0.00    +0.000 A 
ATOM     23  C   UNL     1      10.655  11.184  18.048  0.00  0.00    +0.000 A 
ATOM     24  C   UNL     1       9.353  10.725  18.286  0.00  0.00    +0.000 A 
ATOM     25  C   UNL     1       8.292  11.627  18.151  0.00  0.00    +0.000 A 
BRANCH  20  27
ATOM     26  N   UNL     1       6.582  14.672  17.653  0.00  0.00    +0.000 NA
ATOM     27  C   UNL     1       7.456  13.914  17.732  0.00  0.00    +0.000 C 
ENDBRANCH  20  27
ENDBRANCH  16  24
ENDBRANCH  15  17
ENDBRANCH   1  15
TORSDOF 5
ENDMDL
MODEL 5
REMARK VINA RESULT:      -7.8      1.208      1.638
REMARK  Name = 
REMARK  5 active torsions:
REMARK  status: ('A' for Active; 'I' for Inactive)
REMARK    1  A    between atoms: C_2  and  C_3
REMARK    2  A    between atoms: C_7  and  N_8
REMARK    3  A    between atoms: C_9  and  C_11
REMARK    4  A    between atoms: C_11  and  C_12
REMARK    5  A    between atoms: C_14  and  N_15
REMARK                            x       y       z     vdW  Elec       q    Type
REMARK                         _______ _______ _______ _____ _____    ______ ____
ROOT
ATOM      1  C   UNL     1       6.876   6.316  17.968  0.00  0.00    +0.000 A 
ATOM      2  N   UNL     1       6.064   5.673  18.744  0.00  0.00    +0.000 NA
ATOM      3  C   UNL     1       4.934   5.120  18.184  0.00  0.00    +0.000 A 
ATOM      4  C   UNL     1       4.716   5.166  16.856  0.00  0.00    +0.000 A 
ATOM      5  C   UNL     1       5.645   5.876  15.984  0.00  0.00    +0.000 A 
ATOM      6  O   UNL     1       5.471   5.950  14.773  0.00  0.00    +0.000 OA
ATOM      7  N   UNL     1       6.696   6.450  16.621  0.00  0.00    +0.000 N 
ATOM      8  H   UNL     1       7.348   6.948  16.030  0.00  0.00    +0.000 HD
ENDROOT
BRANCH   3   9
ATOM      9  N   UNL     1       3.986   4.487  18.983  0.00  0.00    +0.000 N 
ATOM     10  C   UNL     1       2.743   5.145  19.432  0.00  0.00    +0.000 C 
ATOM     11  C   UNL     1       2.361   4.602  20.825  0.00  0.00    +0.000 C 
ATOM     12  O   UNL     1       2.267   3.165  20.847  0.00  0.00    +0.000 OA
ATOM     13  C   UNL     1       3.506   2.574  20.422  0.00  0.00    +0.000 C 
ATOM     14  C   UNL     1       3.851   3.016  19.000  0.00  0.00    +0.000 C 
ENDBRANCH   3   9
BRANCH   1  15
ATOM     15  C   UNL     1       8.114   6.944  18.531  0.00  0.00    +0.000 C 
BRANCH  15  17
ATOM     16  N   UNL     1       9.150   9.087  19.184  0.00  0.00    +0.000 N 
ATOM     17  C   UNL     1       8.262   8.431  18.345  0.00  0.00    +0.000 C 
ATOM     18  O   UNL     1       7.652   8.958  17.408  0.00  0.00    +0.000 OA
ATOM     19  H   UNL     1       9.714   8.502  19.804  0.00  0.00    +0.000 HD
BRANCH  16  24
ATOM     20  C   UNL     1       9.477  12.602  20.374  0.00  0.00    +0.000 A 
ATOM     21  C   UNL     1       9.965  13.243  19.231  0.00  0.00    +0.000 A 
ATOM     22  C   UNL     1      10.154  12.517  18.061  0.00  0.00    +0.000 A 
ATOM     23  C   UNL     1       9.872  11.149  18.037  0.00  0.00    +0.000 A 
ATOM     24  C   UNL     1       9.408  10.481  19.178  0.00  0.00    +0.000 A 
ATOM     25  C   UNL     1       9.188  11.225  20.342  0.00  0.00    +0.000 A 
BRANCH  20  27
ATOM     26  N   UNL     1       9.141  13.971  22.554  0.00  0.00    +0.000 NA
ATOM     27  C   UNL     1       9.290  13.360  21.580  0.00  0.00    +0.000 C 
ENDBRANCH  20  27
ENDBRANCH  16  24
ENDBRANCH  15  17
ENDBRANCH   1  15
TORSDOF 5
ENDMDL
MODEL 6
REMARK VINA RESULT:      -7.8      1.708      1.805
REMARK  Name = 
REMARK  5 active torsions:
REMARK  status: ('A' for Active; 'I' for Inactive)
REMARK    1  A    between atoms: C_2  and  C_3
REMARK    2  A    between atoms: C_7  and  N_8
REMARK    3  A    between atoms: C_9  and  C_11
REMARK    4  A    between atoms: C_11  and  C_12
REMARK    5  A    between atoms: C_14  and  N_15
REMARK                            x       y       z     vdW  Elec       q    Type
REMARK                         _______ _______ _______ _____ _____    ______ ____
ROOT
ATOM      1  C   UNL     1       6.671   5.228  17.980  0.00  0.00    +0.000 A 
ATOM      2  N   UNL     1       5.670   4.822  18.692  0.00  0.00    +0.000 NA
ATOM      3  C   UNL     1       4.701   4.062  18.076  0.00  0.00    +0.000 A 
ATOM      4  C   UNL     1       4.827   3.672  16.793  0.00  0.00    +0.000 A 
ATOM      5  C   UNL     1       5.968   4.118  16.000  0.00  0.00    +0.000 A 
ATOM      6  O   UNL     1       6.107   3.795  14.826  0.00  0.00    +0.000 OA
ATOM      7  N   UNL     1       6.841   4.918  16.661  0.00  0.00    +0.000 N 
ATOM      8  H   UNL     1       7.636   5.237  16.123  0.00  0.00    +0.000 HD
ENDROOT
BRANCH   3   9
ATOM      9  N   UNL     1       3.563   3.665  18.774  0.00  0.00    +0.000 N 
ATOM     10  C   UNL     1       3.070   2.275  18.785  0.00  0.00    +0.000 C 
ATOM     11  C   UNL     1       1.530   2.287  18.888  0.00  0.00    +0.000 C 
ATOM     12  O   UNL     1       1.062   3.051  20.016  0.00  0.00    +0.000 OA
ATOM     13  C   UNL     1       1.551   4.400  19.947  0.00  0.00    +0.000 C 
ATOM     14  C   UNL     1       3.080   4.417  19.951  0.00  0.00    +0.000 C 
ENDBRANCH   3   9
BRANCH   1  15
ATOM     15  C   UNL     1       7.745   6.066  18.602  0.00  0.00    +0.000 C 
BRANCH  15  17
ATOM     16  N   UNL     1       8.577   8.373  18.885  0.00  0.00    +0.000 N 
ATOM     17  C   UNL     1       7.889   7.474  18.085  0.00  0.00    +0.000 C 
ATOM     18  O   UNL     1       7.461   7.717  16.951  0.00  0.00    +0.000 OA
ATOM     19  H   UNL     1       9.023   7.994  19.723  0.00  0.00    +0.000 HD
BRANCH  16  24
ATOM     20  C   UNL     1      10.191  11.728  18.767  0.00  0.00    +0.000 A 
ATOM     21  C   UNL     1       9.301  12.441  17.959  0.00  0.00    +0.000 A 
ATOM     22  C   UNL     1       8.154  11.819  17.481  0.00  0.00    +0.000 A 
ATOM     23  C   UNL     1       7.904  10.482  17.796  0.00  0.00    +0.000 A 
ATOM     24  C   UNL     1       8.795   9.740  18.583  0.00  0.00    +0.000 A 
ATOM     25  C   UNL     1       9.931  10.382  19.088  0.00  0.00    +0.000 A 
BRANCH  20  27
ATOM     26  N   UNL     1      12.332  12.905  19.646  0.00  0.00    +0.000 NA
ATOM     27  C   UNL     1      11.377  12.378  19.253  0.00  0.00    +0.000 C 
ENDBRANCH  20  27
ENDBRANCH  16  24
ENDBRANCH  15  17
ENDBRANCH   1  15
TORSDOF 5
ENDMDL
MODEL 7
REMARK VINA RESULT:      -7.7      1.682      2.247
REMARK  Name = 
REMARK  5 active torsions:
REMARK  status: ('A' for Active; 'I' for Inactive)
REMARK    1  A    between atoms: C_2  and  C_3
REMARK    2  A    between atoms: C_7  and  N_8
REMARK    3  A    between atoms: C_9  and  C_11
REMARK    4  A    between atoms: C_11  and  C_12
REMARK    5  A    between atoms: C_14  and  N_15
REMARK                            x       y       z     vdW  Elec       q    Type
REMARK                         _______ _______ _______ _____ _____    ______ ____
ROOT
ATOM      1  C   UNL     1       6.797   6.357  17.817  0.00  0.00    +0.000 A 
ATOM      2  N   UNL     1       6.151   5.383  18.375  0.00  0.00    +0.000 NA
ATOM      3  C   UNL     1       5.015   4.917  17.752  0.00  0.00    +0.000 A 
ATOM      4  C   UNL     1       4.628   5.393  16.553  0.00  0.00    +0.000 A 
ATOM      5  C   UNL     1       5.371   6.478  15.920  0.00  0.00    +0.000 A 
ATOM      6  O   UNL     1       5.039   6.945  14.837  0.00  0.00    +0.000 OA
ATOM      7  N   UNL     1       6.437   6.926  16.629  0.00  0.00    +0.000 N 
ATOM      8  H   UNL     1       6.959   7.680  16.205  0.00  0.00    +0.000 HD
ENDROOT
BRANCH   3   9
ATOM      9  N   UNL     1       4.238   3.927  18.347  0.00  0.00    +0.000 N 
ATOM     10  C   UNL     1       3.760   2.734  17.620  0.00  0.00    +0.000 C 
ATOM     11  C   UNL     1       2.388   2.316  18.189  0.00  0.00    +0.000 C 
ATOM     12  O   UNL     1       2.421   2.120  19.615  0.00  0.00    +0.000 OA
ATOM     13  C   UNL     1       2.872   3.313  20.276  0.00  0.00    +0.000 C 
ATOM     14  C   UNL     1       4.277   3.688  19.804  0.00  0.00    +0.000 C 
ENDBRANCH   3   9
BRANCH   1  15
ATOM     15  C   UNL     1       8.032   6.906  18.461  0.00  0.00    +0.000 C 
BRANCH  15  17
ATOM     16  N   UNL     1       9.156   8.950  19.268  0.00  0.00    +0.000 N 
ATOM     17  C   UNL     1       8.211   8.401  18.415  0.00  0.00    +0.000 C 
ATOM     18  O   UNL     1       7.571   9.031  17.566  0.00  0.00    +0.000 OA
ATOM     19  H   UNL     1       9.733   8.293  19.799  0.00  0.00    +0.000 HD
BRANCH  16  24
ATOM     20  C   UNL     1      10.316  12.380  18.392  0.00  0.00    +0.000 A 
ATOM     21  C   UNL     1      10.000  13.090  19.554  0.00  0.00    +0.000 A 
ATOM     22  C   UNL     1       9.434  12.426  20.635  0.00  0.00    +0.000 A 
ATOM     23  C   UNL     1       9.167  11.058  20.551  0.00  0.00    +0.000 A 
ATOM     24  C   UNL     1       9.451  10.331  19.387  0.00  0.00    +0.000 A 
ATOM     25  C   UNL     1      10.052  10.999  18.314  0.00  0.00    +0.000 A 
BRANCH  20  27
ATOM     26  N   UNL     1      11.363  13.639  16.377  0.00  0.00    +0.000 NA
ATOM     27  C   UNL     1      10.897  13.076  17.277  0.00  0.00    +0.000 C 
ENDBRANCH  20  27
ENDBRANCH  16  24
ENDBRANCH  15  17
ENDBRANCH   1  15
TORSDOF 5
ENDMDL
MODEL 8
REMARK VINA RESULT:      -7.7      4.974      6.617
REMARK  Name = 
REMARK  5 active torsions:
REMARK  status: ('A' for Active; 'I' for Inactive)
REMARK    1  A    between atoms: C_2  and  C_3
REMARK    2  A    between atoms: C_7  and  N_8
REMARK    3  A    between atoms: C_9  and  C_11
REMARK    4  A    between atoms: C_11  and  C_12
REMARK    5  A    between atoms: C_14  and  N_15
REMARK                            x       y       z     vdW  Elec       q    Type
REMARK                         _______ _______ _______ _____ _____    ______ ____
ROOT
ATOM      1  C   UNL     1       4.954   4.057  17.996  0.00  0.00    +0.000 A 
ATOM      2  N   UNL     1       5.070   4.022  16.707  0.00  0.00    +0.000 NA
ATOM      3  C   UNL     1       6.281   4.372  16.154  0.00  0.00    +0.000 A 
ATOM      4  C   UNL     1       7.346   4.659  16.927  0.00  0.00    +0.000 A 
ATOM      5  C   UNL     1       7.215   4.678  18.380  0.00  0.00    +0.000 A 
ATOM      6  O   UNL     1       8.159   4.948  19.114  0.00  0.00    +0.000 OA
ATOM      7  N   UNL     1       5.973   4.387  18.842  0.00  0.00    +0.000 N 
ATOM      8  H   UNL     1       5.866   4.399  19.847  0.00  0.00    +0.000 HD
ENDROOT
BRANCH   3   9
ATOM      9  N   UNL     1       6.438   4.431  14.772  0.00  0.00    +0.000 N 
ATOM     10  C   UNL     1       5.457   3.866  13.826  0.00  0.00    +0.000 C 
ATOM     11  C   UNL     1       6.201   3.358  12.573  0.00  0.00    +0.000 C 
ATOM     12  O   UNL     1       7.026   4.375  11.975  0.00  0.00    +0.000 OA
ATOM     13  C   UNL     1       7.976   4.877  12.929  0.00  0.00    +0.000 C 
ATOM     14  C   UNL     1       7.257   5.482  14.134  0.00  0.00    +0.000 C 
ENDBRANCH   3   9
BRANCH   1  15
ATOM     15  C   UNL     1       3.653   3.694  18.643  0.00  0.00    +0.000 C 
BRANCH  15  17
ATOM     16  N   UNL     1       3.126   6.105  18.603  0.00  0.00    +0.000 N 
ATOM     17  C   UNL     1       2.709   4.828  18.945  0.00  0.00    +0.000 C 
ATOM     18  O   UNL     1       1.594   4.544  19.398  0.00  0.00    +0.000 OA
ATOM     19  H   UNL     1       4.003   6.178  18.081  0.00  0.00    +0.000 HD
BRANCH  16  24
ATOM     20  C   UNL     1       1.322   8.835  20.384  0.00  0.00    +0.000 A 
ATOM     21  C   UNL     1       0.984   9.686  19.327  0.00  0.00    +0.000 A 
ATOM     22  C   UNL     1       1.326   9.338  18.026  0.00  0.00    +0.000 A 
ATOM     23  C   UNL     1       2.019   8.151  17.781  0.00  0.00    +0.000 A 
ATOM     24  C   UNL     1       2.392   7.296  18.827  0.00  0.00    +0.000 A 
ATOM     25  C   UNL     1       2.015   7.636  20.131  0.00  0.00    +0.000 A 
BRANCH  20  27
ATOM     26  N   UNL     1       0.686   9.504  22.811  0.00  0.00    +0.000 NA
ATOM     27  C   UNL     1       0.969   9.205  21.726  0.00  0.00    +0.000 C 
ENDBRANCH  20  27
ENDBRANCH  16  24
ENDBRANCH  15  17
ENDBRANCH   1  15
TORSDOF 5
ENDMDL
MODEL 9
REMARK VINA RESULT:      -7.6      5.098      7.800
REMARK  Name = 
REMARK  5 active torsions:
REMARK  status: ('A' for Active; 'I' for Inactive)
REMARK    1  A    between atoms: C_2  and  C_3
REMARK    2  A    between atoms: C_7  and  N_8
REMARK    3  A    between atoms: C_9  and  C_11
REMARK    4  A    between atoms: C_11  and  C_12
REMARK    5  A    between atoms: C_14  and  N_15
REMARK                            x       y       z     vdW  Elec       q    Type
REMARK                         _______ _______ _______ _____ _____    ______ ____
ROOT
ATOM      1  C   UNL     1       4.621   4.999  18.341  0.00  0.00    +0.000 A 
ATOM      2  N   UNL     1       4.141   6.150  18.687  0.00  0.00    +0.000 NA
ATOM      3  C   UNL     1       2.777   6.330  18.625  0.00  0.00    +0.000 A 
ATOM      4  C   UNL     1       1.951   5.318  18.300  0.00  0.00    +0.000 A 
ATOM      5  C   UNL     1       2.497   4.016  17.928  0.00  0.00    +0.000 A 
ATOM      6  O   UNL     1       1.776   3.077  17.613  0.00  0.00    +0.000 OA
ATOM      7  N   UNL     1       3.851   3.941  17.951  0.00  0.00    +0.000 N 
ATOM      8  H   UNL     1       4.244   3.045  17.693  0.00  0.00    +0.000 HD
ENDROOT
BRANCH   3   9
ATOM      9  N   UNL     1       2.214   7.571  18.908  0.00  0.00    +0.000 N 
ATOM     10  C   UNL     1       1.933   8.033  20.281  0.00  0.00    +0.000 C 
ATOM     11  C   UNL     1       0.681   8.934  20.263  0.00  0.00    +0.000 C 
ATOM     12  O   UNL     1       0.801  10.021  19.326  0.00  0.00    +0.000 OA
ATOM     13  C   UNL     1       1.053   9.520  18.003  0.00  0.00    +0.000 C 
ATOM     14  C   UNL     1       2.349   8.710  17.976  0.00  0.00    +0.000 C 
ENDBRANCH   3   9
BRANCH   1  15
ATOM     15  C   UNL     1       6.098   4.757  18.382  0.00  0.00    +0.000 C 
BRANCH  15  17
ATOM     16  N   UNL     1       6.042   4.788  15.915  0.00  0.00    +0.000 N 
ATOM     17  C   UNL     1       6.785   4.542  17.059  0.00  0.00    +0.000 C 
ATOM     18  O   UNL     1       7.984   4.243  17.075  0.00  0.00    +0.000 OA
ATOM     19  H   UNL     1       5.112   5.192  16.049  0.00  0.00    +0.000 HD
BRANCH  16  24
ATOM     20  C   UNL     1       6.416   3.406  12.475  0.00  0.00    +0.000 A 
ATOM     21  C   UNL     1       7.345   4.288  11.916  0.00  0.00    +0.000 A 
ATOM     22  C   UNL     1       7.869   5.318  12.688  0.00  0.00    +0.000 A 
ATOM     23  C   UNL     1       7.454   5.478  14.012  0.00  0.00    +0.000 A 
ATOM     24  C   UNL     1       6.503   4.621  14.585  0.00  0.00    +0.000 A 
ATOM     25  C   UNL     1       6.005   3.567  13.812  0.00  0.00    +0.000 A 
BRANCH  20  27
ATOM     26  N   UNL     1       5.440   1.491  11.019  0.00  0.00    +0.000 NA
ATOM     27  C   UNL     1       5.876   2.347  11.668  0.00  0.00    +0.000 C 
ENDBRANCH  20  27
ENDBRANCH  16  24
ENDBRANCH  15  17
ENDBRANCH   1  15
TORSDOF 5
ENDMDL
