MODEL 1
REMARK VINA RESULT:      -8.4      0.000      0.000
REMARK  Name = 
REMARK  9 active torsions:
REMARK  status: ('A' for Active; 'I' for Inactive)
REMARK    1  A    between atoms: C_1  and  C_2
REMARK    2  A    between atoms: C_2  and  C_3
REMARK    3  A    between atoms: C_3  and  O_4
REMARK    4  A    between atoms: O_4  and  C_5
REMARK    5  A    between atoms: C_9  and  C_10
REMARK    6  A    between atoms: C_12  and  C_13
REMARK    7  A    between atoms: C_13  and  O_14
REMARK    8  A    between atoms: O_14  and  C_15
REMARK    9  A    between atoms: C_20  and  C_21
REMARK                            x       y       z     vdW  Elec       q    Type
REMARK                         _______ _______ _______ _____ _____    ______ ____
ROOT
ATOM      1  C   UNL     1       7.153   5.141  15.662  0.00  0.00    +0.000 A 
ATOM      2  C   UNL     1       6.866   4.414  16.790  0.00  0.00    +0.000 A 
ATOM      3  C   UNL     1       7.066   5.319  17.857  0.00  0.00    +0.000 A 
ATOM      4  N   UNL     1       7.506   6.504  17.414  0.00  0.00    +0.000 NA
ATOM      5  O   UNL     1       7.558   6.390  16.034  0.00  0.00    +0.000 OA
ENDROOT
BRANCH   1  10
ATOM      6  C   UNL     1       6.147   3.541  12.414  0.00  0.00    +0.000 A 
ATOM      7  C   UNL     1       7.060   4.131  11.539  0.00  0.00    +0.000 A 
ATOM      8  C   UNL     1       7.937   5.115  11.990  0.00  0.00    +0.000 A 
ATOM      9  C   UNL     1       7.933   5.485  13.336  0.00  0.00    +0.000 A 
ATOM     10  C   UNL     1       7.050   4.874  14.237  0.00  0.00    +0.000 A 
ATOM     11  C   UNL     1       6.143   3.917  13.758  0.00  0.00    +0.000 A 
BRANCH   6  12
ATOM     12  O   UNL     1       5.369   2.554  11.874  0.00  0.00    +0.000 OA
BRANCH  12  13
ATOM     13  C   UNL     1       3.993   2.882  11.677  0.00  0.00    +0.000 C 
BRANCH  13  15
ATOM     14  C   UNL     1       2.903   3.823   9.615  0.00  0.00    +0.000 C 
ATOM     15  C   UNL     1       3.926   4.063  10.712  0.00  0.00    +0.000 C 
ENDBRANCH  13  15
ENDBRANCH  12  13
ENDBRANCH   6  12
ENDBRANCH   1  10
BRANCH   3  16
ATOM     16  C   UNL     1       6.834   5.065  19.309  0.00  0.00    +0.000 C 
BRANCH  16  17
ATOM     17  O   UNL     1       5.604   5.669  19.713  0.00  0.00    +0.000 OA
BRANCH  17  18
ATOM     18  C   UNL     1       4.448   5.248  19.118  0.00  0.00    +0.000 A 
ATOM     19  C   UNL     1       3.676   6.301  18.618  0.00  0.00    +0.000 A 
ATOM     20  C   UNL     1       2.458   6.046  17.997  0.00  0.00    +0.000 A 
ATOM     21  C   UNL     1       2.008   4.734  17.875  0.00  0.00    +0.000 A 
ATOM     22  F   UNL     1       0.822   4.542  17.276  0.00  0.00    +0.000 F 
ATOM     23  C   UNL     1       2.757   3.661  18.365  0.00  0.00    +0.000 A 
ATOM     24  C   UNL     1       3.988   3.932  18.982  0.00  0.00    +0.000 A 
ATOM     25  F   UNL     1       4.732   2.924  19.460  0.00  0.00    +0.000 F 
BRANCH  23  26
ATOM     26  C   UNL     1       2.280   2.258  18.262  0.00  0.00    +0.000 C 
ATOM     27  N   UNL     1       1.035   1.963  18.741  0.00  0.00    +0.000 N 
ATOM     28  O   UNL     1       2.962   1.363  17.778  0.00  0.00    +0.000 OA
ATOM     29  H   UNL     1       0.410   2.647  19.149  0.00  0.00    +0.000 HD
ATOM     30  H   UNL     1       0.718   1.004  18.669  0.00  0.00    +0.000 HD
ENDBRANCH  23  26
ENDBRANCH  17  18
ENDBRANCH  16  17
ENDBRANCH   3  16
TORSDOF 8
ENDMDL
MODEL 2
REMARK VINA RESULT:      -8.1      5.270      7.604
REMARK  Name = 
REMARK  9 active torsions:
REMARK  status: ('A' for Active; 'I' for Inactive)
REMARK    1  A    between atoms: C_1  and  C_2
REMARK    2  A    between atoms: C_2  and  C_3
REMARK    3  A    between atoms: C_3  and  O_4
REMARK    4  A    between atoms: O_4  and  C_5
REMARK    5  A    between atoms: C_9  and  C_10
REMARK    6  A    between atoms: C_12  and  C_13
REMARK    7  A    between atoms: C_13  and  O_14
REMARK    8  A    between atoms: O_14  and  C_15
REMARK    9  A    between atoms: C_20  and  C_21
REMARK                            x       y       z     vdW  Elec       q    Type
REMARK                         _______ _______ _______ _____ _____    ______ ____
ROOT
ATOM      1  C   UNL     1       8.463   8.910  18.359  0.00  0.00    +0.000 A 
ATOM      2  C   UNL     1       7.483   8.701  17.421  0.00  0.00    +0.000 A 
ATOM      3  C   UNL     1       7.134   7.339  17.570  0.00  0.00    +0.000 A 
ATOM      4  N   UNL     1       7.894   6.740  18.496  0.00  0.00    +0.000 NA
ATOM      5  O   UNL     1       8.728   7.730  18.991  0.00  0.00    +0.000 OA
ENDROOT
BRANCH   1  10
ATOM      6  C   UNL     1      10.795  11.856  18.409  0.00  0.00    +0.000 A 
ATOM      7  C   UNL     1      10.802  12.160  19.771  0.00  0.00    +0.000 A 
ATOM      8  C   UNL     1       9.977  11.466  20.654  0.00  0.00    +0.000 A 
ATOM      9  C   UNL     1       9.169  10.431  20.182  0.00  0.00    +0.000 A 
ATOM     10  C   UNL     1       9.179  10.086  18.823  0.00  0.00    +0.000 A 
ATOM     11  C   UNL     1       9.982  10.824  17.940  0.00  0.00    +0.000 A 
BRANCH   6  12
ATOM     12  O   UNL     1      11.679  12.568  17.643  0.00  0.00    +0.000 OA
BRANCH  12  13
ATOM     13  C   UNL     1      11.116  13.620  16.858  0.00  0.00    +0.000 C 
BRANCH  13  15
ATOM     14  C   UNL     1      11.020  16.128  16.699  0.00  0.00    +0.000 C 
ATOM     15  C   UNL     1      11.415  14.941  17.561  0.00  0.00    +0.000 C 
ENDBRANCH  13  15
ENDBRANCH  12  13
ENDBRANCH   6  12
ENDBRANCH   1  10
BRANCH   3  16
ATOM     16  C   UNL     1       6.067   6.597  16.835  0.00  0.00    +0.000 C 
BRANCH  16  17
ATOM     17  O   UNL     1       5.987   5.258  17.325  0.00  0.00    +0.000 OA
BRANCH  17  18
ATOM     18  C   UNL     1       4.773   4.793  17.747  0.00  0.00    +0.000 A 
ATOM     19  C   UNL     1       4.141   3.978  16.803  0.00  0.00    +0.000 A 
ATOM     20  C   UNL     1       2.888   3.435  17.068  0.00  0.00    +0.000 A 
ATOM     21  C   UNL     1       2.262   3.709  18.281  0.00  0.00    +0.000 A 
ATOM     22  F   UNL     1       1.050   3.170  18.485  0.00  0.00    +0.000 F 
ATOM     23  C   UNL     1       2.868   4.521  19.245  0.00  0.00    +0.000 A 
ATOM     24  C   UNL     1       4.135   5.054  18.967  0.00  0.00    +0.000 A 
ATOM     25  F   UNL     1       4.745   5.834  19.872  0.00  0.00    +0.000 F 
BRANCH  23  26
ATOM     26  C   UNL     1       2.202   4.840  20.534  0.00  0.00    +0.000 C 
ATOM     27  N   UNL     1       2.230   3.899  21.524  0.00  0.00    +0.000 N 
ATOM     28  O   UNL     1       1.625   5.902  20.733  0.00  0.00    +0.000 OA
ATOM     29  H   UNL     1       2.690   3.001  21.439  0.00  0.00    +0.000 HD
ATOM     30  H   UNL     1       1.771   4.123  22.399  0.00  0.00    +0.000 HD
ENDBRANCH  23  26
ENDBRANCH  17  18
ENDBRANCH  16  17
ENDBRANCH   3  16
TORSDOF 8
ENDMDL
MODEL 3
REMARK VINA RESULT:      -8.1      5.192      7.509
REMARK  Name = 
REMARK  9 active torsions:
REMARK  status: ('A' for Active; 'I' for Inactive)
REMARK    1  A    between atoms: C_1  and  C_2
REMARK    2  A    between atoms: C_2  and  C_3
REMARK    3  A    between atoms: C_3  and  O_4
REMARK    4  A    between atoms: O_4  and  C_5
REMARK    5  A    between atoms: C_9  and  C_10
REMARK    6  A    between atoms: C_12  and  C_13
REMARK    7  A    between atoms: C_13  and  O_14
REMARK    8  A    between atoms: O_14  and  C_15
REMARK    9  A    between atoms: C_20  and  C_21
REMARK                            x       y       z     vdW  Elec       q    Type
REMARK                         _______ _______ _______ _____ _____    ______ ____
ROOT
ATOM      1  C   UNL     1       8.600   9.058  18.467  0.00  0.00    +0.000 A 
ATOM      2  C   UNL     1       8.414   7.826  19.041  0.00  0.00    +0.000 A 
ATOM      3  C   UNL     1       7.686   7.090  18.078  0.00  0.00    +0.000 A 
ATOM      4  N   UNL     1       7.393   7.844  17.010  0.00  0.00    +0.000 NA
ATOM      5  O   UNL     1       7.970   9.080  17.257  0.00  0.00    +0.000 OA
ENDROOT
BRANCH   1  10
ATOM      6  C   UNL     1      10.951  11.983  18.278  0.00  0.00    +0.000 A 
ATOM      7  C   UNL     1      11.033  12.340  19.624  0.00  0.00    +0.000 A 
ATOM      8  C   UNL     1      10.252  11.688  20.577  0.00  0.00    +0.000 A 
ATOM      9  C   UNL     1       9.413  10.643  20.190  0.00  0.00    +0.000 A 
ATOM     10  C   UNL     1       9.348  10.245  18.847  0.00  0.00    +0.000 A 
ATOM     11  C   UNL     1      10.107  10.941  17.893  0.00  0.00    +0.000 A 
BRANCH   6  12
ATOM     12  O   UNL     1      11.798  12.657  17.439  0.00  0.00    +0.000 OA
BRANCH  12  13
ATOM     13  C   UNL     1      12.083  14.010  17.796  0.00  0.00    +0.000 C 
BRANCH  13  15
ATOM     14  C   UNL     1      11.554  16.345  17.028  0.00  0.00    +0.000 C 
ATOM     15  C   UNL     1      11.073  14.906  17.085  0.00  0.00    +0.000 C 
ENDBRANCH  13  15
ENDBRANCH  12  13
ENDBRANCH   6  12
ENDBRANCH   1  10
BRANCH   3  16
ATOM     16  C   UNL     1       7.269   5.660  18.163  0.00  0.00    +0.000 C 
BRANCH  16  17
ATOM     17  O   UNL     1       6.314   5.499  19.213  0.00  0.00    +0.000 OA
BRANCH  17  18
ATOM     18  C   UNL     1       5.040   5.129  18.881  0.00  0.00    +0.000 A 
ATOM     19  C   UNL     1       4.365   6.102  18.137  0.00  0.00    +0.000 A 
ATOM     20  C   UNL     1       3.051   5.891  17.732  0.00  0.00    +0.000 A 
ATOM     21  C   UNL     1       2.408   4.704  18.071  0.00  0.00    +0.000 A 
ATOM     22  F   UNL     1       1.138   4.553  17.665  0.00  0.00    +0.000 F 
ATOM     23  C   UNL     1       3.056   3.713  18.814  0.00  0.00    +0.000 A 
ATOM     24  C   UNL     1       4.384   3.936  19.209  0.00  0.00    +0.000 A 
ATOM     25  F   UNL     1       5.035   3.004  19.920  0.00  0.00    +0.000 F 
BRANCH  23  26
ATOM     26  C   UNL     1       2.375   2.451  19.203  0.00  0.00    +0.000 C 
ATOM     27  N   UNL     1       1.430   2.506  20.189  0.00  0.00    +0.000 N 
ATOM     28  O   UNL     1       2.638   1.373  18.685  0.00  0.00    +0.000 OA
ATOM     29  H   UNL     1       1.154   3.358  20.661  0.00  0.00    +0.000 HD
ATOM     30  H   UNL     1       0.972   1.641  20.450  0.00  0.00    +0.000 HD
ENDBRANCH  23  26
ENDBRANCH  17  18
ENDBRANCH  16  17
ENDBRANCH   3  16
TORSDOF 8
ENDMDL
MODEL 4
REMARK VINA RESULT:      -8.0      5.971      9.212
REMARK  Name = 
REMARK  9 active torsions:
REMARK  status: ('A' for Active; 'I' for Inactive)
REMARK    1  A    between atoms: C_1  and  C_2
REMARK    2  A    between atoms: C_2  and  C_3
REMARK    3  A    between atoms: C_3  and  O_4
REMARK    4  A    between atoms: O_4  and  C_5
REMARK    5  A    between atoms: C_9  and  C_10
REMARK    6  A    between atoms: C_12  and  C_13
REMARK    7  A    between atoms: C_13  and  O_14
REMARK    8  A    between atoms: O_14  and  C_15
REMARK    9  A    between atoms: C_20  and  C_21
REMARK                            x       y       z     vdW  Elec       q    Type
REMARK                         _______ _______ _______ _____ _____    ______ ____
ROOT
ATOM      1  C   UNL     1       6.447   6.054  17.856  0.00  0.00    +0.000 A 
ATOM      2  C   UNL     1       7.301   6.618  18.770  0.00  0.00    +0.000 A 
ATOM      3  C   UNL     1       7.895   7.701  18.083  0.00  0.00    +0.000 A 
ATOM      4  N   UNL     1       7.476   7.758  16.811  0.00  0.00    +0.000 NA
ATOM      5  O   UNL     1       6.565   6.722  16.672  0.00  0.00    +0.000 OA
ENDROOT
BRANCH   1  10
ATOM      6  C   UNL     1       4.286   3.296  19.211  0.00  0.00    +0.000 A 
ATOM      7  C   UNL     1       3.786   2.750  18.029  0.00  0.00    +0.000 A 
ATOM      8  C   UNL     1       4.079   3.338  16.800  0.00  0.00    +0.000 A 
ATOM      9  C   UNL     1       4.912   4.456  16.746  0.00  0.00    +0.000 A 
ATOM     10  C   UNL     1       5.455   4.994  17.922  0.00  0.00    +0.000 A 
ATOM     11  C   UNL     1       5.114   4.416  19.155  0.00  0.00    +0.000 A 
BRANCH   6  12
ATOM     12  O   UNL     1       3.974   2.608  20.354  0.00  0.00    +0.000 OA
BRANCH  12  13
ATOM     13  C   UNL     1       2.581   2.475  20.640  0.00  0.00    +0.000 C 
BRANCH  13  15
ATOM     14  C   UNL     1       1.310   4.645  20.606  0.00  0.00    +0.000 C 
ATOM     15  C   UNL     1       2.149   3.697  21.446  0.00  0.00    +0.000 C 
ENDBRANCH  13  15
ENDBRANCH  12  13
ENDBRANCH   6  12
ENDBRANCH   1  10
BRANCH   3  16
ATOM     16  C   UNL     1       8.861   8.695  18.632  0.00  0.00    +0.000 C 
BRANCH  16  17
ATOM     17  O   UNL     1       8.403  10.019  18.351  0.00  0.00    +0.000 OA
BRANCH  17  18
ATOM     18  C   UNL     1       9.254  11.063  18.584  0.00  0.00    +0.000 A 
ATOM     19  C   UNL     1      10.182  10.798  19.595  0.00  0.00    +0.000 A 
ATOM     20  C   UNL     1      11.111  11.763  19.969  0.00  0.00    +0.000 A 
ATOM     21  C   UNL     1      11.113  13.000  19.330  0.00  0.00    +0.000 A 
ATOM     22  F   UNL     1      12.023  13.901  19.734  0.00  0.00    +0.000 F 
ATOM     23  C   UNL     1      10.198  13.296  18.315  0.00  0.00    +0.000 A 
ATOM     24  C   UNL     1       9.273  12.309  17.943  0.00  0.00    +0.000 A 
ATOM     25  F   UNL     1       8.384  12.559  16.971  0.00  0.00    +0.000 F 
BRANCH  23  26
ATOM     26  C   UNL     1      10.174  14.619  17.640  0.00  0.00    +0.000 C 
ATOM     27  N   UNL     1      10.989  14.806  16.560  0.00  0.00    +0.000 N 
ATOM     28  O   UNL     1       9.464  15.541  18.022  0.00  0.00    +0.000 OA
ATOM     29  H   UNL     1      11.599  14.092  16.181  0.00  0.00    +0.000 HD
ATOM     30  H   UNL     1      10.969  15.712  16.106  0.00  0.00    +0.000 HD
ENDBRANCH  23  26
ENDBRANCH  17  18
ENDBRANCH  16  17
ENDBRANCH   3  16
TORSDOF 8
ENDMDL
MODEL 5
REMARK VINA RESULT:      -7.9      5.045      7.315
REMARK  Name = 
REMARK  9 active torsions:
REMARK  status: ('A' for Active; 'I' for Inactive)
REMARK    1  A    between atoms: C_1  and  C_2
REMARK    2  A    between atoms: C_2  and  C_3
REMARK    3  A    between atoms: C_3  and  O_4
REMARK    4  A    between atoms: O_4  and  C_5
REMARK    5  A    between atoms: C_9  and  C_10
REMARK    6  A    between atoms: C_12  and  C_13
REMARK    7  A    between atoms: C_13  and  O_14
REMARK    8  A    between atoms: O_14  and  C_15
REMARK    9  A    between atoms: C_20  and  C_21
REMARK                            x       y       z     vdW  Elec       q    Type
REMARK                         _______ _______ _______ _____ _____    ______ ____
ROOT
ATOM      1  C   UNL     1       8.263   9.008  18.274  0.00  0.00    +0.000 A 
ATOM      2  C   UNL     1       7.221   8.722  17.428  0.00  0.00    +0.000 A 
ATOM      3  C   UNL     1       7.008   7.333  17.583  0.00  0.00    +0.000 A 
ATOM      4  N   UNL     1       7.902   6.794  18.423  0.00  0.00    +0.000 NA
ATOM      5  O   UNL     1       8.689   7.850  18.857  0.00  0.00    +0.000 OA
ENDROOT
BRANCH   1  10
ATOM      6  C   UNL     1       9.603  12.518  18.197  0.00  0.00    +0.000 A 
ATOM      7  C   UNL     1      10.417  12.512  19.330  0.00  0.00    +0.000 A 
ATOM      8  C   UNL     1      10.454  11.398  20.167  0.00  0.00    +0.000 A 
ATOM      9  C   UNL     1       9.707  10.264  19.848  0.00  0.00    +0.000 A 
ATOM     10  C   UNL     1       8.914  10.238  18.692  0.00  0.00    +0.000 A 
ATOM     11  C   UNL     1       8.852  11.384  17.884  0.00  0.00    +0.000 A 
BRANCH   6  12
ATOM     12  O   UNL     1       9.681  13.645  17.423  0.00  0.00    +0.000 OA
BRANCH  12  13
ATOM     13  C   UNL     1       9.485  14.884  18.105  0.00  0.00    +0.000 C 
BRANCH  13  15
ATOM     14  C   UNL     1       7.011  14.978  17.667  0.00  0.00    +0.000 C 
ATOM     15  C   UNL     1       8.092  14.862  18.727  0.00  0.00    +0.000 C 
ENDBRANCH  13  15
ENDBRANCH  12  13
ENDBRANCH   6  12
ENDBRANCH   1  10
BRANCH   3  16
ATOM     16  C   UNL     1       5.946   6.507  16.938  0.00  0.00    +0.000 C 
BRANCH  16  17
ATOM     17  O   UNL     1       4.724   6.639  17.665  0.00  0.00    +0.000 OA
BRANCH  17  18
ATOM     18  C   UNL     1       4.043   5.503  18.003  0.00  0.00    +0.000 A 
ATOM     19  C   UNL     1       2.664   5.612  17.802  0.00  0.00    +0.000 A 
ATOM     20  C   UNL     1       1.822   4.549  18.113  0.00  0.00    +0.000 A 
ATOM     21  C   UNL     1       2.360   3.372  18.627  0.00  0.00    +0.000 A 
ATOM     22  F   UNL     1       1.505   2.380  18.919  0.00  0.00    +0.000 F 
ATOM     23  C   UNL     1       3.735   3.233  18.838  0.00  0.00    +0.000 A 
ATOM     24  C   UNL     1       4.573   4.310  18.512  0.00  0.00    +0.000 A 
ATOM     25  F   UNL     1       5.896   4.208  18.700  0.00  0.00    +0.000 F 
BRANCH  23  26
ATOM     26  C   UNL     1       4.321   1.992  19.406  0.00  0.00    +0.000 C 
ATOM     27  N   UNL     1       4.295   0.859  18.643  0.00  0.00    +0.000 N 
ATOM     28  O   UNL     1       4.809   1.947  20.528  0.00  0.00    +0.000 OA
ATOM     29  H   UNL     1       3.915   0.817  17.706  0.00  0.00    +0.000 HD
ATOM     30  H   UNL     1       4.695   0.016  19.039  0.00  0.00    +0.000 HD
ENDBRANCH  23  26
ENDBRANCH  17  18
ENDBRANCH  16  17
ENDBRANCH   3  16
TORSDOF 8
ENDMDL
MODEL 6
REMARK VINA RESULT:      -7.9      4.342      8.940
REMARK  Name = 
REMARK  9 active torsions:
REMARK  status: ('A' for Active; 'I' for Inactive)
REMARK    1  A    between atoms: C_1  and  C_2
REMARK    2  A    between atoms: C_2  and  C_3
REMARK    3  A    between atoms: C_3  and  O_4
REMARK    4  A    between atoms: O_4  and  C_5
REMARK    5  A    between atoms: C_9  and  C_10
REMARK    6  A    between atoms: C_12  and  C_13
REMARK    7  A    between atoms: C_13  and  O_14
REMARK    8  A    between atoms: O_14  and  C_15
REMARK    9  A    between atoms: C_20  and  C_21
REMARK                            x       y       z     vdW  Elec       q    Type
REMARK                         _______ _______ _______ _____ _____    ______ ____
ROOT
ATOM      1  C   UNL     1       1.819   6.913  20.104  0.00  0.00    +0.000 A 
ATOM      2  C   UNL     1       2.424   6.130  19.154  0.00  0.00    +0.000 A 
ATOM      3  C   UNL     1       2.251   4.806  19.620  0.00  0.00    +0.000 A 
ATOM      4  N   UNL     1       1.634   4.786  20.809  0.00  0.00    +0.000 NA
ATOM      5  O   UNL     1       1.362   6.112  21.110  0.00  0.00    +0.000 OA
ENDROOT
BRANCH   1  10
ATOM      6  C   UNL     1       0.768  10.229  21.526  0.00  0.00    +0.000 A 
ATOM      7  C   UNL     1       0.671  10.993  20.363  0.00  0.00    +0.000 A 
ATOM      8  C   UNL     1       1.038  10.454  19.131  0.00  0.00    +0.000 A 
ATOM      9  C   UNL     1       1.465   9.128  19.052  0.00  0.00    +0.000 A 
ATOM     10  C   UNL     1       1.530   8.334  20.206  0.00  0.00    +0.000 A 
ATOM     11  C   UNL     1       1.200   8.904  21.444  0.00  0.00    +0.000 A 
BRANCH   6  12
ATOM     12  O   UNL     1       0.336  10.843  22.671  0.00  0.00    +0.000 OA
BRANCH  12  13
ATOM     13  C   UNL     1      -0.964  10.468  23.127  0.00  0.00    +0.000 C 
BRANCH  13  15
ATOM     14  C   UNL     1      -1.153  12.975  23.069  0.00  0.00    +0.000 C 
ATOM     15  C   UNL     1      -1.896  11.658  22.920  0.00  0.00    +0.000 C 
ENDBRANCH  13  15
ENDBRANCH  12  13
ENDBRANCH   6  12
ENDBRANCH   1  10
BRANCH   3  16
ATOM     16  C   UNL     1       2.666   3.548  18.934  0.00  0.00    +0.000 C 
BRANCH  16  17
ATOM     17  O   UNL     1       4.074   3.358  19.086  0.00  0.00    +0.000 OA
BRANCH  17  18
ATOM     18  C   UNL     1       4.914   4.016  18.232  0.00  0.00    +0.000 A 
ATOM     19  C   UNL     1       4.895   3.493  16.936  0.00  0.00    +0.000 A 
ATOM     20  C   UNL     1       5.707   4.037  15.946  0.00  0.00    +0.000 A 
ATOM     21  C   UNL     1       6.541   5.108  16.252  0.00  0.00    +0.000 A 
ATOM     22  F   UNL     1       7.312   5.591  15.264  0.00  0.00    +0.000 F 
ATOM     23  C   UNL     1       6.583   5.653  17.539  0.00  0.00    +0.000 A 
ATOM     24  C   UNL     1       5.752   5.099  18.525  0.00  0.00    +0.000 A 
ATOM     25  F   UNL     1       5.766   5.601  19.768  0.00  0.00    +0.000 F 
BRANCH  23  26
ATOM     26  C   UNL     1       7.485   6.781  17.886  0.00  0.00    +0.000 C 
ATOM     27  N   UNL     1       7.413   7.919  17.133  0.00  0.00    +0.000 N 
ATOM     28  O   UNL     1       8.291   6.722  18.806  0.00  0.00    +0.000 OA
ATOM     29  H   UNL     1       6.770   8.047  16.361  0.00  0.00    +0.000 HD
ATOM     30  H   UNL     1       8.033   8.683  17.374  0.00  0.00    +0.000 HD
ENDBRANCH  23  26
ENDBRANCH  17  18
ENDBRANCH  16  17
ENDBRANCH   3  16
TORSDOF 8
ENDMDL
MODEL 7
REMARK VINA RESULT:      -7.9      6.432      8.259
REMARK  Name = 
REMARK  9 active torsions:
REMARK  status: ('A' for Active; 'I' for Inactive)
REMARK    1  A    between atoms: C_1  and  C_2
REMARK    2  A    between atoms: C_2  and  C_3
REMARK    3  A    between atoms: C_3  and  O_4
REMARK    4  A    between atoms: O_4  and  C_5
REMARK    5  A    between atoms: C_9  and  C_10
REMARK    6  A    between atoms: C_12  and  C_13
REMARK    7  A    between atoms: C_13  and  O_14
REMARK    8  A    between atoms: O_14  and  C_15
REMARK    9  A    between atoms: C_20  and  C_21
REMARK                            x       y       z     vdW  Elec       q    Type
REMARK                         _______ _______ _______ _____ _____    ______ ____
ROOT
ATOM      1  C   UNL     1       2.404   7.701  18.271  0.00  0.00    +0.000 A 
ATOM      2  C   UNL     1       1.684   8.212  19.322  0.00  0.00    +0.000 A 
ATOM      3  C   UNL     1       1.300   9.504  18.896  0.00  0.00    +0.000 A 
ATOM      4  N   UNL     1       1.805   9.788  17.688  0.00  0.00    +0.000 NA
ATOM      5  O   UNL     1       2.497   8.652  17.297  0.00  0.00    +0.000 OA
ENDROOT
BRANCH   1  10
ATOM      6  C   UNL     1       4.800   5.082  17.038  0.00  0.00    +0.000 A 
ATOM      7  C   UNL     1       4.013   3.936  17.147  0.00  0.00    +0.000 A 
ATOM      8  C   UNL     1       2.739   4.004  17.709  0.00  0.00    +0.000 A 
ATOM      9  C   UNL     1       2.229   5.234  18.126  0.00  0.00    +0.000 A 
ATOM     10  C   UNL     1       2.992   6.403  17.987  0.00  0.00    +0.000 A 
ATOM     11  C   UNL     1       4.289   6.310  17.461  0.00  0.00    +0.000 A 
BRANCH   6  12
ATOM     12  O   UNL     1       6.013   4.906  16.428  0.00  0.00    +0.000 OA
BRANCH  12  13
ATOM     13  C   UNL     1       6.083   3.846  15.474  0.00  0.00    +0.000 C 
BRANCH  13  15
ATOM     14  C   UNL     1       6.139   3.609  12.971  0.00  0.00    +0.000 C 
ATOM     15  C   UNL     1       6.603   4.428  14.163  0.00  0.00    +0.000 C 
ENDBRANCH  13  15
ENDBRANCH  12  13
ENDBRANCH   6  12
ENDBRANCH   1  10
BRANCH   3  16
ATOM     16  C   UNL     1       0.443  10.477  19.633  0.00  0.00    +0.000 C 
BRANCH  16  17
ATOM     17  O   UNL     1      -0.190  11.360  18.706  0.00  0.00    +0.000 OA
BRANCH  17  18
ATOM     18  C   UNL     1      -1.550  11.296  18.573  0.00  0.00    +0.000 A 
ATOM     19  C   UNL     1      -1.959  10.419  17.565  0.00  0.00    +0.000 A 
ATOM     20  C   UNL     1      -3.312  10.250  17.287  0.00  0.00    +0.000 A 
ATOM     21  C   UNL     1      -4.259  10.960  18.020  0.00  0.00    +0.000 A 
ATOM     22  F   UNL     1      -5.550  10.768  17.707  0.00  0.00    +0.000 F 
ATOM     23  C   UNL     1      -3.880  11.844  19.034  0.00  0.00    +0.000 A 
ATOM     24  C   UNL     1      -2.513  11.998  19.308  0.00  0.00    +0.000 A 
ATOM     25  F   UNL     1      -2.117  12.836  20.277  0.00  0.00    +0.000 F 
BRANCH  23  26
ATOM     26  C   UNL     1      -4.879  12.625  19.809  0.00  0.00    +0.000 C 
ATOM     27  N   UNL     1      -5.069  13.937  19.477  0.00  0.00    +0.000 N 
ATOM     28  O   UNL     1      -5.522  12.142  20.732  0.00  0.00    +0.000 OA
ATOM     29  H   UNL     1      -4.581  14.406  18.724  0.00  0.00    +0.000 HD
ATOM     30  H   UNL     1      -5.750  14.463  20.012  0.00  0.00    +0.000 HD
ENDBRANCH  23  26
ENDBRANCH  17  18
ENDBRANCH  16  17
ENDBRANCH   3  16
TORSDOF 8
ENDMDL
MODEL 8
REMARK VINA RESULT:      -7.9      4.842      7.829
REMARK  Name = 
REMARK  9 active torsions:
REMARK  status: ('A' for Active; 'I' for Inactive)
REMARK    1  A    between atoms: C_1  and  C_2
REMARK    2  A    between atoms: C_2  and  C_3
REMARK    3  A    between atoms: C_3  and  O_4
REMARK    4  A    between atoms: O_4  and  C_5
REMARK    5  A    between atoms: C_9  and  C_10
REMARK    6  A    between atoms: C_12  and  C_13
REMARK    7  A    between atoms: C_13  and  O_14
REMARK    8  A    between atoms: O_14  and  C_15
REMARK    9  A    between atoms: C_20  and  C_21
REMARK                            x       y       z     vdW  Elec       q    Type
REMARK                         _______ _______ _______ _____ _____    ______ ____
ROOT
ATOM      1  C   UNL     1       8.344   8.864  18.267  0.00  0.00    +0.000 A 
ATOM      2  C   UNL     1       7.291   8.614  17.422  0.00  0.00    +0.000 A 
ATOM      3  C   UNL     1       6.990   7.248  17.625  0.00  0.00    +0.000 A 
ATOM      4  N   UNL     1       7.842   6.684  18.491  0.00  0.00    +0.000 NA
ATOM      5  O   UNL     1       8.691   7.703  18.894  0.00  0.00    +0.000 OA
ENDROOT
BRANCH   1  10
ATOM      6  C   UNL     1       9.786  11.623  20.370  0.00  0.00    +0.000 A 
ATOM      7  C   UNL     1      10.185  12.524  19.383  0.00  0.00    +0.000 A 
ATOM      8  C   UNL     1      10.069  12.190  18.034  0.00  0.00    +0.000 A 
ATOM      9  C   UNL     1       9.511  10.966  17.667  0.00  0.00    +0.000 A 
ATOM     10  C   UNL     1       9.068  10.065  18.646  0.00  0.00    +0.000 A 
ATOM     11  C   UNL     1       9.233  10.397  20.000  0.00  0.00    +0.000 A 
BRANCH   6  12
ATOM     12  O   UNL     1       9.900  12.075  21.658  0.00  0.00    +0.000 OA
BRANCH  12  13
ATOM     13  C   UNL     1       8.722  12.652  22.223  0.00  0.00    +0.000 C 
BRANCH  13  15
ATOM     14  C   UNL     1       8.144  12.103  24.608  0.00  0.00    +0.000 C 
ATOM     15  C   UNL     1       8.103  11.625  23.166  0.00  0.00    +0.000 C 
ENDBRANCH  13  15
ENDBRANCH  12  13
ENDBRANCH   6  12
ENDBRANCH   1  10
BRANCH   3  16
ATOM     16  C   UNL     1       5.882   6.467  16.999  0.00  0.00    +0.000 C 
BRANCH  16  17
ATOM     17  O   UNL     1       4.738   6.485  17.854  0.00  0.00    +0.000 OA
BRANCH  17  18
ATOM     18  C   UNL     1       4.193   5.290  18.234  0.00  0.00    +0.000 A 
ATOM     19  C   UNL     1       4.551   4.234  17.391  0.00  0.00    +0.000 A 
ATOM     20  C   UNL     1       4.067   2.951  17.627  0.00  0.00    +0.000 A 
ATOM     21  C   UNL     1       3.222   2.723  18.709  0.00  0.00    +0.000 A 
ATOM     22  F   UNL     1       2.774   1.470  18.888  0.00  0.00    +0.000 F 
ATOM     23  C   UNL     1       2.846   3.759  19.570  0.00  0.00    +0.000 A 
ATOM     24  C   UNL     1       3.348   5.045  19.324  0.00  0.00    +0.000 A 
ATOM     25  F   UNL     1       3.009   6.060  20.132  0.00  0.00    +0.000 F 
BRANCH  23  26
ATOM     26  C   UNL     1       1.927   3.534  20.715  0.00  0.00    +0.000 C 
ATOM     27  N   UNL     1       0.590   3.415  20.455  0.00  0.00    +0.000 N 
ATOM     28  O   UNL     1       2.320   3.465  21.873  0.00  0.00    +0.000 OA
ATOM     29  H   UNL     1       0.189   3.455  19.527  0.00  0.00    +0.000 HD
ATOM     30  H   UNL     1      -0.030   3.264  21.242  0.00  0.00    +0.000 HD
ENDBRANCH  23  26
ENDBRANCH  17  18
ENDBRANCH  16  17
ENDBRANCH   3  16
TORSDOF 8
ENDMDL
MODEL 9
REMARK VINA RESULT:      -7.8      4.890      7.764
REMARK  Name = 
REMARK  9 active torsions:
REMARK  status: ('A' for Active; 'I' for Inactive)
REMARK    1  A    between atoms: C_1  and  C_2
REMARK    2  A    between atoms: C_2  and  C_3
REMARK    3  A    between atoms: C_3  and  O_4
REMARK    4  A    between atoms: O_4  and  C_5
REMARK    5  A    between atoms: C_9  and  C_10
REMARK    6  A    between atoms: C_12  and  C_13
REMARK    7  A    between atoms: C_13  and  O_14
REMARK    8  A    between atoms: O_14  and  C_15
REMARK    9  A    between atoms: C_20  and  C_21
REMARK                            x       y       z     vdW  Elec       q    Type
REMARK                         _______ _______ _______ _____ _____    ______ ____
ROOT
ATOM      1  C   UNL     1       8.362   8.711  18.274  0.00  0.00    +0.000 A 
ATOM      2  C   UNL     1       7.492   8.394  17.262  0.00  0.00    +0.000 A 
ATOM      3  C   UNL     1       7.186   7.030  17.468  0.00  0.00    +0.000 A 
ATOM      4  N   UNL     1       7.874   6.529  18.504  0.00  0.00    +0.000 NA
ATOM      5  O   UNL     1       8.610   7.588  19.009  0.00  0.00    +0.000 OA
ENDROOT
BRANCH   1  10
ATOM      6  C   UNL     1       9.504  11.490  20.530  0.00  0.00    +0.000 A 
ATOM      7  C   UNL     1       9.873  12.454  19.592  0.00  0.00    +0.000 A 
ATOM      8  C   UNL     1       9.838  12.163  18.229  0.00  0.00    +0.000 A 
ATOM      9  C   UNL     1       9.390  10.914  17.797  0.00  0.00    +0.000 A 
ATOM     10  C   UNL     1       8.977   9.948  18.725  0.00  0.00    +0.000 A 
ATOM     11  C   UNL     1       9.062  10.241  20.095  0.00  0.00    +0.000 A 
BRANCH   6  12
ATOM     12  O   UNL     1       9.532  11.901  21.836  0.00  0.00    +0.000 OA
BRANCH  12  13
ATOM     13  C   UNL     1       8.270  11.945  22.503  0.00  0.00    +0.000 C 
BRANCH  13  15
ATOM     14  C   UNL     1       7.477  14.278  22.004  0.00  0.00    +0.000 C 
ATOM     15  C   UNL     1       8.077  13.355  23.050  0.00  0.00    +0.000 C 
ENDBRANCH  13  15
ENDBRANCH  12  13
ENDBRANCH   6  12
ENDBRANCH   1  10
BRANCH   3  16
ATOM     16  C   UNL     1       6.232   6.191  16.685  0.00  0.00    +0.000 C 
BRANCH  16  17
ATOM     17  O   UNL     1       6.067   4.925  17.324  0.00  0.00    +0.000 OA
BRANCH  17  18
ATOM     18  C   UNL     1       4.824   4.587  17.784  0.00  0.00    +0.000 A 
ATOM     19  C   UNL     1       4.105   3.796  16.884  0.00  0.00    +0.000 A 
ATOM     20  C   UNL     1       2.814   3.378  17.190  0.00  0.00    +0.000 A 
ATOM     21  C   UNL     1       2.238   3.754  18.400  0.00  0.00    +0.000 A 
ATOM     22  F   UNL     1       0.987   3.333  18.644  0.00  0.00    +0.000 F 
ATOM     23  C   UNL     1       2.932   4.545  19.321  0.00  0.00    +0.000 A 
ATOM     24  C   UNL     1       4.236   4.951  19.002  0.00  0.00    +0.000 A 
ATOM     25  F   UNL     1       4.930   5.707  19.865  0.00  0.00    +0.000 F 
BRANCH  23  26
ATOM     26  C   UNL     1       2.322   4.971  20.607  0.00  0.00    +0.000 C 
ATOM     27  N   UNL     1       1.914   6.270  20.727  0.00  0.00    +0.000 N 
ATOM     28  O   UNL     1       2.186   4.211  21.557  0.00  0.00    +0.000 OA
ATOM     29  H   UNL     1       1.987   6.957  19.986  0.00  0.00    +0.000 HD
ATOM     30  H   UNL     1       1.501   6.554  21.607  0.00  0.00    +0.000 HD
ENDBRANCH  23  26
ENDBRANCH  17  18
ENDBRANCH  16  17
ENDBRANCH   3  16
TORSDOF 8
ENDMDL
