MODEL 1
REMARK VINA RESULT:      -7.9      0.000      0.000
REMARK  Name = 
REMARK  7 active torsions:
REMARK  status: ('A' for Active; 'I' for Inactive)
REMARK    1  A    between atoms: C_1  and  O_2
REMARK    2  A    between atoms: O_2  and  C_3
REMARK    3  A    between atoms: C_5  and  O_6
REMARK    4  A    between atoms: O_6  and  C_7
REMARK    5  A    between atoms: C_13  and  C_14
REMARK    6  A    between atoms: C_14  and  C_15
REMARK    7  A    between atoms: C_20  and  O_21
REMARK                            x       y       z     vdW  Elec       q    Type
REMARK                         _______ _______ _______ _____ _____    ______ ____
ROOT
ATOM      1  C   UNL     1       6.451   4.520  14.665  0.00  0.00    +0.000 A 
ATOM      2  C   UNL     1       7.208   5.324  15.517  0.00  0.00    +0.000 A 
ATOM      3  C   UNL     1       6.793   5.589  16.834  0.00  0.00    +0.000 A 
ATOM      4  C   UNL     1       5.587   5.040  17.294  0.00  0.00    +0.000 A 
ATOM      5  C   UNL     1       4.798   4.290  16.405  0.00  0.00    +0.000 A 
ATOM      6  C   UNL     1       5.228   4.026  15.105  0.00  0.00    +0.000 A 
ATOM      7  O   UNL     1       3.605   3.716  16.768  0.00  0.00    +0.000 OA
ATOM      8  C   UNL     1       2.901   4.549  17.692  0.00  0.00    +0.000 C 
ATOM      9  C   UNL     1       3.682   4.694  18.988  0.00  0.00    +0.000 C 
ATOM     10  C   UNL     1       5.119   5.076  18.704  0.00  0.00    +0.000 C 
ATOM     11  O   UNL     1       5.894   5.314  19.625  0.00  0.00    +0.000 OA
ENDROOT
BRANCH   1  13
ATOM     12  C   UNL     1       5.852   3.404  12.685  0.00  0.00    +0.000 C 
ATOM     13  O   UNL     1       6.817   4.182  13.391  0.00  0.00    +0.000 OA
ENDBRANCH   1  13
BRANCH   3  14
ATOM     14  O   UNL     1       7.733   6.295  17.536  0.00  0.00    +0.000 OA
ATOM     15  C   UNL     1       7.595   7.711  17.574  0.00  0.00    +0.000 C 
ENDBRANCH   3  14
BRANCH   9  16
ATOM     16  C   UNL     1       3.035   5.649  20.011  0.00  0.00    +0.000 C 
BRANCH  16  17
ATOM     17  C   UNL     1       2.570   6.975  19.452  0.00  0.00    +0.000 A 
ATOM     18  C   UNL     1       2.892   7.330  18.134  0.00  0.00    +0.000 A 
ATOM     19  C   UNL     1       2.403   8.513  17.575  0.00  0.00    +0.000 A 
ATOM     20  C   UNL     1       1.585   9.355  18.326  0.00  0.00    +0.000 A 
ATOM     21  C   UNL     1       1.285   9.036  19.649  0.00  0.00    +0.000 A 
ATOM     22  C   UNL     1       1.792   7.862  20.206  0.00  0.00    +0.000 A 
BRANCH  22  23
ATOM     23  O   UNL     1       1.510   7.549  21.507  0.00  0.00    +0.000 OA
ATOM     24  H   UNL     1       1.374   6.588  21.568  0.00  0.00    +0.000 HD
ENDBRANCH  22  23
ENDBRANCH  16  17
ENDBRANCH   9  16
TORSDOF 5
ENDMDL
MODEL 2
REMARK VINA RESULT:      -7.6      2.292      6.533
REMARK  Name = 
REMARK  7 active torsions:
REMARK  status: ('A' for Active; 'I' for Inactive)
REMARK    1  A    between atoms: C_1  and  O_2
REMARK    2  A    between atoms: O_2  and  C_3
REMARK    3  A    between atoms: C_5  and  O_6
REMARK    4  A    between atoms: O_6  and  C_7
REMARK    5  A    between atoms: C_13  and  C_14
REMARK    6  A    between atoms: C_14  and  C_15
REMARK    7  A    between atoms: C_20  and  O_21
REMARK                            x       y       z     vdW  Elec       q    Type
REMARK                         _______ _______ _______ _____ _____    ______ ____
ROOT
ATOM      1  C   UNL     1       2.218   4.294  19.167  0.00  0.00    +0.000 A 
ATOM      2  C   UNL     1       3.176   3.341  19.514  0.00  0.00    +0.000 A 
ATOM      3  C   UNL     1       4.506   3.446  19.071  0.00  0.00    +0.000 A 
ATOM      4  C   UNL     1       4.872   4.527  18.256  0.00  0.00    +0.000 A 
ATOM      5  C   UNL     1       3.884   5.443  17.856  0.00  0.00    +0.000 A 
ATOM      6  C   UNL     1       2.571   5.333  18.313  0.00  0.00    +0.000 A 
ATOM      7  O   UNL     1       4.151   6.530  17.061  0.00  0.00    +0.000 OA
ATOM      8  C   UNL     1       5.153   6.215  16.091  0.00  0.00    +0.000 C 
ATOM      9  C   UNL     1       6.473   5.887  16.769  0.00  0.00    +0.000 C 
ATOM     10  C   UNL     1       6.267   4.870  17.872  0.00  0.00    +0.000 C 
ATOM     11  O   UNL     1       7.226   4.417  18.490  0.00  0.00    +0.000 OA
ENDROOT
BRANCH   1  13
ATOM     12  C   UNL     1       0.465   3.011  20.062  0.00  0.00    +0.000 C 
ATOM     13  O   UNL     1       0.921   4.281  19.602  0.00  0.00    +0.000 OA
ENDBRANCH   1  13
BRANCH   3  14
ATOM     14  O   UNL     1       5.307   2.480  19.619  0.00  0.00    +0.000 OA
ATOM     15  C   UNL     1       4.773   1.719  20.696  0.00  0.00    +0.000 C 
ENDBRANCH   3  14
BRANCH   9  16
ATOM     16  C   UNL     1       7.589   5.450  15.800  0.00  0.00    +0.000 C 
BRANCH  16  17
ATOM     17  C   UNL     1       7.115   4.791  14.524  0.00  0.00    +0.000 A 
ATOM     18  C   UNL     1       6.061   3.868  14.563  0.00  0.00    +0.000 A 
ATOM     19  C   UNL     1       5.556   3.312  13.386  0.00  0.00    +0.000 A 
ATOM     20  C   UNL     1       6.097   3.674  12.154  0.00  0.00    +0.000 A 
ATOM     21  C   UNL     1       7.169   4.563  12.099  0.00  0.00    +0.000 A 
ATOM     22  C   UNL     1       7.680   5.099  13.280  0.00  0.00    +0.000 A 
BRANCH  22  23
ATOM     23  O   UNL     1       8.738   5.964  13.233  0.00  0.00    +0.000 OA
ATOM     24  H   UNL     1       9.557   5.454  13.350  0.00  0.00    +0.000 HD
ENDBRANCH  22  23
ENDBRANCH  16  17
ENDBRANCH   9  16
TORSDOF 5
ENDMDL
MODEL 3
REMARK VINA RESULT:      -7.5      2.592      8.016
REMARK  Name = 
REMARK  7 active torsions:
REMARK  status: ('A' for Active; 'I' for Inactive)
REMARK    1  A    between atoms: C_1  and  O_2
REMARK    2  A    between atoms: O_2  and  C_3
REMARK    3  A    between atoms: C_5  and  O_6
REMARK    4  A    between atoms: O_6  and  C_7
REMARK    5  A    between atoms: C_13  and  C_14
REMARK    6  A    between atoms: C_14  and  C_15
REMARK    7  A    between atoms: C_20  and  O_21
REMARK                            x       y       z     vdW  Elec       q    Type
REMARK                         _______ _______ _______ _____ _____    ______ ____
ROOT
ATOM      1  C   UNL     1      -0.200  10.350  22.157  0.00  0.00    +0.000 A 
ATOM      2  C   UNL     1       0.061  11.257  21.129  0.00  0.00    +0.000 A 
ATOM      3  C   UNL     1       0.710  10.858  19.948  0.00  0.00    +0.000 A 
ATOM      4  C   UNL     1       1.111   9.521  19.806  0.00  0.00    +0.000 A 
ATOM      5  C   UNL     1       0.905   8.632  20.876  0.00  0.00    +0.000 A 
ATOM      6  C   UNL     1       0.250   9.040  22.037  0.00  0.00    +0.000 A 
ATOM      7  O   UNL     1       1.265   7.308  20.826  0.00  0.00    +0.000 OA
ATOM      8  C   UNL     1       2.475   7.139  20.084  0.00  0.00    +0.000 C 
ATOM      9  C   UNL     1       2.280   7.551  18.634  0.00  0.00    +0.000 C 
ATOM     10  C   UNL     1       1.631   8.917  18.552  0.00  0.00    +0.000 C 
ATOM     11  O   UNL     1       1.457   9.459  17.465  0.00  0.00    +0.000 OA
ENDROOT
BRANCH   1  13
ATOM     12  C   UNL     1      -1.811  11.722  23.180  0.00  0.00    +0.000 C 
ATOM     13  O   UNL     1      -0.869  10.658  23.309  0.00  0.00    +0.000 OA
ENDBRANCH   1  13
BRANCH   3  14
ATOM     14  O   UNL     1       0.761  11.867  19.024  0.00  0.00    +0.000 OA
ATOM     15  C   UNL     1      -0.442  12.581  18.768  0.00  0.00    +0.000 C 
ENDBRANCH   3  14
BRANCH   9  16
ATOM     16  C   UNL     1       3.561   7.482  17.780  0.00  0.00    +0.000 C 
BRANCH  16  17
ATOM     17  C   UNL     1       3.988   6.092  17.366  0.00  0.00    +0.000 A 
ATOM     18  C   UNL     1       3.200   4.986  17.714  0.00  0.00    +0.000 A 
ATOM     19  C   UNL     1       3.534   3.705  17.270  0.00  0.00    +0.000 A 
ATOM     20  C   UNL     1       4.660   3.513  16.472  0.00  0.00    +0.000 A 
ATOM     21  C   UNL     1       5.475   4.596  16.147  0.00  0.00    +0.000 A 
ATOM     22  C   UNL     1       5.145   5.870  16.609  0.00  0.00    +0.000 A 
BRANCH  22  23
ATOM     23  O   UNL     1       5.946   6.935  16.302  0.00  0.00    +0.000 OA
ATOM     24  H   UNL     1       6.410   7.212  17.110  0.00  0.00    +0.000 HD
ENDBRANCH  22  23
ENDBRANCH  16  17
ENDBRANCH   9  16
TORSDOF 5
ENDMDL
MODEL 4
REMARK VINA RESULT:      -7.4      2.782      7.895
REMARK  Name = 
REMARK  7 active torsions:
REMARK  status: ('A' for Active; 'I' for Inactive)
REMARK    1  A    between atoms: C_1  and  O_2
REMARK    2  A    between atoms: O_2  and  C_3
REMARK    3  A    between atoms: C_5  and  O_6
REMARK    4  A    between atoms: O_6  and  C_7
REMARK    5  A    between atoms: C_13  and  C_14
REMARK    6  A    between atoms: C_14  and  C_15
REMARK    7  A    between atoms: C_20  and  O_21
REMARK                            x       y       z     vdW  Elec       q    Type
REMARK                         _______ _______ _______ _____ _____    ______ ____
ROOT
ATOM      1  C   UNL     1      -0.460  12.242  20.175  0.00  0.00    +0.000 A 
ATOM      2  C   UNL     1      -0.800  11.218  21.059  0.00  0.00    +0.000 A 
ATOM      3  C   UNL     1      -0.200   9.949  20.977  0.00  0.00    +0.000 A 
ATOM      4  C   UNL     1       0.754   9.708  19.978  0.00  0.00    +0.000 A 
ATOM      5  C   UNL     1       1.038  10.724  19.049  0.00  0.00    +0.000 A 
ATOM      6  C   UNL     1       0.443  11.981  19.150  0.00  0.00    +0.000 A 
ATOM      7  O   UNL     1       1.956  10.576  18.039  0.00  0.00    +0.000 OA
ATOM      8  C   UNL     1       1.943   9.240  17.532  0.00  0.00    +0.000 C 
ATOM      9  C   UNL     1       2.373   8.253  18.605  0.00  0.00    +0.000 C 
ATOM     10  C   UNL     1       1.602   8.490  19.887  0.00  0.00    +0.000 C 
ATOM     11  O   UNL     1       1.751   7.746  20.851  0.00  0.00    +0.000 OA
ENDROOT
BRANCH   1  13
ATOM     12  C   UNL     1      -0.412  14.409  19.267  0.00  0.00    +0.000 C 
ATOM     13  O   UNL     1      -0.966  13.511  20.228  0.00  0.00    +0.000 OA
ENDBRANCH   1  13
BRANCH   3  14
ATOM     14  O   UNL     1      -0.584   9.132  22.007  0.00  0.00    +0.000 OA
ATOM     15  C   UNL     1      -0.186   9.504  23.321  0.00  0.00    +0.000 C 
ENDBRANCH   3  14
BRANCH   9  16
ATOM     16  C   UNL     1       2.303   6.776  18.169  0.00  0.00    +0.000 C 
BRANCH  16  17
ATOM     17  C   UNL     1       3.627   6.046  18.147  0.00  0.00    +0.000 A 
ATOM     18  C   UNL     1       4.411   6.055  16.984  0.00  0.00    +0.000 A 
ATOM     19  C   UNL     1       5.673   5.456  16.970  0.00  0.00    +0.000 A 
ATOM     20  C   UNL     1       6.167   4.842  18.120  0.00  0.00    +0.000 A 
ATOM     21  C   UNL     1       5.387   4.792  19.273  0.00  0.00    +0.000 A 
ATOM     22  C   UNL     1       4.120   5.376  19.273  0.00  0.00    +0.000 A 
BRANCH  22  23
ATOM     23  O   UNL     1       3.345   5.322  20.399  0.00  0.00    +0.000 OA
ATOM     24  H   UNL     1       2.937   4.441  20.447  0.00  0.00    +0.000 HD
ENDBRANCH  22  23
ENDBRANCH  16  17
ENDBRANCH   9  16
TORSDOF 5
ENDMDL
MODEL 5
REMARK VINA RESULT:      -7.3      1.657      6.795
REMARK  Name = 
REMARK  7 active torsions:
REMARK  status: ('A' for Active; 'I' for Inactive)
REMARK    1  A    between atoms: C_1  and  O_2
REMARK    2  A    between atoms: O_2  and  C_3
REMARK    3  A    between atoms: C_5  and  O_6
REMARK    4  A    between atoms: O_6  and  C_7
REMARK    5  A    between atoms: C_13  and  C_14
REMARK    6  A    between atoms: C_14  and  C_15
REMARK    7  A    between atoms: C_20  and  O_21
REMARK                            x       y       z     vdW  Elec       q    Type
REMARK                         _______ _______ _______ _____ _____    ______ ____
ROOT
ATOM      1  C   UNL     1       2.104   7.479  19.526  0.00  0.00    +0.000 A 
ATOM      2  C   UNL     1       2.207   6.222  20.120  0.00  0.00    +0.000 A 
ATOM      3  C   UNL     1       3.101   5.252  19.632  0.00  0.00    +0.000 A 
ATOM      4  C   UNL     1       3.896   5.556  18.517  0.00  0.00    +0.000 A 
ATOM      5  C   UNL     1       3.734   6.800  17.884  0.00  0.00    +0.000 A 
ATOM      6  C   UNL     1       2.852   7.756  18.386  0.00  0.00    +0.000 A 
ATOM      7  O   UNL     1       4.469   7.182  16.789  0.00  0.00    +0.000 OA
ATOM      8  C   UNL     1       4.725   6.065  15.935  0.00  0.00    +0.000 C 
ATOM      9  C   UNL     1       5.582   5.030  16.646  0.00  0.00    +0.000 C 
ATOM     10  C   UNL     1       5.009   4.711  18.010  0.00  0.00    +0.000 C 
ATOM     11  O   UNL     1       5.517   3.841  18.711  0.00  0.00    +0.000 OA
ENDROOT
BRANCH   1  13
ATOM     12  C   UNL     1       1.143   8.530  21.396  0.00  0.00    +0.000 C 
ATOM     13  O   UNL     1       1.294   8.484  19.977  0.00  0.00    +0.000 OA
ENDBRANCH   1  13
BRANCH   3  14
ATOM     14  O   UNL     1       3.133   4.137  20.426  0.00  0.00    +0.000 OA
ATOM     15  C   UNL     1       2.417   2.993  19.978  0.00  0.00    +0.000 C 
ENDBRANCH   3  14
BRANCH   9  16
ATOM     16  C   UNL     1       5.835   3.749  15.826  0.00  0.00    +0.000 C 
BRANCH  16  17
ATOM     17  C   UNL     1       6.342   3.972  14.419  0.00  0.00    +0.000 A 
ATOM     18  C   UNL     1       5.791   3.246  13.354  0.00  0.00    +0.000 A 
ATOM     19  C   UNL     1       6.189   3.497  12.038  0.00  0.00    +0.000 A 
ATOM     20  C   UNL     1       7.141   4.478  11.771  0.00  0.00    +0.000 A 
ATOM     21  C   UNL     1       7.725   5.185  12.821  0.00  0.00    +0.000 A 
ATOM     22  C   UNL     1       7.337   4.916  14.133  0.00  0.00    +0.000 A 
BRANCH  22  23
ATOM     23  O   UNL     1       7.913   5.599  15.168  0.00  0.00    +0.000 OA
ATOM     24  H   UNL     1       7.426   6.430  15.295  0.00  0.00    +0.000 HD
ENDBRANCH  22  23
ENDBRANCH  16  17
ENDBRANCH   9  16
TORSDOF 5
ENDMDL
MODEL 6
REMARK VINA RESULT:      -7.3      2.244      7.656
REMARK  Name = 
REMARK  7 active torsions:
REMARK  status: ('A' for Active; 'I' for Inactive)
REMARK    1  A    between atoms: C_1  and  O_2
REMARK    2  A    between atoms: O_2  and  C_3
REMARK    3  A    between atoms: C_5  and  O_6
REMARK    4  A    between atoms: O_6  and  C_7
REMARK    5  A    between atoms: C_13  and  C_14
REMARK    6  A    between atoms: C_14  and  C_15
REMARK    7  A    between atoms: C_20  and  O_21
REMARK                            x       y       z     vdW  Elec       q    Type
REMARK                         _______ _______ _______ _____ _____    ______ ____
ROOT
ATOM      1  C   UNL     1       0.097   9.364  21.809  0.00  0.00    +0.000 A 
ATOM      2  C   UNL     1       0.292  10.393  20.887  0.00  0.00    +0.000 A 
ATOM      3  C   UNL     1       1.018  10.186  19.701  0.00  0.00    +0.000 A 
ATOM      4  C   UNL     1       1.564   8.919  19.447  0.00  0.00    +0.000 A 
ATOM      5  C   UNL     1       1.420   7.909  20.414  0.00  0.00    +0.000 A 
ATOM      6  C   UNL     1       0.688   8.126  21.580  0.00  0.00    +0.000 A 
ATOM      7  O   UNL     1       1.921   6.642  20.250  0.00  0.00    +0.000 OA
ATOM      8  C   UNL     1       3.166   6.674  19.548  0.00  0.00    +0.000 C 
ATOM      9  C   UNL     1       2.974   7.210  18.138  0.00  0.00    +0.000 C 
ATOM     10  C   UNL     1       2.186   8.503  18.162  0.00  0.00    +0.000 C 
ATOM     11  O   UNL     1       1.991   9.133  17.128  0.00  0.00    +0.000 OA
ENDROOT
BRANCH   1  13
ATOM     12  C   UNL     1      -1.194  10.778  23.172  0.00  0.00    +0.000 C 
ATOM     13  O   UNL     1      -0.638   9.482  22.956  0.00  0.00    +0.000 OA
ENDBRANCH   1  13
BRANCH   3  14
ATOM     14  O   UNL     1       0.991  11.284  18.884  0.00  0.00    +0.000 OA
ATOM     15  C   UNL     1       0.052  12.307  19.193  0.00  0.00    +0.000 C 
ENDBRANCH   3  14
BRANCH   9  16
ATOM     16  C   UNL     1       4.283   7.362  17.338  0.00  0.00    +0.000 C 
BRANCH  16  17
ATOM     17  C   UNL     1       4.926   6.065  16.899  0.00  0.00    +0.000 A 
ATOM     18  C   UNL     1       4.156   4.896  16.818  0.00  0.00    +0.000 A 
ATOM     19  C   UNL     1       4.713   3.708  16.336  0.00  0.00    +0.000 A 
ATOM     20  C   UNL     1       6.045   3.676  15.929  0.00  0.00    +0.000 A 
ATOM     21  C   UNL     1       6.834   4.820  16.036  0.00  0.00    +0.000 A 
ATOM     22  C   UNL     1       6.276   5.997  16.536  0.00  0.00    +0.000 A 
BRANCH  22  23
ATOM     23  O   UNL     1       7.048   7.119  16.653  0.00  0.00    +0.000 OA
ATOM     24  H   UNL     1       6.581   7.754  17.223  0.00  0.00    +0.000 HD
ENDBRANCH  22  23
ENDBRANCH  16  17
ENDBRANCH   9  16
TORSDOF 5
ENDMDL
MODEL 7
REMARK VINA RESULT:      -7.2      2.995      7.911
REMARK  Name = 
REMARK  7 active torsions:
REMARK  status: ('A' for Active; 'I' for Inactive)
REMARK    1  A    between atoms: C_1  and  O_2
REMARK    2  A    between atoms: O_2  and  C_3
REMARK    3  A    between atoms: C_5  and  O_6
REMARK    4  A    between atoms: O_6  and  C_7
REMARK    5  A    between atoms: C_13  and  C_14
REMARK    6  A    between atoms: C_14  and  C_15
REMARK    7  A    between atoms: C_20  and  O_21
REMARK                            x       y       z     vdW  Elec       q    Type
REMARK                         _______ _______ _______ _____ _____    ______ ____
ROOT
ATOM      1  C   UNL     1       0.101  11.531  21.656  0.00  0.00    +0.000 A 
ATOM      2  C   UNL     1       0.704  12.111  20.540  0.00  0.00    +0.000 A 
ATOM      3  C   UNL     1       1.287  11.325  19.531  0.00  0.00    +0.000 A 
ATOM      4  C   UNL     1       1.267   9.928  19.657  0.00  0.00    +0.000 A 
ATOM      5  C   UNL     1       0.719   9.357  20.818  0.00  0.00    +0.000 A 
ATOM      6  C   UNL     1       0.135  10.149  21.805  0.00  0.00    +0.000 A 
ATOM      7  O   UNL     1       0.658   8.001  21.027  0.00  0.00    +0.000 OA
ATOM      8  C   UNL     1       1.810   7.351  20.484  0.00  0.00    +0.000 C 
ATOM      9  C   UNL     1       1.860   7.519  18.974  0.00  0.00    +0.000 C 
ATOM     10  C   UNL     1       1.670   8.971  18.592  0.00  0.00    +0.000 C 
ATOM     11  O   UNL     1       1.753   9.324  17.420  0.00  0.00    +0.000 OA
ENDROOT
BRANCH   1  13
ATOM     12  C   UNL     1      -1.725  11.629  23.132  0.00  0.00    +0.000 C 
ATOM     13  O   UNL     1      -0.526  12.233  22.649  0.00  0.00    +0.000 OA
ENDBRANCH   1  13
BRANCH   3  14
ATOM     14  O   UNL     1       1.714  12.081  18.472  0.00  0.00    +0.000 OA
ATOM     15  C   UNL     1       1.231  13.416  18.384  0.00  0.00    +0.000 C 
ENDBRANCH   3  14
BRANCH   9  16
ATOM     16  C   UNL     1       3.120   6.922  18.315  0.00  0.00    +0.000 C 
BRANCH  16  17
ATOM     17  C   UNL     1       3.186   5.412  18.297  0.00  0.00    +0.000 A 
ATOM     18  C   UNL     1       2.128   4.672  17.749  0.00  0.00    +0.000 A 
ATOM     19  C   UNL     1       2.208   3.281  17.650  0.00  0.00    +0.000 A 
ATOM     20  C   UNL     1       3.347   2.612  18.095  0.00  0.00    +0.000 A 
ATOM     21  C   UNL     1       4.392   3.329  18.675  0.00  0.00    +0.000 A 
ATOM     22  C   UNL     1       4.297   4.716  18.788  0.00  0.00    +0.000 A 
BRANCH  22  23
ATOM     23  O   UNL     1       5.315   5.423  19.365  0.00  0.00    +0.000 OA
ATOM     24  H   UNL     1       4.959   5.903  20.131  0.00  0.00    +0.000 HD
ENDBRANCH  22  23
ENDBRANCH  16  17
ENDBRANCH   9  16
TORSDOF 5
ENDMDL
MODEL 8
REMARK VINA RESULT:      -7.1      2.807      7.825
REMARK  Name = 
REMARK  7 active torsions:
REMARK  status: ('A' for Active; 'I' for Inactive)
REMARK    1  A    between atoms: C_1  and  O_2
REMARK    2  A    between atoms: O_2  and  C_3
REMARK    3  A    between atoms: C_5  and  O_6
REMARK    4  A    between atoms: O_6  and  C_7
REMARK    5  A    between atoms: C_13  and  C_14
REMARK    6  A    between atoms: C_14  and  C_15
REMARK    7  A    between atoms: C_20  and  O_21
REMARK                            x       y       z     vdW  Elec       q    Type
REMARK                         _______ _______ _______ _____ _____    ______ ____
ROOT
ATOM      1  C   UNL     1      -0.525  12.009  19.449  0.00  0.00    +0.000 A 
ATOM      2  C   UNL     1      -0.851  11.325  20.620  0.00  0.00    +0.000 A 
ATOM      3  C   UNL     1      -0.254  10.093  20.940  0.00  0.00    +0.000 A 
ATOM      4  C   UNL     1       0.682   9.539  20.055  0.00  0.00    +0.000 A 
ATOM      5  C   UNL     1       0.951  10.202  18.845  0.00  0.00    +0.000 A 
ATOM      6  C   UNL     1       0.360  11.428  18.547  0.00  0.00    +0.000 A 
ATOM      7  O   UNL     1       1.852   9.732  17.921  0.00  0.00    +0.000 OA
ATOM      8  C   UNL     1       1.829   8.304  17.869  0.00  0.00    +0.000 C 
ATOM      9  C   UNL     1       2.276   7.710  19.195  0.00  0.00    +0.000 C 
ATOM     10  C   UNL     1       1.527   8.350  20.345  0.00  0.00    +0.000 C 
ATOM     11  O   UNL     1       1.693   7.953  21.494  0.00  0.00    +0.000 OA
ENDROOT
BRANCH   1  13
ATOM     12  C   UNL     1      -0.041  14.209  18.779  0.00  0.00    +0.000 C 
ATOM     13  O   UNL     1      -1.029  13.232  19.101  0.00  0.00    +0.000 OA
ENDBRANCH   1  13
BRANCH   3  14
ATOM     14  O   UNL     1      -0.620   9.652  22.183  0.00  0.00    +0.000 OA
ATOM     15  C   UNL     1      -1.076  10.624  23.115  0.00  0.00    +0.000 C 
ENDBRANCH   3  14
BRANCH   9  16
ATOM     16  C   UNL     1       2.198   6.172  19.256  0.00  0.00    +0.000 C 
BRANCH  16  17
ATOM     17  C   UNL     1       3.172   5.439  18.362  0.00  0.00    +0.000 A 
ATOM     18  C   UNL     1       4.518   5.832  18.325  0.00  0.00    +0.000 A 
ATOM     19  C   UNL     1       5.449   5.116  17.568  0.00  0.00    +0.000 A 
ATOM     20  C   UNL     1       5.046   3.997  16.841  0.00  0.00    +0.000 A 
ATOM     21  C   UNL     1       3.706   3.614  16.839  0.00  0.00    +0.000 A 
ATOM     22  C   UNL     1       2.779   4.346  17.582  0.00  0.00    +0.000 A 
BRANCH  22  23
ATOM     23  O   UNL     1       1.462   3.981  17.575  0.00  0.00    +0.000 OA
ATOM     24  H   UNL     1       1.001   4.509  16.901  0.00  0.00    +0.000 HD
ENDBRANCH  22  23
ENDBRANCH  16  17
ENDBRANCH   9  16
TORSDOF 5
ENDMDL
MODEL 9
REMARK VINA RESULT:      -7.1      1.812      3.050
REMARK  Name = 
REMARK  7 active torsions:
REMARK  status: ('A' for Active; 'I' for Inactive)
REMARK    1  A    between atoms: C_1  and  O_2
REMARK    2  A    between atoms: O_2  and  C_3
REMARK    3  A    between atoms: C_5  and  O_6
REMARK    4  A    between atoms: O_6  and  C_7
REMARK    5  A    between atoms: C_13  and  C_14
REMARK    6  A    between atoms: C_14  and  C_15
REMARK    7  A    between atoms: C_20  and  O_21
REMARK                            x       y       z     vdW  Elec       q    Type
REMARK                         _______ _______ _______ _____ _____    ______ ____
ROOT
ATOM      1  C   UNL     1       5.813   4.295  15.608  0.00  0.00    +0.000 A 
ATOM      2  C   UNL     1       5.216   3.370  16.464  0.00  0.00    +0.000 A 
ATOM      3  C   UNL     1       4.216   3.753  17.374  0.00  0.00    +0.000 A 
ATOM      4  C   UNL     1       3.820   5.098  17.427  0.00  0.00    +0.000 A 
ATOM      5  C   UNL     1       4.477   6.034  16.610  0.00  0.00    +0.000 A 
ATOM      6  C   UNL     1       5.459   5.636  15.703  0.00  0.00    +0.000 A 
ATOM      7  O   UNL     1       4.156   7.368  16.596  0.00  0.00    +0.000 OA
ATOM      8  C   UNL     1       3.788   7.816  17.902  0.00  0.00    +0.000 C 
ATOM      9  C   UNL     1       2.529   7.110  18.378  0.00  0.00    +0.000 C 
ATOM     10  C   UNL     1       2.656   5.613  18.195  0.00  0.00    +0.000 C 
ATOM     11  O   UNL     1       1.772   4.859  18.590  0.00  0.00    +0.000 OA
ENDROOT
BRANCH   1  13
ATOM     12  C   UNL     1       6.239   3.822  13.345  0.00  0.00    +0.000 C 
ATOM     13  O   UNL     1       6.755   3.983  14.666  0.00  0.00    +0.000 OA
ENDBRANCH   1  13
BRANCH   3  14
ATOM     14  O   UNL     1       3.680   2.679  18.032  0.00  0.00    +0.000 OA
ATOM     15  C   UNL     1       4.132   2.431  19.357  0.00  0.00    +0.000 C 
ENDBRANCH   3  14
BRANCH   9  16
ATOM     16  C   UNL     1       2.109   7.470  19.817  0.00  0.00    +0.000 C 
BRANCH  16  17
ATOM     17  C   UNL     1       1.319   8.751  19.959  0.00  0.00    +0.000 A 
ATOM     18  C   UNL     1       0.809   9.388  18.818  0.00  0.00    +0.000 A 
ATOM     19  C   UNL     1       0.008  10.526  18.935  0.00  0.00    +0.000 A 
ATOM     20  C   UNL     1      -0.295  11.042  20.194  0.00  0.00    +0.000 A 
ATOM     21  C   UNL     1       0.234  10.443  21.336  0.00  0.00    +0.000 A 
ATOM     22  C   UNL     1       1.048   9.317  21.210  0.00  0.00    +0.000 A 
BRANCH  22  23
ATOM     23  O   UNL     1       1.577   8.732  22.326  0.00  0.00    +0.000 OA
ATOM     24  H   UNL     1       2.099   7.959  22.049  0.00  0.00    +0.000 HD
ENDBRANCH  22  23
ENDBRANCH  16  17
ENDBRANCH   9  16
TORSDOF 5
ENDMDL
