MODEL 1
REMARK VINA RESULT:      -9.0      0.000      0.000
REMARK  Name = 
REMARK  6 active torsions:
REMARK  status: ('A' for Active; 'I' for Inactive)
REMARK    1  A    between atoms: C_1  and  C_2
REMARK    2  A    between atoms: C_4  and  C_5
REMARK    3  A    between atoms: C_11  and  C_12
REMARK    4  A    between atoms: C_15  and  C_16
REMARK    5  A    between atoms: C_21  and  C_22
REMARK    6  A    between atoms: C_22  and  O_24
REMARK                            x       y       z     vdW  Elec       q    Type
REMARK                         _______ _______ _______ _____ _____    ______ ____
ROOT
ATOM      1  C   UNL     1      -1.175  12.606  22.996  0.00  0.00    +0.000 C 
ATOM      2  C   UNL     1      -0.631  12.102  21.690  0.00  0.00    +0.000 A 
ATOM      3  C   UNL     1      -0.740  12.864  20.519  0.00  0.00    +0.000 A 
ATOM      4  C   UNL     1      -0.234  12.419  19.276  0.00  0.00    +0.000 A 
ATOM      5  C   UNL     1      -0.390  13.279  18.055  0.00  0.00    +0.000 C 
ATOM      6  C   UNL     1       0.402  11.158  19.249  0.00  0.00    +0.000 A 
ATOM      7  N   UNL     1       0.986  10.479  18.189  0.00  0.00    +0.000 NA
ATOM      8  C   UNL     1       1.408   9.370  18.729  0.00  0.00    +0.000 A 
ATOM      9  S   UNL     1       2.225   7.982  18.114  0.00  0.00    +0.000 S 
ATOM     10  C   UNL     1       2.167   7.235  19.693  0.00  0.00    +0.000 A 
ATOM     11  C   UNL     1       2.600   6.038  20.098  0.00  0.00    +0.000 C 
ATOM     12  C   UNL     1       1.529   8.127  20.705  0.00  0.00    +0.000 A 
ATOM     13  O   UNL     1       1.335   7.941  21.891  0.00  0.00    +0.000 OA
ATOM     14  N   UNL     1       1.140   9.273  20.052  0.00  0.00    +0.000 N 
ATOM     15  C   UNL     1       0.494  10.417  20.433  0.00  0.00    +0.000 A 
ATOM     16  C   UNL     1      -0.007  10.851  21.661  0.00  0.00    +0.000 A 
ENDROOT
BRANCH  11  17
ATOM     17  C   UNL     1       3.199   5.015  19.312  0.00  0.00    +0.000 A 
ATOM     18  C   UNL     1       3.200   3.630  19.411  0.00  0.00    +0.000 A 
ATOM     19  C   UNL     1       4.045   3.112  18.397  0.00  0.00    +0.000 A 
ATOM     20  C   UNL     1       4.527   4.192  17.697  0.00  0.00    +0.000 A 
ATOM     21  O   UNL     1       4.017   5.333  18.247  0.00  0.00    +0.000 OA
BRANCH  20  22
ATOM     22  C   UNL     1       5.432   4.387  16.563  0.00  0.00    +0.000 A 
ATOM     23  C   UNL     1       4.952   4.046  15.279  0.00  0.00    +0.000 A 
ATOM     24  C   UNL     1       5.706   4.266  14.123  0.00  0.00    +0.000 A 
ATOM     25  C   UNL     1       6.967   4.836  14.221  0.00  0.00    +0.000 A 
ATOM     26  C   UNL     1       7.474   5.167  15.475  0.00  0.00    +0.000 A 
ATOM     27  C   UNL     1       6.726   4.940  16.650  0.00  0.00    +0.000 A 
BRANCH  27  28
ATOM     28  C   UNL     1       7.412   5.357  17.903  0.00  0.00    +0.000 C 
ATOM     29  O   UNL     1       7.844   4.544  18.705  0.00  0.00    +0.000 OA
BRANCH  28  30
ATOM     30  O   UNL     1       7.430   6.683  18.145  0.00  0.00    +0.000 OA
ATOM     31  H   UNL     1       6.745   7.207  17.692  0.00  0.00    +0.000 HD
ENDBRANCH  28  30
ENDBRANCH  27  28
ENDBRANCH  20  22
ENDBRANCH  11  17
TORSDOF 4
ENDMDL
MODEL 2
REMARK VINA RESULT:      -8.6      2.023      2.995
REMARK  Name = 
REMARK  6 active torsions:
REMARK  status: ('A' for Active; 'I' for Inactive)
REMARK    1  A    between atoms: C_1  and  C_2
REMARK    2  A    between atoms: C_4  and  C_5
REMARK    3  A    between atoms: C_11  and  C_12
REMARK    4  A    between atoms: C_15  and  C_16
REMARK    5  A    between atoms: C_21  and  C_22
REMARK    6  A    between atoms: C_22  and  O_24
REMARK                            x       y       z     vdW  Elec       q    Type
REMARK                         _______ _______ _______ _____ _____    ______ ____
ROOT
ATOM      1  C   UNL     1      -1.160  15.298  23.563  0.00  0.00    +0.000 C 
ATOM      2  C   UNL     1      -0.735  14.590  22.309  0.00  0.00    +0.000 A 
ATOM      3  C   UNL     1      -0.701  15.259  21.077  0.00  0.00    +0.000 A 
ATOM      4  C   UNL     1      -0.302  14.621  19.881  0.00  0.00    +0.000 A 
ATOM      5  C   UNL     1      -0.294  15.390  18.591  0.00  0.00    +0.000 C 
ATOM      6  C   UNL     1       0.074  13.262  19.964  0.00  0.00    +0.000 A 
ATOM      7  N   UNL     1       0.504  12.395  18.969  0.00  0.00    +0.000 NA
ATOM      8  C   UNL     1       0.704  11.274  19.603  0.00  0.00    +0.000 A 
ATOM      9  S   UNL     1       1.226   9.706  19.113  0.00  0.00    +0.000 S 
ATOM     10  C   UNL     1       1.035   9.119  20.749  0.00  0.00    +0.000 A 
ATOM     11  C   UNL     1       1.227   7.898  21.255  0.00  0.00    +0.000 C 
ATOM     12  C   UNL     1       0.592  10.200  21.677  0.00  0.00    +0.000 A 
ATOM     13  O   UNL     1       0.374  10.156  22.872  0.00  0.00    +0.000 OA
ATOM     14  N   UNL     1       0.432  11.342  20.927  0.00  0.00    +0.000 N 
ATOM     15  C   UNL     1       0.026  12.618  21.206  0.00  0.00    +0.000 A 
ATOM     16  C   UNL     1      -0.370  13.243  22.389  0.00  0.00    +0.000 A 
ENDROOT
BRANCH  11  17
ATOM     17  C   UNL     1       1.607   6.715  20.563  0.00  0.00    +0.000 A 
ATOM     18  C   UNL     1       1.362   5.368  20.794  0.00  0.00    +0.000 A 
ATOM     19  C   UNL     1       2.067   4.614  19.822  0.00  0.00    +0.000 A 
ATOM     20  C   UNL     1       2.712   5.520  19.014  0.00  0.00    +0.000 A 
ATOM     21  O   UNL     1       2.434   6.781  19.459  0.00  0.00    +0.000 OA
BRANCH  20  22
ATOM     22  C   UNL     1       3.602   5.442  17.853  0.00  0.00    +0.000 A 
ATOM     23  C   UNL     1       4.192   6.644  17.402  0.00  0.00    +0.000 A 
ATOM     24  C   UNL     1       5.115   6.666  16.353  0.00  0.00    +0.000 A 
ATOM     25  C   UNL     1       5.475   5.483  15.724  0.00  0.00    +0.000 A 
ATOM     26  C   UNL     1       4.896   4.285  16.137  0.00  0.00    +0.000 A 
ATOM     27  C   UNL     1       3.955   4.250  17.188  0.00  0.00    +0.000 A 
BRANCH  27  28
ATOM     28  C   UNL     1       3.442   2.890  17.506  0.00  0.00    +0.000 C 
ATOM     29  O   UNL     1       2.348   2.505  17.122  0.00  0.00    +0.000 OA
BRANCH  28  30
ATOM     30  O   UNL     1       4.213   2.153  18.330  0.00  0.00    +0.000 OA
ATOM     31  H   UNL     1       3.741   1.649  19.017  0.00  0.00    +0.000 HD
ENDBRANCH  28  30
ENDBRANCH  27  28
ENDBRANCH  20  22
ENDBRANCH  11  17
TORSDOF 4
ENDMDL
MODEL 3
REMARK VINA RESULT:      -8.3      0.964      1.011
REMARK  Name = 
REMARK  6 active torsions:
REMARK  status: ('A' for Active; 'I' for Inactive)
REMARK    1  A    between atoms: C_1  and  C_2
REMARK    2  A    between atoms: C_4  and  C_5
REMARK    3  A    between atoms: C_11  and  C_12
REMARK    4  A    between atoms: C_15  and  C_16
REMARK    5  A    between atoms: C_21  and  C_22
REMARK    6  A    between atoms: C_22  and  O_24
REMARK                            x       y       z     vdW  Elec       q    Type
REMARK                         _______ _______ _______ _____ _____    ______ ____
ROOT
ATOM      1  C   UNL     1      -0.945  13.594  23.342  0.00  0.00    +0.000 C 
ATOM      2  C   UNL     1      -0.486  13.083  22.008  0.00  0.00    +0.000 A 
ATOM      3  C   UNL     1      -0.527  13.898  20.867  0.00  0.00    +0.000 A 
ATOM      4  C   UNL     1      -0.097  13.446  19.599  0.00  0.00    +0.000 A 
ATOM      5  C   UNL     1      -0.174  14.365  18.414  0.00  0.00    +0.000 C 
ATOM      6  C   UNL     1       0.388  12.123  19.511  0.00  0.00    +0.000 A 
ATOM      7  N   UNL     1       0.871  11.423  18.414  0.00  0.00    +0.000 NA
ATOM      8  C   UNL     1       1.171  10.253  18.904  0.00  0.00    +0.000 A 
ATOM      9  S   UNL     1       1.811   8.805  18.220  0.00  0.00    +0.000 S 
ATOM     10  C   UNL     1       1.695   8.008  19.772  0.00  0.00    +0.000 A 
ATOM     11  C   UNL     1       1.994   6.755  20.123  0.00  0.00    +0.000 C 
ATOM     12  C   UNL     1       1.182   8.927  20.830  0.00  0.00    +0.000 A 
ATOM     13  O   UNL     1       0.988   8.719  22.012  0.00  0.00    +0.000 OA
ATOM     14  N   UNL     1       0.917  10.135  20.227  0.00  0.00    +0.000 N 
ATOM     15  C   UNL     1       0.414  11.330  20.665  0.00  0.00    +0.000 A 
ATOM     16  C   UNL     1      -0.012  11.771  21.918  0.00  0.00    +0.000 A 
ENDROOT
BRANCH  11  17
ATOM     17  C   UNL     1       2.456   5.701  19.287  0.00  0.00    +0.000 A 
ATOM     18  C   UNL     1       2.043   4.387  19.110  0.00  0.00    +0.000 A 
ATOM     19  C   UNL     1       2.932   3.758  18.204  0.00  0.00    +0.000 A 
ATOM     20  C   UNL     1       3.858   4.707  17.839  0.00  0.00    +0.000 A 
ATOM     21  O   UNL     1       3.570   5.873  18.489  0.00  0.00    +0.000 OA
BRANCH  20  22
ATOM     22  C   UNL     1       5.035   4.743  16.968  0.00  0.00    +0.000 A 
ATOM     23  C   UNL     1       4.836   4.492  15.592  0.00  0.00    +0.000 A 
ATOM     24  C   UNL     1       5.878   4.580  14.665  0.00  0.00    +0.000 A 
ATOM     25  C   UNL     1       7.153   4.921  15.091  0.00  0.00    +0.000 A 
ATOM     26  C   UNL     1       7.383   5.158  16.444  0.00  0.00    +0.000 A 
ATOM     27  C   UNL     1       6.341   5.063  17.391  0.00  0.00    +0.000 A 
BRANCH  27  28
ATOM     28  C   UNL     1       6.756   5.353  18.791  0.00  0.00    +0.000 C 
ATOM     29  O   UNL     1       6.296   4.742  19.742  0.00  0.00    +0.000 OA
BRANCH  28  30
ATOM     30  O   UNL     1       7.590   6.401  18.946  0.00  0.00    +0.000 OA
ATOM     31  H   UNL     1       7.263   7.258  18.617  0.00  0.00    +0.000 HD
ENDBRANCH  28  30
ENDBRANCH  27  28
ENDBRANCH  20  22
ENDBRANCH  11  17
TORSDOF 4
ENDMDL
MODEL 4
REMARK VINA RESULT:      -8.3      3.166      9.931
REMARK  Name = 
REMARK  6 active torsions:
REMARK  status: ('A' for Active; 'I' for Inactive)
REMARK    1  A    between atoms: C_1  and  C_2
REMARK    2  A    between atoms: C_4  and  C_5
REMARK    3  A    between atoms: C_11  and  C_12
REMARK    4  A    between atoms: C_15  and  C_16
REMARK    5  A    between atoms: C_21  and  C_22
REMARK    6  A    between atoms: C_22  and  O_24
REMARK                            x       y       z     vdW  Elec       q    Type
REMARK                         _______ _______ _______ _____ _____    ______ ____
ROOT
ATOM      1  C   UNL     1       5.001   3.631  16.595  0.00  0.00    +0.000 C 
ATOM      2  C   UNL     1       4.176   4.167  17.729  0.00  0.00    +0.000 A 
ATOM      3  C   UNL     1       3.884   3.375  18.849  0.00  0.00    +0.000 A 
ATOM      4  C   UNL     1       3.114   3.853  19.934  0.00  0.00    +0.000 A 
ATOM      5  C   UNL     1       2.829   2.953  21.101  0.00  0.00    +0.000 C 
ATOM      6  C   UNL     1       2.641   5.182  19.858  0.00  0.00    +0.000 A 
ATOM      7  N   UNL     1       1.875   5.907  20.761  0.00  0.00    +0.000 NA
ATOM      8  C   UNL     1       1.729   7.065  20.180  0.00  0.00    +0.000 A 
ATOM      9  S   UNL     1       0.913   8.520  20.615  0.00  0.00    +0.000 S 
ATOM     10  C   UNL     1       1.377   9.247  19.095  0.00  0.00    +0.000 A 
ATOM     11  C   UNL     1       1.101  10.455  18.596  0.00  0.00    +0.000 C 
ATOM     12  C   UNL     1       2.216   8.326  18.273  0.00  0.00    +0.000 A 
ATOM     13  O   UNL     1       2.720   8.502  17.181  0.00  0.00    +0.000 OA
ATOM     14  N   UNL     1       2.333   7.148  18.973  0.00  0.00    +0.000 N 
ATOM     15  C   UNL     1       2.944   5.948  18.726  0.00  0.00    +0.000 A 
ATOM     16  C   UNL     1       3.701   5.480  17.652  0.00  0.00    +0.000 A 
ENDROOT
BRANCH  11  17
ATOM     17  C   UNL     1       0.296  11.475  19.175  0.00  0.00    +0.000 A 
ATOM     18  C   UNL     1       0.604  12.641  19.863  0.00  0.00    +0.000 A 
ATOM     19  C   UNL     1      -0.608  13.238  20.293  0.00  0.00    +0.000 A 
ATOM     20  C   UNL     1      -1.625  12.429  19.844  0.00  0.00    +0.000 A 
ATOM     21  O   UNL     1      -1.081  11.372  19.172  0.00  0.00    +0.000 OA
BRANCH  20  22
ATOM     22  C   UNL     1      -3.087  12.435  19.934  0.00  0.00    +0.000 A 
ATOM     23  C   UNL     1      -3.668  13.094  21.040  0.00  0.00    +0.000 A 
ATOM     24  C   UNL     1      -5.053  13.226  21.179  0.00  0.00    +0.000 A 
ATOM     25  C   UNL     1      -5.897  12.698  20.213  0.00  0.00    +0.000 A 
ATOM     26  C   UNL     1      -5.352  12.029  19.120  0.00  0.00    +0.000 A 
ATOM     27  C   UNL     1      -3.956  11.881  18.973  0.00  0.00    +0.000 A 
BRANCH  27  28
ATOM     28  C   UNL     1      -3.543  11.145  17.746  0.00  0.00    +0.000 C 
ATOM     29  O   UNL     1      -3.685   9.937  17.638  0.00  0.00    +0.000 OA
BRANCH  28  30
ATOM     30  O   UNL     1      -2.910  11.881  16.811  0.00  0.00    +0.000 OA
ATOM     31  H   UNL     1      -3.346  11.929  15.941  0.00  0.00    +0.000 HD
ENDBRANCH  28  30
ENDBRANCH  27  28
ENDBRANCH  20  22
ENDBRANCH  11  17
TORSDOF 4
ENDMDL
MODEL 5
REMARK VINA RESULT:      -8.2      2.713      9.972
REMARK  Name = 
REMARK  6 active torsions:
REMARK  status: ('A' for Active; 'I' for Inactive)
REMARK    1  A    between atoms: C_1  and  C_2
REMARK    2  A    between atoms: C_4  and  C_5
REMARK    3  A    between atoms: C_11  and  C_12
REMARK    4  A    between atoms: C_15  and  C_16
REMARK    5  A    between atoms: C_21  and  C_22
REMARK    6  A    between atoms: C_22  and  O_24
REMARK                            x       y       z     vdW  Elec       q    Type
REMARK                         _______ _______ _______ _____ _____    ______ ____
ROOT
ATOM      1  C   UNL     1       4.528   3.566  16.709  0.00  0.00    +0.000 C 
ATOM      2  C   UNL     1       3.794   4.211  17.849  0.00  0.00    +0.000 A 
ATOM      3  C   UNL     1       3.489   3.490  19.013  0.00  0.00    +0.000 A 
ATOM      4  C   UNL     1       2.803   4.070  20.104  0.00  0.00    +0.000 A 
ATOM      5  C   UNL     1       2.499   3.244  21.320  0.00  0.00    +0.000 C 
ATOM      6  C   UNL     1       2.429   5.427  19.988  0.00  0.00    +0.000 A 
ATOM      7  N   UNL     1       1.758   6.246  20.887  0.00  0.00    +0.000 NA
ATOM      8  C   UNL     1       1.677   7.387  20.262  0.00  0.00    +0.000 A 
ATOM      9  S   UNL     1       0.991   8.917  20.664  0.00  0.00    +0.000 S 
ATOM     10  C   UNL     1       1.446   9.544  19.096  0.00  0.00    +0.000 A 
ATOM     11  C   UNL     1       1.242  10.748  18.556  0.00  0.00    +0.000 C 
ATOM     12  C   UNL     1       2.179   8.528  18.284  0.00  0.00    +0.000 A 
ATOM     13  O   UNL     1       2.649   8.620  17.167  0.00  0.00    +0.000 OA
ATOM     14  N   UNL     1       2.235   7.374  19.030  0.00  0.00    +0.000 N 
ATOM     15  C   UNL     1       2.742   6.121  18.813  0.00  0.00    +0.000 A 
ATOM     16  C   UNL     1       3.416   5.552  17.733  0.00  0.00    +0.000 A 
ENDROOT
BRANCH  11  17
ATOM     17  C   UNL     1       0.542  11.850  19.119  0.00  0.00    +0.000 A 
ATOM     18  C   UNL     1       0.904  13.166  19.376  0.00  0.00    +0.000 A 
ATOM     19  C   UNL     1      -0.174  13.805  20.038  0.00  0.00    +0.000 A 
ATOM     20  C   UNL     1      -1.174  12.868  20.155  0.00  0.00    +0.000 A 
ATOM     21  O   UNL     1      -0.743  11.696  19.603  0.00  0.00    +0.000 OA
BRANCH  20  22
ATOM     22  C   UNL     1      -2.521  12.839  20.727  0.00  0.00    +0.000 A 
ATOM     23  C   UNL     1      -3.609  12.752  19.829  0.00  0.00    +0.000 A 
ATOM     24  C   UNL     1      -4.929  12.639  20.275  0.00  0.00    +0.000 A 
ATOM     25  C   UNL     1      -5.198  12.610  21.635  0.00  0.00    +0.000 A 
ATOM     26  C   UNL     1      -4.147  12.711  22.543  0.00  0.00    +0.000 A 
ATOM     27  C   UNL     1      -2.811  12.835  22.107  0.00  0.00    +0.000 A 
BRANCH  27  28
ATOM     28  C   UNL     1      -1.813  12.925  23.207  0.00  0.00    +0.000 C 
ATOM     29  O   UNL     1      -1.608  13.966  23.811  0.00  0.00    +0.000 OA
BRANCH  28  30
ATOM     30  O   UNL     1      -1.079  11.815  23.420  0.00  0.00    +0.000 OA
ATOM     31  H   UNL     1      -1.452  11.172  24.050  0.00  0.00    +0.000 HD
ENDBRANCH  28  30
ENDBRANCH  27  28
ENDBRANCH  20  22
ENDBRANCH  11  17
TORSDOF 4
ENDMDL
MODEL 6
REMARK VINA RESULT:      -8.2      2.621      4.681
REMARK  Name = 
REMARK  6 active torsions:
REMARK  status: ('A' for Active; 'I' for Inactive)
REMARK    1  A    between atoms: C_1  and  C_2
REMARK    2  A    between atoms: C_4  and  C_5
REMARK    3  A    between atoms: C_11  and  C_12
REMARK    4  A    between atoms: C_15  and  C_16
REMARK    5  A    between atoms: C_21  and  C_22
REMARK    6  A    between atoms: C_22  and  O_24
REMARK                            x       y       z     vdW  Elec       q    Type
REMARK                         _______ _______ _______ _____ _____    ______ ____
ROOT
ATOM      1  C   UNL     1      -3.685  15.035  24.830  0.00  0.00    +0.000 C 
ATOM      2  C   UNL     1      -3.578  14.404  23.472  0.00  0.00    +0.000 A 
ATOM      3  C   UNL     1      -4.470  14.742  22.444  0.00  0.00    +0.000 A 
ATOM      4  C   UNL     1      -4.392  14.169  21.155  0.00  0.00    +0.000 A 
ATOM      5  C   UNL     1      -5.383  14.567  20.099  0.00  0.00    +0.000 C 
ATOM      6  C   UNL     1      -3.363  13.229  20.924  0.00  0.00    +0.000 A 
ATOM      7  N   UNL     1      -3.049  12.518  19.773  0.00  0.00    +0.000 NA
ATOM      8  C   UNL     1      -2.022  11.798  20.128  0.00  0.00    +0.000 A 
ATOM      9  S   UNL     1      -1.039  10.643  19.308  0.00  0.00    +0.000 S 
ATOM     10  C   UNL     1      -0.118  10.375  20.770  0.00  0.00    +0.000 A 
ATOM     11  C   UNL     1       0.899   9.542  21.008  0.00  0.00    +0.000 C 
ATOM     12  C   UNL     1      -0.585  11.246  21.888  0.00  0.00    +0.000 A 
ATOM     13  O   UNL     1      -0.172  11.335  23.028  0.00  0.00    +0.000 OA
ATOM     14  N   UNL     1      -1.648  11.980  21.415  0.00  0.00    +0.000 N 
ATOM     15  C   UNL     1      -2.489  12.907  21.969  0.00  0.00    +0.000 A 
ATOM     16  C   UNL     1      -2.564  13.468  23.244  0.00  0.00    +0.000 A 
ENDROOT
BRANCH  11  17
ATOM     17  C   UNL     1       1.483   8.599  20.118  0.00  0.00    +0.000 A 
ATOM     18  C   UNL     1       1.899   8.684  18.796  0.00  0.00    +0.000 A 
ATOM     19  C   UNL     1       2.327   7.398  18.380  0.00  0.00    +0.000 A 
ATOM     20  C   UNL     1       2.175   6.564  19.463  0.00  0.00    +0.000 A 
ATOM     21  O   UNL     1       1.669   7.287  20.505  0.00  0.00    +0.000 OA
BRANCH  20  22
ATOM     22  C   UNL     1       2.403   5.143  19.731  0.00  0.00    +0.000 A 
ATOM     23  C   UNL     1       1.342   4.409  20.307  0.00  0.00    +0.000 A 
ATOM     24  C   UNL     1       1.429   3.033  20.530  0.00  0.00    +0.000 A 
ATOM     25  C   UNL     1       2.585   2.349  20.182  0.00  0.00    +0.000 A 
ATOM     26  C   UNL     1       3.654   3.049  19.628  0.00  0.00    +0.000 A 
ATOM     27  C   UNL     1       3.582   4.441  19.407  0.00  0.00    +0.000 A 
BRANCH  27  28
ATOM     28  C   UNL     1       4.808   5.030  18.802  0.00  0.00    +0.000 C 
ATOM     29  O   UNL     1       4.957   5.113  17.593  0.00  0.00    +0.000 OA
BRANCH  28  30
ATOM     30  O   UNL     1       5.783   5.366  19.671  0.00  0.00    +0.000 OA
ATOM     31  H   UNL     1       5.490   5.808  20.488  0.00  0.00    +0.000 HD
ENDBRANCH  28  30
ENDBRANCH  27  28
ENDBRANCH  20  22
ENDBRANCH  11  17
TORSDOF 4
ENDMDL
MODEL 7
REMARK VINA RESULT:      -8.2      2.399      3.965
REMARK  Name = 
REMARK  6 active torsions:
REMARK  status: ('A' for Active; 'I' for Inactive)
REMARK    1  A    between atoms: C_1  and  C_2
REMARK    2  A    between atoms: C_4  and  C_5
REMARK    3  A    between atoms: C_11  and  C_12
REMARK    4  A    between atoms: C_15  and  C_16
REMARK    5  A    between atoms: C_21  and  C_22
REMARK    6  A    between atoms: C_22  and  O_24
REMARK                            x       y       z     vdW  Elec       q    Type
REMARK                         _______ _______ _______ _____ _____    ______ ____
ROOT
ATOM      1  C   UNL     1      -3.725  13.456  25.232  0.00  0.00    +0.000 C 
ATOM      2  C   UNL     1      -3.490  13.207  23.770  0.00  0.00    +0.000 A 
ATOM      3  C   UNL     1      -4.276  13.835  22.793  0.00  0.00    +0.000 A 
ATOM      4  C   UNL     1      -4.075  13.625  21.410  0.00  0.00    +0.000 A 
ATOM      5  C   UNL     1      -4.956  14.321  20.413  0.00  0.00    +0.000 C 
ATOM      6  C   UNL     1      -3.035  12.747  21.032  0.00  0.00    +0.000 A 
ATOM      7  N   UNL     1      -2.614  12.359  19.767  0.00  0.00    +0.000 NA
ATOM      8  C   UNL     1      -1.632  11.538  20.008  0.00  0.00    +0.000 A 
ATOM      9  S   UNL     1      -0.581  10.611  19.003  0.00  0.00    +0.000 S 
ATOM     10  C   UNL     1       0.191   9.933  20.418  0.00  0.00    +0.000 A 
ATOM     11  C   UNL     1       1.174   9.034  20.517  0.00  0.00    +0.000 C 
ATOM     12  C   UNL     1      -0.378  10.490  21.680  0.00  0.00    +0.000 A 
ATOM     13  O   UNL     1      -0.077  10.258  22.835  0.00  0.00    +0.000 OA
ATOM     14  N   UNL     1      -1.384  11.357  21.326  0.00  0.00    +0.000 N 
ATOM     15  C   UNL     1      -2.269  12.130  22.028  0.00  0.00    +0.000 A 
ATOM     16  C   UNL     1      -2.466  12.333  23.394  0.00  0.00    +0.000 A 
ENDROOT
BRANCH  11  17
ATOM     17  C   UNL     1       1.836   8.345  19.464  0.00  0.00    +0.000 A 
ATOM     18  C   UNL     1       2.393   8.767  18.264  0.00  0.00    +0.000 A 
ATOM     19  C   UNL     1       2.844   7.625  17.555  0.00  0.00    +0.000 A 
ATOM     20  C   UNL     1       2.564   6.536  18.346  0.00  0.00    +0.000 A 
ATOM     21  O   UNL     1       1.960   6.970  19.492  0.00  0.00    +0.000 OA
BRANCH  20  22
ATOM     22  C   UNL     1       2.741   5.087  18.235  0.00  0.00    +0.000 A 
ATOM     23  C   UNL     1       1.591   4.277  18.368  0.00  0.00    +0.000 A 
ATOM     24  C   UNL     1       1.638   2.891  18.200  0.00  0.00    +0.000 A 
ATOM     25  C   UNL     1       2.842   2.273  17.894  0.00  0.00    +0.000 A 
ATOM     26  C   UNL     1       3.996   3.044  17.773  0.00  0.00    +0.000 A 
ATOM     27  C   UNL     1       3.963   4.444  17.950  0.00  0.00    +0.000 A 
BRANCH  27  28
ATOM     28  C   UNL     1       5.281   5.114  17.780  0.00  0.00    +0.000 C 
ATOM     29  O   UNL     1       6.003   5.372  18.730  0.00  0.00    +0.000 OA
BRANCH  28  30
ATOM     30  O   UNL     1       5.576   5.511  16.526  0.00  0.00    +0.000 OA
ATOM     31  H   UNL     1       5.487   4.832  15.833  0.00  0.00    +0.000 HD
ENDBRANCH  28  30
ENDBRANCH  27  28
ENDBRANCH  20  22
ENDBRANCH  11  17
TORSDOF 4
ENDMDL
MODEL 8
REMARK VINA RESULT:      -8.1      3.657     10.657
REMARK  Name = 
REMARK  6 active torsions:
REMARK  status: ('A' for Active; 'I' for Inactive)
REMARK    1  A    between atoms: C_1  and  C_2
REMARK    2  A    between atoms: C_4  and  C_5
REMARK    3  A    between atoms: C_11  and  C_12
REMARK    4  A    between atoms: C_15  and  C_16
REMARK    5  A    between atoms: C_21  and  C_22
REMARK    6  A    between atoms: C_22  and  O_24
REMARK                            x       y       z     vdW  Elec       q    Type
REMARK                         _______ _______ _______ _____ _____    ______ ____
ROOT
ATOM      1  C   UNL     1       4.892   5.966  16.342  0.00  0.00    +0.000 C 
ATOM      2  C   UNL     1       4.004   6.088  17.546  0.00  0.00    +0.000 A 
ATOM      3  C   UNL     1       3.813   5.007  18.418  0.00  0.00    +0.000 A 
ATOM      4  C   UNL     1       2.987   5.092  19.561  0.00  0.00    +0.000 A 
ATOM      5  C   UNL     1       2.818   3.895  20.451  0.00  0.00    +0.000 C 
ATOM      6  C   UNL     1       2.348   6.327  19.808  0.00  0.00    +0.000 A 
ATOM      7  N   UNL     1       1.494   6.697  20.839  0.00  0.00    +0.000 NA
ATOM      8  C   UNL     1       1.202   7.938  20.566  0.00  0.00    +0.000 A 
ATOM      9  S   UNL     1       0.205   9.121  21.328  0.00  0.00    +0.000 S 
ATOM     10  C   UNL     1       0.575  10.264  20.058  0.00  0.00    +0.000 A 
ATOM     11  C   UNL     1       0.147  11.516  19.873  0.00  0.00    +0.000 C 
ATOM     12  C   UNL     1       1.527   9.695  19.059  0.00  0.00    +0.000 A 
ATOM     13  O   UNL     1       2.006  10.206  18.065  0.00  0.00    +0.000 OA
ATOM     14  N   UNL     1       1.793   8.401  19.440  0.00  0.00    +0.000 N 
ATOM     15  C   UNL     1       2.552   7.389  18.919  0.00  0.00    +0.000 A 
ATOM     16  C   UNL     1       3.364   7.308  17.788  0.00  0.00    +0.000 A 
ENDROOT
BRANCH  11  17
ATOM     17  C   UNL     1      -0.782  12.247  20.664  0.00  0.00    +0.000 A 
ATOM     18  C   UNL     1      -0.630  13.104  21.745  0.00  0.00    +0.000 A 
ATOM     19  C   UNL     1      -1.919  13.481  22.200  0.00  0.00    +0.000 A 
ATOM     20  C   UNL     1      -2.824  12.856  21.376  0.00  0.00    +0.000 A 
ATOM     21  O   UNL     1      -2.141  12.116  20.454  0.00  0.00    +0.000 OA
BRANCH  20  22
ATOM     22  C   UNL     1      -4.284  12.792  21.280  0.00  0.00    +0.000 A 
ATOM     23  C   UNL     1      -4.848  12.653  19.992  0.00  0.00    +0.000 A 
ATOM     24  C   UNL     1      -6.223  12.504  19.798  0.00  0.00    +0.000 A 
ATOM     25  C   UNL     1      -7.077  12.491  20.891  0.00  0.00    +0.000 A 
ATOM     26  C   UNL     1      -6.552  12.642  22.172  0.00  0.00    +0.000 A 
ATOM     27  C   UNL     1      -5.165  12.804  22.381  0.00  0.00    +0.000 A 
BRANCH  27  28
ATOM     28  C   UNL     1      -4.773  12.946  23.809  0.00  0.00    +0.000 C 
ATOM     29  O   UNL     1      -4.466  11.984  24.495  0.00  0.00    +0.000 OA
BRANCH  28  30
ATOM     30  O   UNL     1      -4.880  14.188  24.322  0.00  0.00    +0.000 OA
ATOM     31  H   UNL     1      -4.405  14.890  23.840  0.00  0.00    +0.000 HD
ENDBRANCH  28  30
ENDBRANCH  27  28
ENDBRANCH  20  22
ENDBRANCH  11  17
TORSDOF 4
ENDMDL
MODEL 9
REMARK VINA RESULT:      -8.1      3.169     10.144
REMARK  Name = 
REMARK  6 active torsions:
REMARK  status: ('A' for Active; 'I' for Inactive)
REMARK    1  A    between atoms: C_1  and  C_2
REMARK    2  A    between atoms: C_4  and  C_5
REMARK    3  A    between atoms: C_11  and  C_12
REMARK    4  A    between atoms: C_15  and  C_16
REMARK    5  A    between atoms: C_21  and  C_22
REMARK    6  A    between atoms: C_22  and  O_24
REMARK                            x       y       z     vdW  Elec       q    Type
REMARK                         _______ _______ _______ _____ _____    ______ ____
ROOT
ATOM      1  C   UNL     1       5.461   4.016  15.942  0.00  0.00    +0.000 C 
ATOM      2  C   UNL     1       4.657   4.335  17.169  0.00  0.00    +0.000 A 
ATOM      3  C   UNL     1       4.496   3.391  18.194  0.00  0.00    +0.000 A 
ATOM      4  C   UNL     1       3.750   3.664  19.363  0.00  0.00    +0.000 A 
ATOM      5  C   UNL     1       3.608   2.608  20.421  0.00  0.00    +0.000 C 
ATOM      6  C   UNL     1       3.162   4.943  19.474  0.00  0.00    +0.000 A 
ATOM      7  N   UNL     1       2.389   5.482  20.494  0.00  0.00    +0.000 NA
ATOM      8  C   UNL     1       2.113   6.683  20.069  0.00  0.00    +0.000 A 
ATOM      9  S   UNL     1       1.201   7.994  20.718  0.00  0.00    +0.000 S 
ATOM     10  C   UNL     1       1.517   8.938  19.280  0.00  0.00    +0.000 A 
ATOM     11  C   UNL     1       1.112  10.167  18.948  0.00  0.00    +0.000 C 
ATOM     12  C   UNL     1       2.384   8.203  18.314  0.00  0.00    +0.000 A 
ATOM     13  O   UNL     1       2.810   8.554  17.230  0.00  0.00    +0.000 OA
ATOM     14  N   UNL     1       2.640   6.965  18.855  0.00  0.00    +0.000 N 
ATOM     15  C   UNL     1       3.336   5.864  18.434  0.00  0.00    +0.000 A 
ATOM     16  C   UNL     1       4.068   5.598  17.277  0.00  0.00    +0.000 A 
ENDROOT
BRANCH  11  17
ATOM     17  C   UNL     1       0.257  11.033  19.685  0.00  0.00    +0.000 A 
ATOM     18  C   UNL     1       0.449  11.801  20.826  0.00  0.00    +0.000 A 
ATOM     19  C   UNL     1      -0.786  12.403  21.171  0.00  0.00    +0.000 A 
ATOM     20  C   UNL     1      -1.699  11.999  20.225  0.00  0.00    +0.000 A 
ATOM     21  O   UNL     1      -1.071  11.177  19.334  0.00  0.00    +0.000 OA
BRANCH  20  22
ATOM     22  C   UNL     1      -3.125  12.224  19.981  0.00  0.00    +0.000 A 
ATOM     23  C   UNL     1      -3.629  11.887  18.705  0.00  0.00    +0.000 A 
ATOM     24  C   UNL     1      -4.988  11.989  18.396  0.00  0.00    +0.000 A 
ATOM     25  C   UNL     1      -5.884  12.433  19.358  0.00  0.00    +0.000 A 
ATOM     26  C   UNL     1      -5.413  12.788  20.619  0.00  0.00    +0.000 A 
ATOM     27  C   UNL     1      -4.042  12.700  20.941  0.00  0.00    +0.000 A 
BRANCH  27  28
ATOM     28  C   UNL     1      -3.710  13.112  22.332  0.00  0.00    +0.000 C 
ATOM     29  O   UNL     1      -3.365  14.251  22.605  0.00  0.00    +0.000 OA
BRANCH  28  30
ATOM     30  O   UNL     1      -3.714  12.124  23.250  0.00  0.00    +0.000 OA
ATOM     31  H   UNL     1      -4.587  11.750  23.468  0.00  0.00    +0.000 HD
ENDBRANCH  28  30
ENDBRANCH  27  28
ENDBRANCH  20  22
ENDBRANCH  11  17
TORSDOF 4
ENDMDL
