MODEL 1
REMARK VINA RESULT:      -7.2      0.000      0.000
REMARK  Name = 
REMARK  6 active torsions:
REMARK  status: ('A' for Active; 'I' for Inactive)
REMARK    1  A    between atoms: C_1  and  N_2
REMARK    2  A    between atoms: N_15  and  C_16
REMARK    3  A    between atoms: C_16  and  C_17
REMARK    4  A    between atoms: C_17  and  O_18
REMARK    5  A    between atoms: C_17  and  C_19
REMARK    6  A    between atoms: N_21  and  C_22
REMARK                            x       y       z     vdW  Elec       q    Type
REMARK                         _______ _______ _______ _____ _____    ______ ____
ROOT
ATOM      1  C   UNL     1       0.731   6.254  20.833  0.00  0.00    +0.000 C 
ATOM      2  N   UNL     1       1.663   5.511  20.010  0.00  0.00    +0.000 N 
ATOM      3  C   UNL     1       2.633   6.220  19.311  0.00  0.00    +0.000 A 
ATOM      4  O   UNL     1       2.760   7.439  19.373  0.00  0.00    +0.000 OA
ATOM      5  C   UNL     1       3.470   5.392  18.512  0.00  0.00    +0.000 A 
ATOM      6  C   UNL     1       3.343   4.037  18.447  0.00  0.00    +0.000 A 
ATOM      7  N   UNL     1       4.218   3.493  17.542  0.00  0.00    +0.000 NA
ATOM      8  C   UNL     1       4.965   4.508  17.139  0.00  0.00    +0.000 A 
ATOM      9  N   UNL     1       4.512   5.687  17.685  0.00  0.00    +0.000 N 
ATOM     10  C   UNL     1       5.030   6.987  17.323  0.00  0.00    +0.000 C 
ATOM     11  C   UNL     1       6.477   7.118  17.762  0.00  0.00    +0.000 C 
ATOM     12  C   UNL     1       7.433   6.389  16.834  0.00  0.00    +0.000 C 
ATOM     13  C   UNL     1       7.238   4.893  16.644  0.00  0.00    +0.000 C 
ATOM     14  O   UNL     1       8.219   4.147  16.621  0.00  0.00    +0.000 OA
ATOM     15  N   UNL     1       5.981   4.498  16.188  0.00  0.00    +0.000 N 
ATOM     16  N   UNL     1       2.418   3.372  19.225  0.00  0.00    +0.000 N 
ATOM     17  C   UNL     1       2.341   1.926  19.285  0.00  0.00    +0.000 C 
ATOM     18  C   UNL     1       1.550   4.102  20.039  0.00  0.00    +0.000 A 
ATOM     19  O   UNL     1       0.714   3.548  20.762  0.00  0.00    +0.000 OA
ENDROOT
BRANCH  15  20
ATOM     20  C   UNL     1       5.974   3.546  15.083  0.00  0.00    +0.000 C 
BRANCH  20  21
ATOM     21  C   UNL     1       6.043   4.273  13.724  0.00  0.00    +0.000 C 
BRANCH  21  22
ATOM     22  O   UNL     1       7.213   5.116  13.659  0.00  0.00    +0.000 OA
ATOM     23  H   UNL     1       7.304   5.415  12.735  0.00  0.00    +0.000 HD
ENDBRANCH  21  22
BRANCH  21  24
ATOM     24  C   UNL     1       6.037   3.316  12.531  0.00  0.00    +0.000 C 
ATOM     25 CL   UNL     1       4.493   3.384  11.629  0.00  0.00    +0.000 Cl
ENDBRANCH  21  24
ENDBRANCH  20  21
ENDBRANCH  15  20
TORSDOF 4
ENDMDL
MODEL 2
REMARK VINA RESULT:      -7.1      3.514      5.711
REMARK  Name = 
REMARK  6 active torsions:
REMARK  status: ('A' for Active; 'I' for Inactive)
REMARK    1  A    between atoms: C_1  and  N_2
REMARK    2  A    between atoms: N_15  and  C_16
REMARK    3  A    between atoms: C_16  and  C_17
REMARK    4  A    between atoms: C_17  and  O_18
REMARK    5  A    between atoms: C_17  and  C_19
REMARK    6  A    between atoms: N_21  and  C_22
REMARK                            x       y       z     vdW  Elec       q    Type
REMARK                         _______ _______ _______ _____ _____    ______ ____
ROOT
ATOM      1  C   UNL     1       0.723  12.456  19.078  0.00  0.00    +0.000 C 
ATOM      2  N   UNL     1       0.967  11.116  19.571  0.00  0.00    +0.000 N 
ATOM      3  C   UNL     1       1.567  10.200  18.714  0.00  0.00    +0.000 A 
ATOM      4  O   UNL     1       1.924  10.471  17.572  0.00  0.00    +0.000 OA
ATOM      5  C   UNL     1       1.728   8.910  19.292  0.00  0.00    +0.000 A 
ATOM      6  C   UNL     1       1.343   8.603  20.563  0.00  0.00    +0.000 A 
ATOM      7  N   UNL     1       1.534   7.274  20.839  0.00  0.00    +0.000 NA
ATOM      8  C   UNL     1       2.148   6.789  19.772  0.00  0.00    +0.000 A 
ATOM      9  N   UNL     1       2.250   7.754  18.795  0.00  0.00    +0.000 N 
ATOM     10  C   UNL     1       2.742   7.492  17.461  0.00  0.00    +0.000 C 
ATOM     11  C   UNL     1       4.211   7.112  17.507  0.00  0.00    +0.000 C 
ATOM     12  C   UNL     1       4.424   5.677  17.955  0.00  0.00    +0.000 C 
ATOM     13  C   UNL     1       3.896   5.271  19.322  0.00  0.00    +0.000 C 
ATOM     14  O   UNL     1       4.580   4.556  20.055  0.00  0.00    +0.000 OA
ATOM     15  N   UNL     1       2.532   5.474  19.528  0.00  0.00    +0.000 N 
ATOM     16  N   UNL     1       0.829   9.570  21.402  0.00  0.00    +0.000 N 
ATOM     17  C   UNL     1       0.533   9.318  22.798  0.00  0.00    +0.000 C 
ATOM     18  C   UNL     1       0.632  10.866  20.922  0.00  0.00    +0.000 A 
ATOM     19  O   UNL     1       0.185  11.767  21.641  0.00  0.00    +0.000 OA
ENDROOT
BRANCH  15  20
ATOM     20  C   UNL     1       1.802   4.353  20.111  0.00  0.00    +0.000 C 
BRANCH  20  21
ATOM     21  C   UNL     1       1.188   3.461  19.012  0.00  0.00    +0.000 C 
BRANCH  21  22
ATOM     22  O   UNL     1       1.245   4.122  17.731  0.00  0.00    +0.000 OA
ATOM     23  H   UNL     1       1.621   3.487  17.093  0.00  0.00    +0.000 HD
ENDBRANCH  21  22
BRANCH  21  24
ATOM     24  C   UNL     1       1.858   2.089  18.909  0.00  0.00    +0.000 C 
ATOM     25 CL   UNL     1       3.228   2.100  17.758  0.00  0.00    +0.000 Cl
ENDBRANCH  21  24
ENDBRANCH  20  21
ENDBRANCH  15  20
TORSDOF 4
ENDMDL
MODEL 3
REMARK VINA RESULT:      -7.0      3.358      5.544
REMARK  Name = 
REMARK  6 active torsions:
REMARK  status: ('A' for Active; 'I' for Inactive)
REMARK    1  A    between atoms: C_1  and  N_2
REMARK    2  A    between atoms: N_15  and  C_16
REMARK    3  A    between atoms: C_16  and  C_17
REMARK    4  A    between atoms: C_17  and  O_18
REMARK    5  A    between atoms: C_17  and  C_19
REMARK    6  A    between atoms: N_21  and  C_22
REMARK                            x       y       z     vdW  Elec       q    Type
REMARK                         _______ _______ _______ _____ _____    ______ ____
ROOT
ATOM      1  C   UNL     1      -0.030  10.534  21.962  0.00  0.00    +0.000 C 
ATOM      2  N   UNL     1       0.655   9.749  20.956  0.00  0.00    +0.000 N 
ATOM      3  C   UNL     1       0.840   8.392  21.194  0.00  0.00    +0.000 A 
ATOM      4  O   UNL     1       0.431   7.817  22.198  0.00  0.00    +0.000 OA
ATOM      5  C   UNL     1       1.552   7.729  20.156  0.00  0.00    +0.000 A 
ATOM      6  C   UNL     1       2.000   8.358  19.033  0.00  0.00    +0.000 A 
ATOM      7  N   UNL     1       2.725   7.509  18.237  0.00  0.00    +0.000 NA
ATOM      8  C   UNL     1       2.621   6.325  18.818  0.00  0.00    +0.000 A 
ATOM      9  N   UNL     1       1.941   6.431  20.011  0.00  0.00    +0.000 N 
ATOM     10  C   UNL     1       1.790   5.339  20.945  0.00  0.00    +0.000 C 
ATOM     11  C   UNL     1       0.937   4.240  20.337  0.00  0.00    +0.000 C 
ATOM     12  C   UNL     1       1.710   3.390  19.344  0.00  0.00    +0.000 C 
ATOM     13  C   UNL     1       2.328   4.085  18.142  0.00  0.00    +0.000 C 
ATOM     14  O   UNL     1       2.262   3.558  17.029  0.00  0.00    +0.000 OA
ATOM     15  N   UNL     1       3.210   5.125  18.430  0.00  0.00    +0.000 N 
ATOM     16  N   UNL     1       1.719   9.689  18.804  0.00  0.00    +0.000 N 
ATOM     17  C   UNL     1       2.059  10.359  17.566  0.00  0.00    +0.000 C 
ATOM     18  C   UNL     1       1.027  10.423  19.769  0.00  0.00    +0.000 A 
ATOM     19  O   UNL     1       0.742  11.614  19.602  0.00  0.00    +0.000 OA
ENDROOT
BRANCH  15  20
ATOM     20  C   UNL     1       4.478   5.104  17.709  0.00  0.00    +0.000 C 
BRANCH  20  21
ATOM     21  C   UNL     1       5.652   4.793  18.661  0.00  0.00    +0.000 C 
BRANCH  21  22
ATOM     22  O   UNL     1       5.572   3.433  19.137  0.00  0.00    +0.000 OA
ATOM     23  H   UNL     1       4.626   3.200  19.192  0.00  0.00    +0.000 HD
ENDBRANCH  21  22
BRANCH  21  24
ATOM     24  C   UNL     1       7.021   5.031  18.023  0.00  0.00    +0.000 C 
ATOM     25 CL   UNL     1       7.974   6.250  18.921  0.00  0.00    +0.000 Cl
ENDBRANCH  21  24
ENDBRANCH  20  21
ENDBRANCH  15  20
TORSDOF 4
ENDMDL
MODEL 4
REMARK VINA RESULT:      -6.9      3.504      5.176
REMARK  Name = 
REMARK  6 active torsions:
REMARK  status: ('A' for Active; 'I' for Inactive)
REMARK    1  A    between atoms: C_1  and  N_2
REMARK    2  A    between atoms: N_15  and  C_16
REMARK    3  A    between atoms: C_16  and  C_17
REMARK    4  A    between atoms: C_17  and  O_18
REMARK    5  A    between atoms: C_17  and  C_19
REMARK    6  A    between atoms: N_21  and  C_22
REMARK                            x       y       z     vdW  Elec       q    Type
REMARK                         _______ _______ _______ _____ _____    ______ ____
ROOT
ATOM      1  C   UNL     1       0.461  11.285  18.509  0.00  0.00    +0.000 C 
ATOM      2  N   UNL     1       0.969  10.027  19.015  0.00  0.00    +0.000 N 
ATOM      3  C   UNL     1       1.854   9.307  18.221  0.00  0.00    +0.000 A 
ATOM      4  O   UNL     1       2.248   9.692  17.124  0.00  0.00    +0.000 OA
ATOM      5  C   UNL     1       2.261   8.075  18.804  0.00  0.00    +0.000 A 
ATOM      6  C   UNL     1       1.836   7.646  20.026  0.00  0.00    +0.000 A 
ATOM      7  N   UNL     1       2.312   6.393  20.312  0.00  0.00    +0.000 NA
ATOM      8  C   UNL     1       3.128   6.102  19.312  0.00  0.00    +0.000 A 
ATOM      9  N   UNL     1       3.092   7.093  18.357  0.00  0.00    +0.000 N 
ATOM     10  C   UNL     1       3.764   6.997  17.080  0.00  0.00    +0.000 C 
ATOM     11  C   UNL     1       5.269   6.977  17.278  0.00  0.00    +0.000 C 
ATOM     12  C   UNL     1       5.775   5.621  17.737  0.00  0.00    +0.000 C 
ATOM     13  C   UNL     1       5.225   5.059  19.038  0.00  0.00    +0.000 C 
ATOM     14  O   UNL     1       5.984   4.504  19.834  0.00  0.00    +0.000 OA
ATOM     15  N   UNL     1       3.839   4.924  19.101  0.00  0.00    +0.000 N 
ATOM     16  N   UNL     1       1.023   8.436  20.813  0.00  0.00    +0.000 N 
ATOM     17  C   UNL     1       0.658   8.078  22.168  0.00  0.00    +0.000 C 
ATOM     18  C   UNL     1       0.570   9.662  20.322  0.00  0.00    +0.000 A 
ATOM     19  O   UNL     1      -0.149  10.408  20.996  0.00  0.00    +0.000 OA
ENDROOT
BRANCH  15  20
ATOM     20  C   UNL     1       3.345   3.644  19.597  0.00  0.00    +0.000 C 
BRANCH  20  21
ATOM     21  C   UNL     1       2.163   3.138  18.743  0.00  0.00    +0.000 C 
BRANCH  21  22
ATOM     22  O   UNL     1       2.491   1.878  18.121  0.00  0.00    +0.000 OA
ATOM     23  H   UNL     1       1.948   1.803  17.314  0.00  0.00    +0.000 HD
ENDBRANCH  21  22
BRANCH  21  24
ATOM     24  C   UNL     1       0.866   2.992  19.541  0.00  0.00    +0.000 C 
ATOM     25 CL   UNL     1       1.177   2.804  21.293  0.00  0.00    +0.000 Cl
ENDBRANCH  21  24
ENDBRANCH  20  21
ENDBRANCH  15  20
TORSDOF 4
ENDMDL
MODEL 5
REMARK VINA RESULT:      -6.7      3.221      4.798
REMARK  Name = 
REMARK  6 active torsions:
REMARK  status: ('A' for Active; 'I' for Inactive)
REMARK    1  A    between atoms: C_1  and  N_2
REMARK    2  A    between atoms: N_15  and  C_16
REMARK    3  A    between atoms: C_16  and  C_17
REMARK    4  A    between atoms: C_17  and  O_18
REMARK    5  A    between atoms: C_17  and  C_19
REMARK    6  A    between atoms: N_21  and  C_22
REMARK                            x       y       z     vdW  Elec       q    Type
REMARK                         _______ _______ _______ _____ _____    ______ ____
ROOT
ATOM      1  C   UNL     1       0.245  11.185  18.432  0.00  0.00    +0.000 C 
ATOM      2  N   UNL     1       0.838   9.987  18.990  0.00  0.00    +0.000 N 
ATOM      3  C   UNL     1       1.733   9.269  18.206  0.00  0.00    +0.000 A 
ATOM      4  O   UNL     1       2.069   9.608  17.076  0.00  0.00    +0.000 OA
ATOM      5  C   UNL     1       2.225   8.095  18.843  0.00  0.00    +0.000 A 
ATOM      6  C   UNL     1       1.865   7.717  20.101  0.00  0.00    +0.000 A 
ATOM      7  N   UNL     1       2.417   6.509  20.440  0.00  0.00    +0.000 NA
ATOM      8  C   UNL     1       3.214   6.203  19.429  0.00  0.00    +0.000 A 
ATOM      9  N   UNL     1       3.093   7.133  18.421  0.00  0.00    +0.000 N 
ATOM     10  C   UNL     1       3.725   6.999  17.129  0.00  0.00    +0.000 C 
ATOM     11  C   UNL     1       5.235   7.068  17.271  0.00  0.00    +0.000 C 
ATOM     12  C   UNL     1       5.829   5.769  17.787  0.00  0.00    +0.000 C 
ATOM     13  C   UNL     1       5.353   5.256  19.137  0.00  0.00    +0.000 C 
ATOM     14  O   UNL     1       6.168   4.789  19.935  0.00  0.00    +0.000 OA
ATOM     15  N   UNL     1       3.979   5.053  19.259  0.00  0.00    +0.000 N 
ATOM     16  N   UNL     1       1.038   8.508  20.871  0.00  0.00    +0.000 N 
ATOM     17  C   UNL     1       0.739   8.211  22.258  0.00  0.00    +0.000 C 
ATOM     18  C   UNL     1       0.503   9.678  20.329  0.00  0.00    +0.000 A 
ATOM     19  O   UNL     1      -0.233  10.424  20.987  0.00  0.00    +0.000 OA
ENDROOT
BRANCH  15  20
ATOM     20  C   UNL     1       3.572   3.781  19.844  0.00  0.00    +0.000 C 
BRANCH  20  21
ATOM     21  C   UNL     1       4.318   2.603  19.182  0.00  0.00    +0.000 C 
BRANCH  21  22
ATOM     22  O   UNL     1       5.040   1.840  20.171  0.00  0.00    +0.000 OA
ATOM     23  H   UNL     1       4.749   2.153  21.048  0.00  0.00    +0.000 HD
ENDBRANCH  21  22
BRANCH  21  24
ATOM     24  C   UNL     1       3.392   1.673  18.396  0.00  0.00    +0.000 C 
ATOM     25 CL   UNL     1       2.196   2.584  17.426  0.00  0.00    +0.000 Cl
ENDBRANCH  21  24
ENDBRANCH  20  21
ENDBRANCH  15  20
TORSDOF 4
ENDMDL
MODEL 6
REMARK VINA RESULT:      -6.6      4.130      7.325
REMARK  Name = 
REMARK  6 active torsions:
REMARK  status: ('A' for Active; 'I' for Inactive)
REMARK    1  A    between atoms: C_1  and  N_2
REMARK    2  A    between atoms: N_15  and  C_16
REMARK    3  A    between atoms: C_16  and  C_17
REMARK    4  A    between atoms: C_17  and  O_18
REMARK    5  A    between atoms: C_17  and  C_19
REMARK    6  A    between atoms: N_21  and  C_22
REMARK                            x       y       z     vdW  Elec       q    Type
REMARK                         _______ _______ _______ _____ _____    ______ ____
ROOT
ATOM      1  C   UNL     1       3.684   3.487  19.689  0.00  0.00    +0.000 C 
ATOM      2  N   UNL     1       3.390   4.843  19.275  0.00  0.00    +0.000 N 
ATOM      3  C   UNL     1       2.517   5.594  20.052  0.00  0.00    +0.000 A 
ATOM      4  O   UNL     1       2.000   5.180  21.085  0.00  0.00    +0.000 OA
ATOM      5  C   UNL     1       2.277   6.897  19.532  0.00  0.00    +0.000 A 
ATOM      6  C   UNL     1       2.855   7.368  18.392  0.00  0.00    +0.000 A 
ATOM      7  N   UNL     1       2.390   8.617  18.072  0.00  0.00    +0.000 NA
ATOM      8  C   UNL     1       1.613   8.961  19.085  0.00  0.00    +0.000 A 
ATOM      9  N   UNL     1       1.494   7.919  19.977  0.00  0.00    +0.000 N 
ATOM     10  C   UNL     1       0.599   7.936  21.112  0.00  0.00    +0.000 C 
ATOM     11  C   UNL     1       1.035   8.992  22.111  0.00  0.00    +0.000 C 
ATOM     12  C   UNL     1       0.644  10.395  21.679  0.00  0.00    +0.000 C 
ATOM     13  C   UNL     1       1.174  10.904  20.349  0.00  0.00    +0.000 C 
ATOM     14  O   UNL     1       1.586  12.062  20.257  0.00  0.00    +0.000 OA
ATOM     15  N   UNL     1       0.864  10.125  19.234  0.00  0.00    +0.000 N 
ATOM     16  N   UNL     1       3.780   6.614  17.700  0.00  0.00    +0.000 N 
ATOM     17  C   UNL     1       4.516   7.127  16.562  0.00  0.00    +0.000 C 
ATOM     18  C   UNL     1       4.078   5.320  18.134  0.00  0.00    +0.000 A 
ATOM     19  O   UNL     1       4.909   4.613  17.553  0.00  0.00    +0.000 OA
ENDROOT
BRANCH  15  20
ATOM     20  C   UNL     1       0.350  10.846  18.076  0.00  0.00    +0.000 C 
BRANCH  20  21
ATOM     21  C   UNL     1      -1.129  11.237  18.278  0.00  0.00    +0.000 C 
BRANCH  21  22
ATOM     22  O   UNL     1      -1.512  12.272  17.349  0.00  0.00    +0.000 OA
ATOM     23  H   UNL     1      -0.931  13.039  17.513  0.00  0.00    +0.000 HD
ENDBRANCH  21  22
BRANCH  21  24
ATOM     24  C   UNL     1      -2.087  10.051  18.144  0.00  0.00    +0.000 C 
ATOM     25 CL   UNL     1      -2.697   9.872  16.472  0.00  0.00    +0.000 Cl
ENDBRANCH  21  24
ENDBRANCH  20  21
ENDBRANCH  15  20
TORSDOF 4
ENDMDL
MODEL 7
REMARK VINA RESULT:      -6.6      2.832      4.616
REMARK  Name = 
REMARK  6 active torsions:
REMARK  status: ('A' for Active; 'I' for Inactive)
REMARK    1  A    between atoms: C_1  and  N_2
REMARK    2  A    between atoms: N_15  and  C_16
REMARK    3  A    between atoms: C_16  and  C_17
REMARK    4  A    between atoms: C_17  and  O_18
REMARK    5  A    between atoms: C_17  and  C_19
REMARK    6  A    between atoms: N_21  and  C_22
REMARK                            x       y       z     vdW  Elec       q    Type
REMARK                         _______ _______ _______ _____ _____    ______ ____
ROOT
ATOM      1  C   UNL     1      -0.059   8.775  21.725  0.00  0.00    +0.000 C 
ATOM      2  N   UNL     1       0.851   8.431  20.652  0.00  0.00    +0.000 N 
ATOM      3  C   UNL     1       1.405   7.157  20.643  0.00  0.00    +0.000 A 
ATOM      4  O   UNL     1       1.147   6.298  21.480  0.00  0.00    +0.000 OA
ATOM      5  C   UNL     1       2.307   6.942  19.563  0.00  0.00    +0.000 A 
ATOM      6  C   UNL     1       2.591   7.887  18.623  0.00  0.00    +0.000 A 
ATOM      7  N   UNL     1       3.551   7.451  17.746  0.00  0.00    +0.000 NA
ATOM      8  C   UNL     1       3.769   6.190  18.080  0.00  0.00    +0.000 A 
ATOM      9  N   UNL     1       3.052   5.858  19.208  0.00  0.00    +0.000 N 
ATOM     10  C   UNL     1       3.190   4.597  19.901  0.00  0.00    +0.000 C 
ATOM     11  C   UNL     1       2.702   3.458  19.023  0.00  0.00    +0.000 C 
ATOM     12  C   UNL     1       3.713   3.075  17.957  0.00  0.00    +0.000 C 
ATOM     13  C   UNL     1       4.144   4.145  16.967  0.00  0.00    +0.000 C 
ATOM     14  O   UNL     1       4.264   3.862  15.773  0.00  0.00    +0.000 OA
ATOM     15  N   UNL     1       4.686   5.303  17.523  0.00  0.00    +0.000 N 
ATOM     16  N   UNL     1       1.951   9.109  18.628  0.00  0.00    +0.000 N 
ATOM     17  C   UNL     1       2.124  10.088  17.574  0.00  0.00    +0.000 C 
ATOM     18  C   UNL     1       1.050   9.411  19.651  0.00  0.00    +0.000 A 
ATOM     19  O   UNL     1       0.445  10.488  19.689  0.00  0.00    +0.000 OA
ENDROOT
BRANCH  15  20
ATOM     20  C   UNL     1       5.928   5.777  16.924  0.00  0.00    +0.000 C 
BRANCH  20  21
ATOM     21  C   UNL     1       7.154   5.259  17.707  0.00  0.00    +0.000 C 
BRANCH  21  22
ATOM     22  O   UNL     1       8.068   4.576  16.823  0.00  0.00    +0.000 OA
ATOM     23  H   UNL     1       8.115   5.094  15.998  0.00  0.00    +0.000 HD
ENDBRANCH  21  22
BRANCH  21  24
ATOM     24  C   UNL     1       7.899   6.366  18.455  0.00  0.00    +0.000 C 
ATOM     25 CL   UNL     1       7.817   7.930  17.589  0.00  0.00    +0.000 Cl
ENDBRANCH  21  24
ENDBRANCH  20  21
ENDBRANCH  15  20
TORSDOF 4
ENDMDL
MODEL 8
REMARK VINA RESULT:      -6.5      2.572      6.677
REMARK  Name = 
REMARK  6 active torsions:
REMARK  status: ('A' for Active; 'I' for Inactive)
REMARK    1  A    between atoms: C_1  and  N_2
REMARK    2  A    between atoms: N_15  and  C_16
REMARK    3  A    between atoms: C_16  and  C_17
REMARK    4  A    between atoms: C_17  and  O_18
REMARK    5  A    between atoms: C_17  and  C_19
REMARK    6  A    between atoms: N_21  and  C_22
REMARK                            x       y       z     vdW  Elec       q    Type
REMARK                         _______ _______ _______ _____ _____    ______ ____
ROOT
ATOM      1  C   UNL     1       6.433   3.941  14.547  0.00  0.00    +0.000 C 
ATOM      2  N   UNL     1       5.976   4.227  15.891  0.00  0.00    +0.000 N 
ATOM      3  C   UNL     1       4.643   3.978  16.200  0.00  0.00    +0.000 A 
ATOM      4  O   UNL     1       3.839   3.504  15.404  0.00  0.00    +0.000 OA
ATOM      5  C   UNL     1       4.300   4.326  17.536  0.00  0.00    +0.000 A 
ATOM      6  C   UNL     1       5.189   4.843  18.430  0.00  0.00    +0.000 A 
ATOM      7  N   UNL     1       4.581   5.167  19.615  0.00  0.00    +0.000 NA
ATOM      8  C   UNL     1       3.336   4.737  19.487  0.00  0.00    +0.000 A 
ATOM      9  N   UNL     1       3.122   4.251  18.217  0.00  0.00    +0.000 N 
ATOM     10  C   UNL     1       1.826   3.842  17.725  0.00  0.00    +0.000 C 
ATOM     11  C   UNL     1       1.337   2.620  18.482  0.00  0.00    +0.000 C 
ATOM     12  C   UNL     1       0.796   2.968  19.857  0.00  0.00    +0.000 C 
ATOM     13  C   UNL     1       1.731   3.659  20.837  0.00  0.00    +0.000 C 
ATOM     14  O   UNL     1       1.741   3.314  22.020  0.00  0.00    +0.000 OA
ATOM     15  N   UNL     1       2.290   4.858  20.398  0.00  0.00    +0.000 N 
ATOM     16  N   UNL     1       6.520   4.994  18.100  0.00  0.00    +0.000 N 
ATOM     17  C   UNL     1       7.522   5.412  19.060  0.00  0.00    +0.000 C 
ATOM     18  C   UNL     1       6.951   4.681  16.810  0.00  0.00    +0.000 A 
ATOM     19  O   UNL     1       8.136   4.788  16.474  0.00  0.00    +0.000 OA
ENDROOT
BRANCH  15  20
ATOM     20  C   UNL     1       2.232   5.970  21.339  0.00  0.00    +0.000 C 
BRANCH  20  21
ATOM     21  C   UNL     1       1.517   7.187  20.715  0.00  0.00    +0.000 C 
BRANCH  21  22
ATOM     22  O   UNL     1       1.503   8.296  21.638  0.00  0.00    +0.000 OA
ATOM     23  H   UNL     1       0.662   8.252  22.130  0.00  0.00    +0.000 HD
ENDBRANCH  21  22
BRANCH  21  24
ATOM     24  C   UNL     1       2.139   7.634  19.390  0.00  0.00    +0.000 C 
ATOM     25 CL   UNL     1       1.394   9.141  18.777  0.00  0.00    +0.000 Cl
ENDBRANCH  21  24
ENDBRANCH  20  21
ENDBRANCH  15  20
TORSDOF 4
ENDMDL
MODEL 9
REMARK VINA RESULT:      -6.4      3.989      6.161
REMARK  Name = 
REMARK  6 active torsions:
REMARK  status: ('A' for Active; 'I' for Inactive)
REMARK    1  A    between atoms: C_1  and  N_2
REMARK    2  A    between atoms: N_15  and  C_16
REMARK    3  A    between atoms: C_16  and  C_17
REMARK    4  A    between atoms: C_17  and  O_18
REMARK    5  A    between atoms: C_17  and  C_19
REMARK    6  A    between atoms: N_21  and  C_22
REMARK                            x       y       z     vdW  Elec       q    Type
REMARK                         _______ _______ _______ _____ _____    ______ ____
ROOT
ATOM      1  C   UNL     1      -0.259  12.475  19.638  0.00  0.00    +0.000 C 
ATOM      2  N   UNL     1       0.276  11.193  20.048  0.00  0.00    +0.000 N 
ATOM      3  C   UNL     1       0.875  10.391  19.083  0.00  0.00    +0.000 A 
ATOM      4  O   UNL     1       0.998  10.721  17.907  0.00  0.00    +0.000 OA
ATOM      5  C   UNL     1       1.335   9.144  19.592  0.00  0.00    +0.000 A 
ATOM      6  C   UNL     1       1.211   8.775  20.898  0.00  0.00    +0.000 A 
ATOM      7  N   UNL     1       1.659   7.496  21.103  0.00  0.00    +0.000 NA
ATOM      8  C   UNL     1       2.168   7.123  19.940  0.00  0.00    +0.000 A 
ATOM      9  N   UNL     1       1.954   8.093  18.987  0.00  0.00    +0.000 N 
ATOM     10  C   UNL     1       2.266   7.919  17.586  0.00  0.00    +0.000 C 
ATOM     11  C   UNL     1       3.765   7.789  17.392  0.00  0.00    +0.000 C 
ATOM     12  C   UNL     1       4.280   6.409  17.761  0.00  0.00    +0.000 C 
ATOM     13  C   UNL     1       4.047   5.918  19.181  0.00  0.00    +0.000 C 
ATOM     14  O   UNL     1       4.947   5.325  19.778  0.00  0.00    +0.000 OA
ATOM     15  N   UNL     1       2.719   5.890  19.603  0.00  0.00    +0.000 N 
ATOM     16  N   UNL     1       0.685   9.641  21.834  0.00  0.00    +0.000 N 
ATOM     17  C   UNL     1       0.659   9.341  23.251  0.00  0.00    +0.000 C 
ATOM     18  C   UNL     1       0.204  10.887  21.427  0.00  0.00    +0.000 A 
ATOM     19  O   UNL     1      -0.265  11.700  22.232  0.00  0.00    +0.000 OA
ENDROOT
BRANCH  15  20
ATOM     20  C   UNL     1       2.284   4.662  20.259  0.00  0.00    +0.000 C 
BRANCH  20  21
ATOM     21  C   UNL     1       1.282   3.887  19.378  0.00  0.00    +0.000 C 
BRANCH  21  22
ATOM     22  O   UNL     1       1.845   3.633  18.074  0.00  0.00    +0.000 OA
ATOM     23  H   UNL     1       1.385   2.855  17.706  0.00  0.00    +0.000 HD
ENDBRANCH  21  22
BRANCH  21  24
ATOM     24  C   UNL     1       0.828   2.568  20.005  0.00  0.00    +0.000 C 
ATOM     25 CL   UNL     1       1.474   2.357  21.660  0.00  0.00    +0.000 Cl
ENDBRANCH  21  24
ENDBRANCH  20  21
ENDBRANCH  15  20
TORSDOF 4
ENDMDL
