MODEL 1
REMARK VINA RESULT:      -8.0      0.000      0.000
REMARK  Name = 
REMARK  7 active torsions:
REMARK  status: ('A' for Active; 'I' for Inactive)
REMARK    1  A    between atoms: C_1  and  C_2
REMARK    2  A    between atoms: C_5  and  N_6
REMARK    3  A    between atoms: N_9  and  C_10
REMARK    4  A    between atoms: C_12  and  C_13
REMARK    5  A    between atoms: C_13  and  C_14
REMARK    6  A    between atoms: C_13  and  C_15
REMARK    7  A    between atoms: N_17  and  C_18
REMARK                            x       y       z     vdW  Elec       q    Type
REMARK                         _______ _______ _______ _____ _____    ______ ____
ROOT
ATOM      1  C   UNL     1       3.289   6.962  17.965  0.00  0.00    +0.000 A 
ATOM      2  C   UNL     1       4.469   7.331  17.361  0.00  0.00    +0.000 A 
ATOM      3  C   UNL     1       5.362   6.264  17.596  0.00  0.00    +0.000 A 
ATOM      4  N   UNL     1       4.808   5.326  18.376  0.00  0.00    +0.000 NA
ATOM      5  N   UNL     1       3.500   5.689  18.481  0.00  0.00    +0.000 N 
ENDROOT
BRANCH   1   9
ATOM      6  N   UNL     1       0.638   9.135  19.088  0.00  0.00    +0.000 N 
ATOM      7  C   UNL     1       1.726   8.325  19.237  0.00  0.00    +0.000 C 
ATOM      8  O   UNL     1       2.390   8.119  20.236  0.00  0.00    +0.000 OA
ATOM      9  N   UNL     1       2.116   7.725  18.003  0.00  0.00    +0.000 N 
ATOM     10  H   UNL     1       0.010   8.972  18.313  0.00  0.00    +0.000 HD
ATOM     11  H   UNL     1       1.728   8.049  17.128  0.00  0.00    +0.000 HD
BRANCH   6  16
ATOM     12  C   UNL     1      -1.172  12.875  23.045  0.00  0.00    +0.000 C 
ATOM     13  C   UNL     1      -0.680  11.892  22.023  0.00  0.00    +0.000 A 
ATOM     14  C   UNL     1      -0.677  10.526  22.301  0.00  0.00    +0.000 A 
ATOM     15  C   UNL     1      -0.238   9.610  21.342  0.00  0.00    +0.000 A 
ATOM     16  C   UNL     1       0.205  10.039  20.085  0.00  0.00    +0.000 A 
ATOM     17  C   UNL     1       0.242  11.411  19.820  0.00  0.00    +0.000 A 
ATOM     18  C   UNL     1      -0.215  12.330  20.777  0.00  0.00    +0.000 A 
ENDBRANCH   6  16
ENDBRANCH   1   9
BRANCH   5  19
ATOM     19  C   UNL     1       2.527   4.756  18.933  0.00  0.00    +0.000 A 
ATOM     20  C   UNL     1       2.207   4.698  20.296  0.00  0.00    +0.000 A 
ATOM     21  C   UNL     1       1.293   3.747  20.759  0.00  0.00    +0.000 A 
ATOM     22  C   UNL     1       0.714   2.840  19.874  0.00  0.00    +0.000 A 
ATOM     23  C   UNL     1       1.041   2.882  18.520  0.00  0.00    +0.000 A 
ATOM     24  C   UNL     1       1.943   3.837  18.047  0.00  0.00    +0.000 A 
ENDBRANCH   5  19
BRANCH   3  25
ATOM     25  C   UNL     1       6.769   6.133  17.069  0.00  0.00    +0.000 C 
ATOM     26  C   UNL     1       7.671   7.283  17.513  0.00  0.00    +0.000 C 
ATOM     27  C   UNL     1       7.398   4.787  17.443  0.00  0.00    +0.000 C 
ENDBRANCH   3  25
TORSDOF 4
ENDMDL
MODEL 2
REMARK VINA RESULT:      -8.0      1.316      1.526
REMARK  Name = 
REMARK  7 active torsions:
REMARK  status: ('A' for Active; 'I' for Inactive)
REMARK    1  A    between atoms: C_1  and  C_2
REMARK    2  A    between atoms: C_5  and  N_6
REMARK    3  A    between atoms: N_9  and  C_10
REMARK    4  A    between atoms: C_12  and  C_13
REMARK    5  A    between atoms: C_13  and  C_14
REMARK    6  A    between atoms: C_13  and  C_15
REMARK    7  A    between atoms: N_17  and  C_18
REMARK                            x       y       z     vdW  Elec       q    Type
REMARK                         _______ _______ _______ _____ _____    ______ ____
ROOT
ATOM      1  C   UNL     1       3.787   6.767  17.764  0.00  0.00    +0.000 A 
ATOM      2  C   UNL     1       5.095   7.010  17.411  0.00  0.00    +0.000 A 
ATOM      3  C   UNL     1       5.855   6.029  18.084  0.00  0.00    +0.000 A 
ATOM      4  N   UNL     1       5.084   5.277  18.880  0.00  0.00    +0.000 NA
ATOM      5  N   UNL     1       3.809   5.638  18.574  0.00  0.00    +0.000 N 
ENDROOT
BRANCH   1   9
ATOM      6  N   UNL     1       0.991   9.045  17.722  0.00  0.00    +0.000 N 
ATOM      7  C   UNL     1       1.966   8.288  18.303  0.00  0.00    +0.000 C 
ATOM      8  O   UNL     1       2.310   8.253  19.470  0.00  0.00    +0.000 OA
ATOM      9  N   UNL     1       2.676   7.507  17.342  0.00  0.00    +0.000 N 
ATOM     10  H   UNL     1       0.607   8.751  16.834  0.00  0.00    +0.000 HD
ATOM     11  H   UNL     1       2.565   7.682  16.354  0.00  0.00    +0.000 HD
BRANCH   6  16
ATOM     12  C   UNL     1      -1.839  13.201  20.487  0.00  0.00    +0.000 C 
ATOM     13  C   UNL     1      -1.089  12.131  19.751  0.00  0.00    +0.000 A 
ATOM     14  C   UNL     1       0.291  11.999  19.906  0.00  0.00    +0.000 A 
ATOM     15  C   UNL     1       0.986  10.990  19.236  0.00  0.00    +0.000 A 
ATOM     16  C   UNL     1       0.317  10.089  18.399  0.00  0.00    +0.000 A 
ATOM     17  C   UNL     1      -1.059  10.244  18.209  0.00  0.00    +0.000 A 
ATOM     18  C   UNL     1      -1.759  11.248  18.895  0.00  0.00    +0.000 A 
ENDBRANCH   6  16
ENDBRANCH   1   9
BRANCH   5  19
ATOM     19  C   UNL     1       2.714   4.813  18.953  0.00  0.00    +0.000 A 
ATOM     20  C   UNL     1       2.246   4.853  20.274  0.00  0.00    +0.000 A 
ATOM     21  C   UNL     1       1.207   4.007  20.672  0.00  0.00    +0.000 A 
ATOM     22  C   UNL     1       0.648   3.107  19.767  0.00  0.00    +0.000 A 
ATOM     23  C   UNL     1       1.120   3.051  18.457  0.00  0.00    +0.000 A 
ATOM     24  C   UNL     1       2.149   3.902  18.048  0.00  0.00    +0.000 A 
ENDBRANCH   5  19
BRANCH   3  25
ATOM     25  C   UNL     1       7.341   5.803  17.968  0.00  0.00    +0.000 C 
ATOM     26  C   UNL     1       8.044   5.819  19.324  0.00  0.00    +0.000 C 
ATOM     27  C   UNL     1       7.667   4.511  17.213  0.00  0.00    +0.000 C 
ENDBRANCH   3  25
TORSDOF 4
ENDMDL
MODEL 3
REMARK VINA RESULT:      -7.8      0.134      1.371
REMARK  Name = 
REMARK  7 active torsions:
REMARK  status: ('A' for Active; 'I' for Inactive)
REMARK    1  A    between atoms: C_1  and  C_2
REMARK    2  A    between atoms: C_5  and  N_6
REMARK    3  A    between atoms: N_9  and  C_10
REMARK    4  A    between atoms: C_12  and  C_13
REMARK    5  A    between atoms: C_13  and  C_14
REMARK    6  A    between atoms: C_13  and  C_15
REMARK    7  A    between atoms: N_17  and  C_18
REMARK                            x       y       z     vdW  Elec       q    Type
REMARK                         _______ _______ _______ _____ _____    ______ ____
ROOT
ATOM      1  C   UNL     1       3.337   6.848  18.001  0.00  0.00    +0.000 A 
ATOM      2  C   UNL     1       4.514   7.223  17.393  0.00  0.00    +0.000 A 
ATOM      3  C   UNL     1       5.427   6.182  17.665  0.00  0.00    +0.000 A 
ATOM      4  N   UNL     1       4.886   5.257  18.469  0.00  0.00    +0.000 NA
ATOM      5  N   UNL     1       3.571   5.596  18.555  0.00  0.00    +0.000 N 
ENDROOT
BRANCH   1   9
ATOM      6  N   UNL     1       0.638   9.004  19.040  0.00  0.00    +0.000 N 
ATOM      7  C   UNL     1       1.742   8.221  19.220  0.00  0.00    +0.000 C 
ATOM      8  O   UNL     1       2.405   8.062  20.228  0.00  0.00    +0.000 OA
ATOM      9  N   UNL     1       2.149   7.589  18.008  0.00  0.00    +0.000 N 
ATOM     10  H   UNL     1       0.017   8.802  18.267  0.00  0.00    +0.000 HD
ATOM     11  H   UNL     1       1.759   7.876  17.122  0.00  0.00    +0.000 HD
BRANCH   6  16
ATOM     12  C   UNL     1      -1.154  12.702  23.044  0.00  0.00    +0.000 C 
ATOM     13  C   UNL     1      -0.704  11.740  21.984  0.00  0.00    +0.000 A 
ATOM     14  C   UNL     1      -0.302  12.203  20.732  0.00  0.00    +0.000 A 
ATOM     15  C   UNL     1       0.135  11.308  19.753  0.00  0.00    +0.000 A 
ATOM     16  C   UNL     1       0.182   9.932  20.004  0.00  0.00    +0.000 A 
ATOM     17  C   UNL     1      -0.259   9.461  21.244  0.00  0.00    +0.000 A 
ATOM     18  C   UNL     1      -0.683  10.362  22.233  0.00  0.00    +0.000 A 
ENDBRANCH   6  16
ENDBRANCH   1   9
BRANCH   5  19
ATOM     19  C   UNL     1       2.613   4.657  19.028  0.00  0.00    +0.000 A 
ATOM     20  C   UNL     1       1.987   3.792  18.120  0.00  0.00    +0.000 A 
ATOM     21  C   UNL     1       1.004   2.905  18.565  0.00  0.00    +0.000 A 
ATOM     22  C   UNL     1       0.626   2.890  19.907  0.00  0.00    +0.000 A 
ATOM     23  C   UNL     1       1.232   3.760  20.811  0.00  0.00    +0.000 A 
ATOM     24  C   UNL     1       2.224   4.641  20.377  0.00  0.00    +0.000 A 
ENDBRANCH   5  19
BRANCH   3  25
ATOM     25  C   UNL     1       6.839   6.063  17.151  0.00  0.00    +0.000 C 
ATOM     26  C   UNL     1       7.734   7.207  17.626  0.00  0.00    +0.000 C 
ATOM     27  C   UNL     1       7.467   4.712  17.506  0.00  0.00    +0.000 C 
ENDBRANCH   3  25
TORSDOF 4
ENDMDL
MODEL 4
REMARK VINA RESULT:      -7.8      1.414      1.766
REMARK  Name = 
REMARK  7 active torsions:
REMARK  status: ('A' for Active; 'I' for Inactive)
REMARK    1  A    between atoms: C_1  and  C_2
REMARK    2  A    between atoms: C_5  and  N_6
REMARK    3  A    between atoms: N_9  and  C_10
REMARK    4  A    between atoms: C_12  and  C_13
REMARK    5  A    between atoms: C_13  and  C_14
REMARK    6  A    between atoms: C_13  and  C_15
REMARK    7  A    between atoms: N_17  and  C_18
REMARK                            x       y       z     vdW  Elec       q    Type
REMARK                         _______ _______ _______ _____ _____    ______ ____
ROOT
ATOM      1  C   UNL     1       3.771   6.704  17.786  0.00  0.00    +0.000 A 
ATOM      2  C   UNL     1       5.072   6.965  17.421  0.00  0.00    +0.000 A 
ATOM      3  C   UNL     1       5.852   5.997  18.089  0.00  0.00    +0.000 A 
ATOM      4  N   UNL     1       5.100   5.236  18.895  0.00  0.00    +0.000 NA
ATOM      5  N   UNL     1       3.817   5.578  18.599  0.00  0.00    +0.000 N 
ENDROOT
BRANCH   1   9
ATOM      6  N   UNL     1       0.999   9.012  17.731  0.00  0.00    +0.000 N 
ATOM      7  C   UNL     1       1.998   8.285  18.312  0.00  0.00    +0.000 C 
ATOM      8  O   UNL     1       2.405   8.330  19.458  0.00  0.00    +0.000 OA
ATOM      9  N   UNL     1       2.645   7.427  17.373  0.00  0.00    +0.000 N 
ATOM     10  H   UNL     1       0.564   8.660  16.889  0.00  0.00    +0.000 HD
ATOM     11  H   UNL     1       2.482   7.531  16.382  0.00  0.00    +0.000 HD
BRANCH   6  16
ATOM     12  C   UNL     1      -1.460  13.546  20.243  0.00  0.00    +0.000 C 
ATOM     13  C   UNL     1      -0.822  12.348  19.605  0.00  0.00    +0.000 A 
ATOM     14  C   UNL     1      -1.596  11.252  19.226  0.00  0.00    +0.000 A 
ATOM     15  C   UNL     1      -1.003  10.145  18.614  0.00  0.00    +0.000 A 
ATOM     16  C   UNL     1       0.374  10.110  18.366  0.00  0.00    +0.000 A 
ATOM     17  C   UNL     1       1.158  11.190  18.782  0.00  0.00    +0.000 A 
ATOM     18  C   UNL     1       0.560  12.309  19.382  0.00  0.00    +0.000 A 
ENDBRANCH   6  16
ENDBRANCH   1   9
BRANCH   5  19
ATOM     19  C   UNL     1       2.737   4.739  18.992  0.00  0.00    +0.000 A 
ATOM     20  C   UNL     1       2.202   3.828  18.071  0.00  0.00    +0.000 A 
ATOM     21  C   UNL     1       1.106   3.038  18.428  0.00  0.00    +0.000 A 
ATOM     22  C   UNL     1       0.526   3.169  19.689  0.00  0.00    +0.000 A 
ATOM     23  C   UNL     1       1.043   4.086  20.601  0.00  0.00    +0.000 A 
ATOM     24  C   UNL     1       2.146   4.869  20.258  0.00  0.00    +0.000 A 
ENDBRANCH   5  19
BRANCH   3  25
ATOM     25  C   UNL     1       7.340   5.792  17.959  0.00  0.00    +0.000 C 
ATOM     26  C   UNL     1       8.057   5.827  19.308  0.00  0.00    +0.000 C 
ATOM     27  C   UNL     1       7.678   4.500  17.210  0.00  0.00    +0.000 C 
ENDBRANCH   3  25
TORSDOF 4
ENDMDL
MODEL 5
REMARK VINA RESULT:      -7.7      1.402      1.846
REMARK  Name = 
REMARK  7 active torsions:
REMARK  status: ('A' for Active; 'I' for Inactive)
REMARK    1  A    between atoms: C_1  and  C_2
REMARK    2  A    between atoms: C_5  and  N_6
REMARK    3  A    between atoms: N_9  and  C_10
REMARK    4  A    between atoms: C_12  and  C_13
REMARK    5  A    between atoms: C_13  and  C_14
REMARK    6  A    between atoms: C_13  and  C_15
REMARK    7  A    between atoms: N_17  and  C_18
REMARK                            x       y       z     vdW  Elec       q    Type
REMARK                         _______ _______ _______ _____ _____    ______ ____
ROOT
ATOM      1  C   UNL     1       3.616   6.924  17.784  0.00  0.00    +0.000 A 
ATOM      2  C   UNL     1       4.894   7.285  17.422  0.00  0.00    +0.000 A 
ATOM      3  C   UNL     1       5.744   6.360  18.066  0.00  0.00    +0.000 A 
ATOM      4  N   UNL     1       5.051   5.529  18.856  0.00  0.00    +0.000 NA
ATOM      5  N   UNL     1       3.745   5.785  18.571  0.00  0.00    +0.000 N 
ENDROOT
BRANCH   1   9
ATOM      6  N   UNL     1       0.729   9.086  17.758  0.00  0.00    +0.000 N 
ATOM      7  C   UNL     1       1.784   8.431  18.324  0.00  0.00    +0.000 C 
ATOM      8  O   UNL     1       2.230   8.538  19.451  0.00  0.00    +0.000 OA
ATOM      9  N   UNL     1       2.440   7.573  17.390  0.00  0.00    +0.000 N 
ATOM     10  H   UNL     1       0.282   8.682  16.946  0.00  0.00    +0.000 HD
ATOM     11  H   UNL     1       2.235   7.634  16.404  0.00  0.00    +0.000 HD
BRANCH   6  16
ATOM     12  C   UNL     1      -2.024  13.420  20.318  0.00  0.00    +0.000 C 
ATOM     13  C   UNL     1      -1.297  12.301  19.632  0.00  0.00    +0.000 A 
ATOM     14  C   UNL     1       0.097  12.278  19.601  0.00  0.00    +0.000 A 
ATOM     15  C   UNL     1       0.773  11.225  18.979  0.00  0.00    +0.000 A 
ATOM     16  C   UNL     1       0.072  10.173  18.378  0.00  0.00    +0.000 A 
ATOM     17  C   UNL     1      -1.325  10.216  18.372  0.00  0.00    +0.000 A 
ATOM     18  C   UNL     1      -2.004  11.265  19.011  0.00  0.00    +0.000 A 
ENDBRANCH   6  16
ENDBRANCH   1   9
BRANCH   5  19
ATOM     19  C   UNL     1       2.729   4.863  18.947  0.00  0.00    +0.000 A 
ATOM     20  C   UNL     1       2.260   3.935  18.008  0.00  0.00    +0.000 A 
ATOM     21  C   UNL     1       1.224   3.061  18.349  0.00  0.00    +0.000 A 
ATOM     22  C   UNL     1       0.639   3.124  19.613  0.00  0.00    +0.000 A 
ATOM     23  C   UNL     1       1.090   4.056  20.544  0.00  0.00    +0.000 A 
ATOM     24  C   UNL     1       2.133   4.924  20.216  0.00  0.00    +0.000 A 
ENDBRANCH   5  19
BRANCH   3  25
ATOM     25  C   UNL     1       7.242   6.265  17.928  0.00  0.00    +0.000 C 
ATOM     26  C   UNL     1       7.885   7.605  17.574  0.00  0.00    +0.000 C 
ATOM     27  C   UNL     1       7.896   5.673  19.180  0.00  0.00    +0.000 C 
ENDBRANCH   3  25
TORSDOF 4
ENDMDL
MODEL 6
REMARK VINA RESULT:      -7.7      4.501      6.603
REMARK  Name = 
REMARK  7 active torsions:
REMARK  status: ('A' for Active; 'I' for Inactive)
REMARK    1  A    between atoms: C_1  and  C_2
REMARK    2  A    between atoms: C_5  and  N_6
REMARK    3  A    between atoms: N_9  and  C_10
REMARK    4  A    between atoms: C_12  and  C_13
REMARK    5  A    between atoms: C_13  and  C_14
REMARK    6  A    between atoms: C_13  and  C_15
REMARK    7  A    between atoms: N_17  and  C_18
REMARK                            x       y       z     vdW  Elec       q    Type
REMARK                         _______ _______ _______ _____ _____    ______ ____
ROOT
ATOM      1  C   UNL     1       5.315   5.250  15.485  0.00  0.00    +0.000 A 
ATOM      2  C   UNL     1       5.250   4.591  14.278  0.00  0.00    +0.000 A 
ATOM      3  C   UNL     1       6.581   4.532  13.810  0.00  0.00    +0.000 A 
ATOM      4  N   UNL     1       7.414   5.194  14.624  0.00  0.00    +0.000 NA
ATOM      5  N   UNL     1       6.661   5.507  15.713  0.00  0.00    +0.000 N 
ENDROOT
BRANCH   1   9
ATOM      6  N   UNL     1       2.771   5.037  18.033  0.00  0.00    +0.000 N 
ATOM      7  C   UNL     1       3.751   4.556  17.214  0.00  0.00    +0.000 C 
ATOM      8  O   UNL     1       4.268   3.455  17.212  0.00  0.00    +0.000 OA
ATOM      9  N   UNL     1       4.224   5.553  16.309  0.00  0.00    +0.000 N 
ATOM     10  H   UNL     1       2.226   5.833  17.729  0.00  0.00    +0.000 HD
ATOM     11  H   UNL     1       3.977   6.523  16.437  0.00  0.00    +0.000 HD
BRANCH   6  16
ATOM     12  C   UNL     1       0.907   2.123  22.611  0.00  0.00    +0.000 C 
ATOM     13  C   UNL     1       1.383   2.904  21.421  0.00  0.00    +0.000 A 
ATOM     14  C   UNL     1       2.304   3.939  21.577  0.00  0.00    +0.000 A 
ATOM     15  C   UNL     1       2.762   4.653  20.467  0.00  0.00    +0.000 A 
ATOM     16  C   UNL     1       2.311   4.345  19.177  0.00  0.00    +0.000 A 
ATOM     17  C   UNL     1       1.357   3.336  19.023  0.00  0.00    +0.000 A 
ATOM     18  C   UNL     1       0.910   2.608  20.137  0.00  0.00    +0.000 A 
ENDBRANCH   6  16
ENDBRANCH   1   9
BRANCH   5  19
ATOM     19  C   UNL     1       7.281   5.895  16.933  0.00  0.00    +0.000 A 
ATOM     20  C   UNL     1       7.524   4.932  17.921  0.00  0.00    +0.000 A 
ATOM     21  C   UNL     1       8.082   5.312  19.144  0.00  0.00    +0.000 A 
ATOM     22  C   UNL     1       8.379   6.650  19.396  0.00  0.00    +0.000 A 
ATOM     23  C   UNL     1       8.124   7.615  18.424  0.00  0.00    +0.000 A 
ATOM     24  C   UNL     1       7.579   7.242  17.194  0.00  0.00    +0.000 A 
ENDBRANCH   5  19
BRANCH   3  25
ATOM     25  C   UNL     1       7.069   3.835  12.566  0.00  0.00    +0.000 C 
ATOM     26  C   UNL     1       6.033   2.872  11.988  0.00  0.00    +0.000 C 
ATOM     27  C   UNL     1       7.528   4.828  11.495  0.00  0.00    +0.000 C 
ENDBRANCH   3  25
TORSDOF 4
ENDMDL
MODEL 7
REMARK VINA RESULT:      -7.6      2.681      5.074
REMARK  Name = 
REMARK  7 active torsions:
REMARK  status: ('A' for Active; 'I' for Inactive)
REMARK    1  A    between atoms: C_1  and  C_2
REMARK    2  A    between atoms: C_5  and  N_6
REMARK    3  A    between atoms: N_9  and  C_10
REMARK    4  A    between atoms: C_12  and  C_13
REMARK    5  A    between atoms: C_13  and  C_14
REMARK    6  A    between atoms: C_13  and  C_15
REMARK    7  A    between atoms: N_17  and  C_18
REMARK                            x       y       z     vdW  Elec       q    Type
REMARK                         _______ _______ _______ _____ _____    ______ ____
ROOT
ATOM      1  C   UNL     1       5.088   4.940  16.059  0.00  0.00    +0.000 A 
ATOM      2  C   UNL     1       4.917   4.216  14.901  0.00  0.00    +0.000 A 
ATOM      3  C   UNL     1       6.119   4.375  14.177  0.00  0.00    +0.000 A 
ATOM      4  N   UNL     1       6.953   5.221  14.797  0.00  0.00    +0.000 NA
ATOM      5  N   UNL     1       6.379   5.450  16.009  0.00  0.00    +0.000 N 
ENDROOT
BRANCH   1   9
ATOM      6  N   UNL     1       2.773   6.380  18.421  0.00  0.00    +0.000 N 
ATOM      7  C   UNL     1       3.793   6.397  17.514  0.00  0.00    +0.000 C 
ATOM      8  O   UNL     1       4.361   7.356  17.027  0.00  0.00    +0.000 OA
ATOM      9  N   UNL     1       4.140   5.083  17.080  0.00  0.00    +0.000 N 
ATOM     10  H   UNL     1       2.616   5.542  18.965  0.00  0.00    +0.000 HD
ATOM     11  H   UNL     1       3.545   4.296  17.293  0.00  0.00    +0.000 HD
BRANCH   6  16
ATOM     12  C   UNL     1      -0.007  11.101  20.125  0.00  0.00    +0.000 C 
ATOM     13  C   UNL     1       0.700   9.859  19.670  0.00  0.00    +0.000 A 
ATOM     14  C   UNL     1       0.967   9.653  18.316  0.00  0.00    +0.000 A 
ATOM     15  C   UNL     1       1.643   8.506  17.895  0.00  0.00    +0.000 A 
ATOM     16  C   UNL     1       2.070   7.541  18.816  0.00  0.00    +0.000 A 
ATOM     17  C   UNL     1       1.767   7.725  20.168  0.00  0.00    +0.000 A 
ATOM     18  C   UNL     1       1.102   8.886  20.593  0.00  0.00    +0.000 A 
ENDBRANCH   6  16
ENDBRANCH   1   9
BRANCH   5  19
ATOM     19  C   UNL     1       7.139   6.010  17.073  0.00  0.00    +0.000 A 
ATOM     20  C   UNL     1       7.454   5.220  18.187  0.00  0.00    +0.000 A 
ATOM     21  C   UNL     1       8.152   5.775  19.262  0.00  0.00    +0.000 A 
ATOM     22  C   UNL     1       8.517   7.120  19.244  0.00  0.00    +0.000 A 
ATOM     23  C   UNL     1       8.191   7.915  18.147  0.00  0.00    +0.000 A 
ATOM     24  C   UNL     1       7.506   7.365  17.063  0.00  0.00    +0.000 A 
ENDBRANCH   5  19
BRANCH   3  25
ATOM     25  C   UNL     1       6.480   3.713  12.872  0.00  0.00    +0.000 C 
ATOM     26  C   UNL     1       5.252   3.254  12.088  0.00  0.00    +0.000 C 
ATOM     27  C   UNL     1       7.365   4.608  12.000  0.00  0.00    +0.000 C 
ENDBRANCH   3  25
TORSDOF 4
ENDMDL
MODEL 8
REMARK VINA RESULT:      -7.4      1.611      4.492
REMARK  Name = 
REMARK  7 active torsions:
REMARK  status: ('A' for Active; 'I' for Inactive)
REMARK    1  A    between atoms: C_1  and  C_2
REMARK    2  A    between atoms: C_5  and  N_6
REMARK    3  A    between atoms: N_9  and  C_10
REMARK    4  A    between atoms: C_12  and  C_13
REMARK    5  A    between atoms: C_13  and  C_14
REMARK    6  A    between atoms: C_13  and  C_15
REMARK    7  A    between atoms: N_17  and  C_18
REMARK                            x       y       z     vdW  Elec       q    Type
REMARK                         _______ _______ _______ _____ _____    ______ ____
ROOT
ATOM      1  C   UNL     1       2.937   5.767  18.179  0.00  0.00    +0.000 A 
ATOM      2  C   UNL     1       2.012   4.904  18.720  0.00  0.00    +0.000 A 
ATOM      3  C   UNL     1       2.754   3.792  19.174  0.00  0.00    +0.000 A 
ATOM      4  N   UNL     1       4.050   3.908  18.854  0.00  0.00    +0.000 NA
ATOM      5  N   UNL     1       4.179   5.175  18.375  0.00  0.00    +0.000 N 
ENDROOT
BRANCH   1   9
ATOM      6  N   UNL     1       2.052   9.234  17.725  0.00  0.00    +0.000 N 
ATOM      7  C   UNL     1       2.162   8.061  18.414  0.00  0.00    +0.000 C 
ATOM      8  O   UNL     1       1.954   7.849  19.594  0.00  0.00    +0.000 OA
ATOM      9  N   UNL     1       2.653   7.005  17.590  0.00  0.00    +0.000 N 
ATOM     10  H   UNL     1       1.948   9.203  16.720  0.00  0.00    +0.000 HD
ATOM     11  H   UNL     1       3.043   7.201  16.679  0.00  0.00    +0.000 HD
BRANCH   6  16
ATOM     12  C   UNL     1       1.188  14.355  20.166  0.00  0.00    +0.000 C 
ATOM     13  C   UNL     1       1.424  13.008  19.547  0.00  0.00    +0.000 A 
ATOM     14  C   UNL     1       0.733  11.888  20.007  0.00  0.00    +0.000 A 
ATOM     15  C   UNL     1       0.939  10.638  19.417  0.00  0.00    +0.000 A 
ATOM     16  C   UNL     1       1.837  10.482  18.354  0.00  0.00    +0.000 A 
ATOM     17  C   UNL     1       2.561  11.596  17.919  0.00  0.00    +0.000 A 
ATOM     18  C   UNL     1       2.341  12.854  18.500  0.00  0.00    +0.000 A 
ENDBRANCH   6  16
ENDBRANCH   1   9
BRANCH   5  19
ATOM     19  C   UNL     1       5.462   5.779  18.268  0.00  0.00    +0.000 A 
ATOM     20  C   UNL     1       6.476   5.408  19.161  0.00  0.00    +0.000 A 
ATOM     21  C   UNL     1       7.723   6.034  19.100  0.00  0.00    +0.000 A 
ATOM     22  C   UNL     1       7.958   7.045  18.170  0.00  0.00    +0.000 A 
ATOM     23  C   UNL     1       6.948   7.431  17.291  0.00  0.00    +0.000 A 
ATOM     24  C   UNL     1       5.703   6.800  17.336  0.00  0.00    +0.000 A 
ENDBRANCH   5  19
BRANCH   3  25
ATOM     25  C   UNL     1       2.221   2.598  19.924  0.00  0.00    +0.000 C 
ATOM     26  C   UNL     1       2.006   2.886  21.409  0.00  0.00    +0.000 C 
ATOM     27  C   UNL     1       0.936   2.053  19.295  0.00  0.00    +0.000 C 
ENDBRANCH   3  25
TORSDOF 4
ENDMDL
MODEL 9
REMARK VINA RESULT:      -7.4      2.885      8.011
REMARK  Name = 
REMARK  7 active torsions:
REMARK  status: ('A' for Active; 'I' for Inactive)
REMARK    1  A    between atoms: C_1  and  C_2
REMARK    2  A    between atoms: C_5  and  N_6
REMARK    3  A    between atoms: N_9  and  C_10
REMARK    4  A    between atoms: C_12  and  C_13
REMARK    5  A    between atoms: C_13  and  C_14
REMARK    6  A    between atoms: C_13  and  C_15
REMARK    7  A    between atoms: N_17  and  C_18
REMARK                            x       y       z     vdW  Elec       q    Type
REMARK                         _______ _______ _______ _____ _____    ______ ____
ROOT
ATOM      1  C   UNL     1       0.904  11.349  19.134  0.00  0.00    +0.000 A 
ATOM      2  C   UNL     1       1.788  12.365  19.417  0.00  0.00    +0.000 A 
ATOM      3  C   UNL     1       1.196  13.535  18.894  0.00  0.00    +0.000 A 
ATOM      4  N   UNL     1       0.059  13.257  18.243  0.00  0.00    +0.000 NA
ATOM      5  N   UNL     1      -0.187  11.946  18.514  0.00  0.00    +0.000 N 
ENDROOT
BRANCH   1   9
ATOM      6  N   UNL     1       1.884   7.880  18.978  0.00  0.00    +0.000 N 
ATOM      7  C   UNL     1       1.660   9.131  18.479  0.00  0.00    +0.000 C 
ATOM      8  O   UNL     1       1.934   9.571  17.378  0.00  0.00    +0.000 OA
ATOM      9  N   UNL     1       1.083   9.997  19.455  0.00  0.00    +0.000 N 
ATOM     10  H   UNL     1       1.336   7.563  19.767  0.00  0.00    +0.000 HD
ATOM     11  H   UNL     1       1.053   9.729  20.428  0.00  0.00    +0.000 HD
BRANCH   6  16
ATOM     12  C   UNL     1       5.180   4.009  16.319  0.00  0.00    +0.000 C 
ATOM     13  C   UNL     1       4.302   5.019  16.998  0.00  0.00    +0.000 A 
ATOM     14  C   UNL     1       3.106   4.627  17.597  0.00  0.00    +0.000 A 
ATOM     15  C   UNL     1       2.299   5.564  18.246  0.00  0.00    +0.000 A 
ATOM     16  C   UNL     1       2.671   6.912  18.312  0.00  0.00    +0.000 A 
ATOM     17  C   UNL     1       3.849   7.315  17.677  0.00  0.00    +0.000 A 
ATOM     18  C   UNL     1       4.667   6.370  17.040  0.00  0.00    +0.000 A 
ENDBRANCH   6  16
ENDBRANCH   1   9
BRANCH   5  19
ATOM     19  C   UNL     1      -1.477  11.392  18.293  0.00  0.00    +0.000 A 
ATOM     20  C   UNL     1      -1.620  10.302  17.424  0.00  0.00    +0.000 A 
ATOM     21  C   UNL     1      -2.891   9.785  17.156  0.00  0.00    +0.000 A 
ATOM     22  C   UNL     1      -4.021  10.363  17.732  0.00  0.00    +0.000 A 
ATOM     23  C   UNL     1      -3.886  11.458  18.582  0.00  0.00    +0.000 A 
ATOM     24  C   UNL     1      -2.620  11.972  18.866  0.00  0.00    +0.000 A 
ENDBRANCH   5  19
BRANCH   3  25
ATOM     25  C   UNL     1       1.722  14.943  19.015  0.00  0.00    +0.000 C 
ATOM     26  C   UNL     1       2.916  15.203  18.099  0.00  0.00    +0.000 C 
ATOM     27  C   UNL     1       0.627  15.986  18.773  0.00  0.00    +0.000 C 
ENDBRANCH   3  25
TORSDOF 4
ENDMDL
