MODEL 1
REMARK VINA RESULT:      -9.0      0.000      0.000
REMARK  Name = 
REMARK  7 active torsions:
REMARK  status: ('A' for Active; 'I' for Inactive)
REMARK    1  A    between atoms: C_2  and  C_14
REMARK    2  A    between atoms: N_3  and  C_4
REMARK    3  A    between atoms: C_4  and  C_5
REMARK    4  A    between atoms: C_5  and  C_6
REMARK    5  A    between atoms: C_6  and  C_7
REMARK    6  A    between atoms: C_11  and  O_12
REMARK    7  A    between atoms: C_19  and  O_20
REMARK                            x       y       z     vdW  Elec       q    Type
REMARK                         _______ _______ _______ _____ _____    ______ ____
ROOT
ATOM      1  O   UNL     1       5.481   6.614  16.075  0.00  0.00    +0.000 OA
ATOM      2  C   UNL     1       5.782   6.395  17.243  0.00  0.00    +0.000 C 
ATOM      3  N   UNL     1       6.835   6.990  17.890  0.00  0.00    +0.000 N 
ATOM      4  H   UNL     1       6.960   6.824  18.889  0.00  0.00    +0.000 HD
ENDROOT
BRANCH   2   5
ATOM      5  C   UNL     1       4.999   5.468  18.087  0.00  0.00    +0.000 A 
ATOM      6  C   UNL     1       3.669   5.378  17.936  0.00  0.00    +0.000 A 
ATOM      7  C   UNL     1       2.992   4.606  18.966  0.00  0.00    +0.000 A 
ATOM      8  C   UNL     1       1.885   5.070  19.665  0.00  0.00    +0.000 A 
ATOM      9  C   UNL     1       1.414   4.336  20.758  0.00  0.00    +0.000 A 
ATOM     10  C   UNL     1       1.970   3.087  21.056  0.00  0.00    +0.000 A 
ATOM     11  C   UNL     1       3.086   2.621  20.378  0.00  0.00    +0.000 A 
ATOM     12  C   UNL     1       3.657   3.473  19.445  0.00  0.00    +0.000 A 
ATOM     13  O   UNL     1       5.045   3.379  19.237  0.00  0.00    +0.000 OA
ATOM     14  C   UNL     1       5.583   4.661  19.180  0.00  0.00    +0.000 A 
ATOM     15  O   UNL     1       6.487   5.066  19.904  0.00  0.00    +0.000 OA
BRANCH  10  16
ATOM     16  O   UNL     1       1.506   2.334  22.094  0.00  0.00    +0.000 OA
ATOM     17  H   UNL     1       2.072   1.550  22.187  0.00  0.00    +0.000 HD
ENDBRANCH  10  16
ENDBRANCH   2   5
BRANCH   3  18
ATOM     18  C   UNL     1       7.707   7.949  17.250  0.00  0.00    +0.000 C 
BRANCH  18  19
ATOM     19  C   UNL     1       8.476   8.784  18.269  0.00  0.00    +0.000 C 
BRANCH  19  20
ATOM     20  C   UNL     1       8.666  10.218  17.772  0.00  0.00    +0.000 C 
BRANCH  20  21
ATOM     21  C   UNL     1       9.633  10.988  18.634  0.00  0.00    +0.000 A 
ATOM     22  C   UNL     1      10.836  11.517  18.079  0.00  0.00    +0.000 A 
ATOM     23  C   UNL     1      11.714  12.223  18.894  0.00  0.00    +0.000 A 
ATOM     24  C   UNL     1      11.415  12.437  20.235  0.00  0.00    +0.000 A 
ATOM     25  C   UNL     1      10.247  11.938  20.777  0.00  0.00    +0.000 A 
ATOM     26  C   UNL     1       9.355  11.211  19.980  0.00  0.00    +0.000 A 
BRANCH  25  27
ATOM     27  O   UNL     1       9.919  12.114  22.083  0.00  0.00    +0.000 OA
ATOM     28  H   UNL     1       9.353  12.910  22.148  0.00  0.00    +0.000 HD
ENDBRANCH  25  27
ENDBRANCH  20  21
ENDBRANCH  19  20
ENDBRANCH  18  19
ENDBRANCH   3  18
TORSDOF 7
ENDMDL
MODEL 2
REMARK VINA RESULT:      -9.0      1.520      1.800
REMARK  Name = 
REMARK  7 active torsions:
REMARK  status: ('A' for Active; 'I' for Inactive)
REMARK    1  A    between atoms: C_2  and  C_14
REMARK    2  A    between atoms: N_3  and  C_4
REMARK    3  A    between atoms: C_4  and  C_5
REMARK    4  A    between atoms: C_5  and  C_6
REMARK    5  A    between atoms: C_6  and  C_7
REMARK    6  A    between atoms: C_11  and  O_12
REMARK    7  A    between atoms: C_19  and  O_20
REMARK                            x       y       z     vdW  Elec       q    Type
REMARK                         _______ _______ _______ _____ _____    ______ ____
ROOT
ATOM      1  O   UNL     1       6.310   6.731  16.134  0.00  0.00    +0.000 OA
ATOM      2  C   UNL     1       6.311   6.763  17.360  0.00  0.00    +0.000 C 
ATOM      3  N   UNL     1       7.052   7.643  18.106  0.00  0.00    +0.000 N 
ATOM      4  H   UNL     1       6.924   7.665  19.118  0.00  0.00    +0.000 HD
ENDROOT
BRANCH   2   5
ATOM      5  C   UNL     1       5.471   5.848  18.162  0.00  0.00    +0.000 A 
ATOM      6  C   UNL     1       4.136   5.868  18.030  0.00  0.00    +0.000 A 
ATOM      7  C   UNL     1       3.416   5.089  19.025  0.00  0.00    +0.000 A 
ATOM      8  C   UNL     1       2.358   5.593  19.770  0.00  0.00    +0.000 A 
ATOM      9  C   UNL     1       1.847   4.832  20.827  0.00  0.00    +0.000 A 
ATOM     10  C   UNL     1       2.309   3.529  21.040  0.00  0.00    +0.000 A 
ATOM     11  C   UNL     1       3.376   3.022  20.315  0.00  0.00    +0.000 A 
ATOM     12  C   UNL     1       3.998   3.883  19.424  0.00  0.00    +0.000 A 
ATOM     13  O   UNL     1       5.372   3.696  19.185  0.00  0.00    +0.000 OA
ATOM     14  C   UNL     1       6.006   4.934  19.194  0.00  0.00    +0.000 A 
ATOM     15  O   UNL     1       6.948   5.225  19.924  0.00  0.00    +0.000 OA
BRANCH  10  16
ATOM     16  O   UNL     1       1.804   2.751  22.040  0.00  0.00    +0.000 OA
ATOM     17  H   UNL     1       1.434   1.943  21.650  0.00  0.00    +0.000 HD
ENDBRANCH  10  16
ENDBRANCH   2   5
BRANCH   3  18
ATOM     18  C   UNL     1       7.918   8.637  17.513  0.00  0.00    +0.000 C 
BRANCH  18  19
ATOM     19  C   UNL     1       8.877   9.238  18.536  0.00  0.00    +0.000 C 
BRANCH  19  20
ATOM     20  C   UNL     1       8.644  10.740  18.692  0.00  0.00    +0.000 C 
BRANCH  20  21
ATOM     21  C   UNL     1       9.911  11.529  18.489  0.00  0.00    +0.000 A 
ATOM     22  C   UNL     1      10.980  11.439  19.430  0.00  0.00    +0.000 A 
ATOM     23  C   UNL     1      12.140  12.178  19.222  0.00  0.00    +0.000 A 
ATOM     24  C   UNL     1      12.274  12.980  18.095  0.00  0.00    +0.000 A 
ATOM     25  C   UNL     1      11.248  13.065  17.174  0.00  0.00    +0.000 A 
ATOM     26  C   UNL     1      10.065  12.342  17.369  0.00  0.00    +0.000 A 
BRANCH  25  27
ATOM     27  O   UNL     1      11.330  13.843  16.064  0.00  0.00    +0.000 OA
ATOM     28  H   UNL     1      12.164  14.354  16.114  0.00  0.00    +0.000 HD
ENDBRANCH  25  27
ENDBRANCH  20  21
ENDBRANCH  19  20
ENDBRANCH  18  19
ENDBRANCH   3  18
TORSDOF 7
ENDMDL
MODEL 3
REMARK VINA RESULT:      -8.8      1.756      2.403
REMARK  Name = 
REMARK  7 active torsions:
REMARK  status: ('A' for Active; 'I' for Inactive)
REMARK    1  A    between atoms: C_2  and  C_14
REMARK    2  A    between atoms: N_3  and  C_4
REMARK    3  A    between atoms: C_4  and  C_5
REMARK    4  A    between atoms: C_5  and  C_6
REMARK    5  A    between atoms: C_6  and  C_7
REMARK    6  A    between atoms: C_11  and  O_12
REMARK    7  A    between atoms: C_19  and  O_20
REMARK                            x       y       z     vdW  Elec       q    Type
REMARK                         _______ _______ _______ _____ _____    ______ ____
ROOT
ATOM      1  O   UNL     1       7.685   4.936  18.460  0.00  0.00    +0.000 OA
ATOM      2  C   UNL     1       6.658   5.598  18.350  0.00  0.00    +0.000 C 
ATOM      3  N   UNL     1       6.613   6.868  17.836  0.00  0.00    +0.000 N 
ATOM      4  H   UNL     1       5.707   7.313  17.694  0.00  0.00    +0.000 HD
ENDROOT
BRANCH   2   5
ATOM      5  C   UNL     1       5.340   5.059  18.749  0.00  0.00    +0.000 A 
ATOM      6  C   UNL     1       5.200   3.754  19.024  0.00  0.00    +0.000 A 
ATOM      7  C   UNL     1       3.824   3.311  19.182  0.00  0.00    +0.000 A 
ATOM      8  C   UNL     1       3.294   2.213  18.518  0.00  0.00    +0.000 A 
ATOM      9  C   UNL     1       1.918   1.971  18.591  0.00  0.00    +0.000 A 
ATOM     10  C   UNL     1       1.114   2.749  19.431  0.00  0.00    +0.000 A 
ATOM     11  C   UNL     1       1.628   3.859  20.085  0.00  0.00    +0.000 A 
ATOM     12  C   UNL     1       2.946   4.194  19.817  0.00  0.00    +0.000 A 
ATOM     13  O   UNL     1       3.301   5.553  19.883  0.00  0.00    +0.000 OA
ATOM     14  C   UNL     1       4.102   5.866  18.789  0.00  0.00    +0.000 A 
ATOM     15  O   UNL     1       3.853   6.754  17.980  0.00  0.00    +0.000 OA
BRANCH  10  16
ATOM     16  O   UNL     1      -0.224   2.514  19.549  0.00  0.00    +0.000 OA
ATOM     17  H   UNL     1      -0.620   2.513  18.663  0.00  0.00    +0.000 HD
ENDBRANCH  10  16
ENDBRANCH   2   5
BRANCH   3  18
ATOM     18  C   UNL     1       7.789   7.564  17.365  0.00  0.00    +0.000 C 
BRANCH  18  19
ATOM     19  C   UNL     1       8.386   8.465  18.442  0.00  0.00    +0.000 C 
BRANCH  19  20
ATOM     20  C   UNL     1       8.295   9.937  18.040  0.00  0.00    +0.000 C 
BRANCH  20  21
ATOM     21  C   UNL     1       9.453  10.738  18.576  0.00  0.00    +0.000 A 
ATOM     22  C   UNL     1       9.626  10.913  19.982  0.00  0.00    +0.000 A 
ATOM     23  C   UNL     1      10.702  11.657  20.453  0.00  0.00    +0.000 A 
ATOM     24  C   UNL     1      11.619  12.209  19.567  0.00  0.00    +0.000 A 
ATOM     25  C   UNL     1      11.465  12.036  18.206  0.00  0.00    +0.000 A 
ATOM     26  C   UNL     1      10.382  11.303  17.707  0.00  0.00    +0.000 A 
BRANCH  25  27
ATOM     27  O   UNL     1      12.332  12.565  17.304  0.00  0.00    +0.000 OA
ATOM     28  H   UNL     1      13.135  12.007  17.292  0.00  0.00    +0.000 HD
ENDBRANCH  25  27
ENDBRANCH  20  21
ENDBRANCH  19  20
ENDBRANCH  18  19
ENDBRANCH   3  18
TORSDOF 7
ENDMDL
MODEL 4
REMARK VINA RESULT:      -8.5      1.017      1.097
REMARK  Name = 
REMARK  7 active torsions:
REMARK  status: ('A' for Active; 'I' for Inactive)
REMARK    1  A    between atoms: C_2  and  C_14
REMARK    2  A    between atoms: N_3  and  C_4
REMARK    3  A    between atoms: C_4  and  C_5
REMARK    4  A    between atoms: C_5  and  C_6
REMARK    5  A    between atoms: C_6  and  C_7
REMARK    6  A    between atoms: C_11  and  O_12
REMARK    7  A    between atoms: C_19  and  O_20
REMARK                            x       y       z     vdW  Elec       q    Type
REMARK                         _______ _______ _______ _____ _____    ______ ____
ROOT
ATOM      1  O   UNL     1       5.522   7.129  16.283  0.00  0.00    +0.000 OA
ATOM      2  C   UNL     1       5.954   6.706  17.350  0.00  0.00    +0.000 C 
ATOM      3  N   UNL     1       7.143   7.099  17.908  0.00  0.00    +0.000 N 
ATOM      4  H   UNL     1       7.385   6.769  18.842  0.00  0.00    +0.000 HD
ENDROOT
BRANCH   2   5
ATOM      5  C   UNL     1       5.198   5.729  18.162  0.00  0.00    +0.000 A 
ATOM      6  C   UNL     1       3.869   5.621  18.023  0.00  0.00    +0.000 A 
ATOM      7  C   UNL     1       3.218   4.794  19.027  0.00  0.00    +0.000 A 
ATOM      8  C   UNL     1       2.112   5.208  19.758  0.00  0.00    +0.000 A 
ATOM      9  C   UNL     1       1.667   4.420  20.824  0.00  0.00    +0.000 A 
ATOM     10  C   UNL     1       2.249   3.170  21.062  0.00  0.00    +0.000 A 
ATOM     11  C   UNL     1       3.364   2.753  20.351  0.00  0.00    +0.000 A 
ATOM     12  C   UNL     1       3.909   3.655  19.449  0.00  0.00    +0.000 A 
ATOM     13  O   UNL     1       5.295   3.594  19.221  0.00  0.00    +0.000 OA
ATOM     14  C   UNL     1       5.810   4.886  19.212  0.00  0.00    +0.000 A 
ATOM     15  O   UNL     1       6.716   5.277  19.942  0.00  0.00    +0.000 OA
BRANCH  10  16
ATOM     16  O   UNL     1       1.812   2.364  22.072  0.00  0.00    +0.000 OA
ATOM     17  H   UNL     1       2.269   1.510  22.009  0.00  0.00    +0.000 HD
ENDBRANCH  10  16
ENDBRANCH   2   5
BRANCH   3  18
ATOM     18  C   UNL     1       8.019   8.067  17.286  0.00  0.00    +0.000 C 
BRANCH  18  19
ATOM     19  C   UNL     1       8.483   9.131  18.275  0.00  0.00    +0.000 C 
BRANCH  19  20
ATOM     20  C   UNL     1       8.267  10.536  17.713  0.00  0.00    +0.000 C 
BRANCH  20  21
ATOM     21  C   UNL     1       9.224  11.534  18.311  0.00  0.00    +0.000 A 
ATOM     22  C   UNL     1       8.973  12.935  18.204  0.00  0.00    +0.000 A 
ATOM     23  C   UNL     1       9.872  13.837  18.763  0.00  0.00    +0.000 A 
ATOM     24  C   UNL     1      10.995  13.384  19.444  0.00  0.00    +0.000 A 
ATOM     25  C   UNL     1      11.240  12.030  19.562  0.00  0.00    +0.000 A 
ATOM     26  C   UNL     1      10.357  11.102  18.995  0.00  0.00    +0.000 A 
BRANCH  25  27
ATOM     27  O   UNL     1      12.329  11.542  20.210  0.00  0.00    +0.000 OA
ATOM     28  H   UNL     1      12.389  10.583  20.023  0.00  0.00    +0.000 HD
ENDBRANCH  25  27
ENDBRANCH  20  21
ENDBRANCH  19  20
ENDBRANCH  18  19
ENDBRANCH   3  18
TORSDOF 7
ENDMDL
MODEL 5
REMARK VINA RESULT:      -8.4      1.691      1.960
REMARK  Name = 
REMARK  7 active torsions:
REMARK  status: ('A' for Active; 'I' for Inactive)
REMARK    1  A    between atoms: C_2  and  C_14
REMARK    2  A    between atoms: N_3  and  C_4
REMARK    3  A    between atoms: C_4  and  C_5
REMARK    4  A    between atoms: C_5  and  C_6
REMARK    5  A    between atoms: C_6  and  C_7
REMARK    6  A    between atoms: C_11  and  O_12
REMARK    7  A    between atoms: C_19  and  O_20
REMARK                            x       y       z     vdW  Elec       q    Type
REMARK                         _______ _______ _______ _____ _____    ______ ____
ROOT
ATOM      1  O   UNL     1       7.493   6.441  16.267  0.00  0.00    +0.000 OA
ATOM      2  C   UNL     1       7.029   6.781  17.351  0.00  0.00    +0.000 C 
ATOM      3  N   UNL     1       7.374   7.934  18.008  0.00  0.00    +0.000 N 
ATOM      4  H   UNL     1       6.873   8.188  18.859  0.00  0.00    +0.000 HD
ENDROOT
BRANCH   2   5
ATOM      5  C   UNL     1       6.010   5.968  18.049  0.00  0.00    +0.000 A 
ATOM      6  C   UNL     1       4.716   6.075  17.714  0.00  0.00    +0.000 A 
ATOM      7  C   UNL     1       3.798   5.399  18.616  0.00  0.00    +0.000 A 
ATOM      8  C   UNL     1       2.682   6.012  19.171  0.00  0.00    +0.000 A 
ATOM      9  C   UNL     1       1.961   5.342  20.165  0.00  0.00    +0.000 A 
ATOM     10  C   UNL     1       2.285   4.022  20.496  0.00  0.00    +0.000 A 
ATOM     11  C   UNL     1       3.406   3.406  19.963  0.00  0.00    +0.000 A 
ATOM     12  C   UNL     1       4.219   4.176  19.146  0.00  0.00    +0.000 A 
ATOM     13  O   UNL     1       5.594   3.882  19.127  0.00  0.00    +0.000 OA
ATOM     14  C   UNL     1       6.314   5.071  19.185  0.00  0.00    +0.000 A 
ATOM     15  O   UNL     1       7.155   5.331  20.039  0.00  0.00    +0.000 OA
BRANCH  10  16
ATOM     16  O   UNL     1       1.577   3.333  21.437  0.00  0.00    +0.000 OA
ATOM     17  H   UNL     1       1.387   2.444  21.094  0.00  0.00    +0.000 HD
ENDBRANCH  10  16
ENDBRANCH   2   5
BRANCH   3  18
ATOM     18  C   UNL     1       8.332   8.879  17.480  0.00  0.00    +0.000 C 
BRANCH  18  19
ATOM     19  C   UNL     1       8.276  10.214  18.216  0.00  0.00    +0.000 C 
BRANCH  19  20
ATOM     20  C   UNL     1       9.621  10.543  18.863  0.00  0.00    +0.000 C 
BRANCH  20  21
ATOM     21  C   UNL     1      10.223  11.804  18.299  0.00  0.00    +0.000 A 
ATOM     22  C   UNL     1      11.593  11.840  17.902  0.00  0.00    +0.000 A 
ATOM     23  C   UNL     1      12.127  13.015  17.385  0.00  0.00    +0.000 A 
ATOM     24  C   UNL     1      11.330  14.143  17.230  0.00  0.00    +0.000 A 
ATOM     25  C   UNL     1      10.000  14.114  17.601  0.00  0.00    +0.000 A 
ATOM     26  C   UNL     1       9.444  12.946  18.137  0.00  0.00    +0.000 A 
BRANCH  25  27
ATOM     27  O   UNL     1       9.187  15.194  17.475  0.00  0.00    +0.000 OA
ATOM     28  H   UNL     1       9.709  15.993  17.692  0.00  0.00    +0.000 HD
ENDBRANCH  25  27
ENDBRANCH  20  21
ENDBRANCH  19  20
ENDBRANCH  18  19
ENDBRANCH   3  18
TORSDOF 7
ENDMDL
MODEL 6
REMARK VINA RESULT:      -8.4      4.990      7.662
REMARK  Name = 
REMARK  7 active torsions:
REMARK  status: ('A' for Active; 'I' for Inactive)
REMARK    1  A    between atoms: C_2  and  C_14
REMARK    2  A    between atoms: N_3  and  C_4
REMARK    3  A    between atoms: C_4  and  C_5
REMARK    4  A    between atoms: C_5  and  C_6
REMARK    5  A    between atoms: C_6  and  C_7
REMARK    6  A    between atoms: C_11  and  O_12
REMARK    7  A    between atoms: C_19  and  O_20
REMARK                            x       y       z     vdW  Elec       q    Type
REMARK                         _______ _______ _______ _____ _____    ______ ____
ROOT
ATOM      1  O   UNL     1       5.949   4.752  19.835  0.00  0.00    +0.000 OA
ATOM      2  C   UNL     1       5.551   4.079  18.891  0.00  0.00    +0.000 C 
ATOM      3  N   UNL     1       4.677   3.029  19.008  0.00  0.00    +0.000 N 
ATOM      4  H   UNL     1       4.324   2.581  18.163  0.00  0.00    +0.000 HD
ENDROOT
BRANCH   2   5
ATOM      5  C   UNL     1       5.970   4.366  17.502  0.00  0.00    +0.000 A 
ATOM      6  C   UNL     1       5.075   4.319  16.504  0.00  0.00    +0.000 A 
ATOM      7  C   UNL     1       5.648   4.397  15.170  0.00  0.00    +0.000 A 
ATOM      8  C   UNL     1       5.347   3.499  14.155  0.00  0.00    +0.000 A 
ATOM      9  C   UNL     1       6.081   3.544  12.965  0.00  0.00    +0.000 A 
ATOM     10  C   UNL     1       7.012   4.568  12.755  0.00  0.00    +0.000 A 
ATOM     11  C   UNL     1       7.334   5.459  13.767  0.00  0.00    +0.000 A 
ATOM     12  C   UNL     1       6.744   5.249  15.003  0.00  0.00    +0.000 A 
ATOM     13  O   UNL     1       7.466   5.636  16.146  0.00  0.00    +0.000 OA
ATOM     14  C   UNL     1       7.369   4.632  17.105  0.00  0.00    +0.000 A 
ATOM     15  O   UNL     1       8.330   4.069  17.619  0.00  0.00    +0.000 OA
BRANCH  10  16
ATOM     16  O   UNL     1       7.716   4.658  11.591  0.00  0.00    +0.000 OA
ATOM     17  H   UNL     1       8.067   3.780  11.371  0.00  0.00    +0.000 HD
ENDBRANCH  10  16
ENDBRANCH   2   5
BRANCH   3  18
ATOM     18  C   UNL     1       4.128   2.605  20.277  0.00  0.00    +0.000 C 
BRANCH  18  19
ATOM     19  C   UNL     1       2.764   3.234  20.544  0.00  0.00    +0.000 C 
BRANCH  19  20
ATOM     20  C   UNL     1       2.155   3.791  19.257  0.00  0.00    +0.000 C 
BRANCH  20  21
ATOM     21  C   UNL     1       2.153   5.298  19.242  0.00  0.00    +0.000 A 
ATOM     22  C   UNL     1       2.428   6.012  18.038  0.00  0.00    +0.000 A 
ATOM     23  C   UNL     1       2.422   7.402  18.049  0.00  0.00    +0.000 A 
ATOM     24  C   UNL     1       2.125   8.097  19.215  0.00  0.00    +0.000 A 
ATOM     25  C   UNL     1       1.847   7.414  20.383  0.00  0.00    +0.000 A 
ATOM     26  C   UNL     1       1.861   6.014  20.400  0.00  0.00    +0.000 A 
BRANCH  25  27
ATOM     27  O   UNL     1       1.561   8.051  21.547  0.00  0.00    +0.000 OA
ATOM     28  H   UNL     1       0.944   7.488  22.057  0.00  0.00    +0.000 HD
ENDBRANCH  25  27
ENDBRANCH  20  21
ENDBRANCH  19  20
ENDBRANCH  18  19
ENDBRANCH   3  18
TORSDOF 7
ENDMDL
MODEL 7
REMARK VINA RESULT:      -8.4      2.020      2.607
REMARK  Name = 
REMARK  7 active torsions:
REMARK  status: ('A' for Active; 'I' for Inactive)
REMARK    1  A    between atoms: C_2  and  C_14
REMARK    2  A    between atoms: N_3  and  C_4
REMARK    3  A    between atoms: C_4  and  C_5
REMARK    4  A    between atoms: C_5  and  C_6
REMARK    5  A    between atoms: C_6  and  C_7
REMARK    6  A    between atoms: C_11  and  O_12
REMARK    7  A    between atoms: C_19  and  O_20
REMARK                            x       y       z     vdW  Elec       q    Type
REMARK                         _______ _______ _______ _____ _____    ______ ____
ROOT
ATOM      1  O   UNL     1       7.789   5.277  18.946  0.00  0.00    +0.000 OA
ATOM      2  C   UNL     1       6.837   5.849  18.426  0.00  0.00    +0.000 C 
ATOM      3  N   UNL     1       6.923   7.060  17.788  0.00  0.00    +0.000 N 
ATOM      4  H   UNL     1       6.103   7.422  17.302  0.00  0.00    +0.000 HD
ENDROOT
BRANCH   2   5
ATOM      5  C   UNL     1       5.483   5.255  18.418  0.00  0.00    +0.000 A 
ATOM      6  C   UNL     1       5.006   4.648  19.515  0.00  0.00    +0.000 A 
ATOM      7  C   UNL     1       3.767   3.914  19.312  0.00  0.00    +0.000 A 
ATOM      8  C   UNL     1       3.585   2.596  19.711  0.00  0.00    +0.000 A 
ATOM      9  C   UNL     1       2.429   1.918  19.314  0.00  0.00    +0.000 A 
ATOM     10  C   UNL     1       1.412   2.602  18.638  0.00  0.00    +0.000 A 
ATOM     11  C   UNL     1       1.589   3.911  18.218  0.00  0.00    +0.000 A 
ATOM     12  C   UNL     1       2.833   4.482  18.440  0.00  0.00    +0.000 A 
ATOM     13  O   UNL     1       3.280   5.452  17.526  0.00  0.00    +0.000 OA
ATOM     14  C   UNL     1       4.615   5.207  17.221  0.00  0.00    +0.000 A 
ATOM     15  O   UNL     1       5.047   5.036  16.086  0.00  0.00    +0.000 OA
BRANCH  10  16
ATOM     16  O   UNL     1       0.258   1.975  18.269  0.00  0.00    +0.000 OA
ATOM     17  H   UNL     1       0.426   1.020  18.217  0.00  0.00    +0.000 HD
ENDBRANCH  10  16
ENDBRANCH   2   5
BRANCH   3  18
ATOM     18  C   UNL     1       8.162   7.793  17.663  0.00  0.00    +0.000 C 
BRANCH  18  19
ATOM     19  C   UNL     1       7.953   9.295  17.832  0.00  0.00    +0.000 C 
BRANCH  19  20
ATOM     20  C   UNL     1       8.949   9.879  18.832  0.00  0.00    +0.000 C 
BRANCH  20  21
ATOM     21  C   UNL     1       9.555  11.167  18.336  0.00  0.00    +0.000 A 
ATOM     22  C   UNL     1      10.950  11.248  18.046  0.00  0.00    +0.000 A 
ATOM     23  C   UNL     1      11.486  12.447  17.590  0.00  0.00    +0.000 A 
ATOM     24  C   UNL     1      10.671  13.554  17.391  0.00  0.00    +0.000 A 
ATOM     25  C   UNL     1       9.318  13.481  17.658  0.00  0.00    +0.000 A 
ATOM     26  C   UNL     1       8.757  12.289  18.132  0.00  0.00    +0.000 A 
BRANCH  25  27
ATOM     27  O   UNL     1       8.485  14.540  17.487  0.00  0.00    +0.000 OA
ATOM     28  H   UNL     1       8.095  14.478  16.592  0.00  0.00    +0.000 HD
ENDBRANCH  25  27
ENDBRANCH  20  21
ENDBRANCH  19  20
ENDBRANCH  18  19
ENDBRANCH   3  18
TORSDOF 7
ENDMDL
MODEL 8
REMARK VINA RESULT:      -8.4      1.158      1.278
REMARK  Name = 
REMARK  7 active torsions:
REMARK  status: ('A' for Active; 'I' for Inactive)
REMARK    1  A    between atoms: C_2  and  C_14
REMARK    2  A    between atoms: N_3  and  C_4
REMARK    3  A    between atoms: C_4  and  C_5
REMARK    4  A    between atoms: C_5  and  C_6
REMARK    5  A    between atoms: C_6  and  C_7
REMARK    6  A    between atoms: C_11  and  O_12
REMARK    7  A    between atoms: C_19  and  O_20
REMARK                            x       y       z     vdW  Elec       q    Type
REMARK                         _______ _______ _______ _____ _____    ______ ____
ROOT
ATOM      1  O   UNL     1       7.432   5.801  16.006  0.00  0.00    +0.000 OA
ATOM      2  C   UNL     1       6.873   6.142  17.043  0.00  0.00    +0.000 C 
ATOM      3  N   UNL     1       7.171   7.287  17.736  0.00  0.00    +0.000 N 
ATOM      4  H   UNL     1       6.596   7.544  18.538  0.00  0.00    +0.000 HD
ENDROOT
BRANCH   2   5
ATOM      5  C   UNL     1       5.781   5.342  17.637  0.00  0.00    +0.000 A 
ATOM      6  C   UNL     1       4.614   5.207  16.990  0.00  0.00    +0.000 A 
ATOM      7  C   UNL     1       3.554   4.591  17.772  0.00  0.00    +0.000 A 
ATOM      8  C   UNL     1       2.284   5.138  17.903  0.00  0.00    +0.000 A 
ATOM      9  C   UNL     1       1.390   4.573  18.818  0.00  0.00    +0.000 A 
ATOM     10  C   UNL     1       1.728   3.393  19.490  0.00  0.00    +0.000 A 
ATOM     11  C   UNL     1       2.998   2.848  19.382  0.00  0.00    +0.000 A 
ATOM     12  C   UNL     1       3.927   3.557  18.635  0.00  0.00    +0.000 A 
ATOM     13  O   UNL     1       5.279   3.454  19.006  0.00  0.00    +0.000 OA
ATOM     14  C   UNL     1       5.855   4.721  18.977  0.00  0.00    +0.000 A 
ATOM     15  O   UNL     1       6.421   5.247  19.930  0.00  0.00    +0.000 OA
BRANCH  10  16
ATOM     16  O   UNL     1       0.862   2.800  20.362  0.00  0.00    +0.000 OA
ATOM     17  H   UNL     1       0.758   1.868  20.110  0.00  0.00    +0.000 HD
ENDBRANCH  10  16
ENDBRANCH   2   5
BRANCH   3  18
ATOM     18  C   UNL     1       8.189   8.220  17.307  0.00  0.00    +0.000 C 
BRANCH  18  19
ATOM     19  C   UNL     1       8.084   9.552  18.044  0.00  0.00    +0.000 C 
BRANCH  19  20
ATOM     20  C   UNL     1       9.182   9.685  19.099  0.00  0.00    +0.000 C 
BRANCH  20  21
ATOM     21  C   UNL     1       9.835  11.042  19.063  0.00  0.00    +0.000 A 
ATOM     22  C   UNL     1      10.457  11.516  17.870  0.00  0.00    +0.000 A 
ATOM     23  C   UNL     1      11.055  12.772  17.860  0.00  0.00    +0.000 A 
ATOM     24  C   UNL     1      11.028  13.574  18.994  0.00  0.00    +0.000 A 
ATOM     25  C   UNL     1      10.418  13.127  20.150  0.00  0.00    +0.000 A 
ATOM     26  C   UNL     1       9.822  11.861  20.188  0.00  0.00    +0.000 A 
BRANCH  25  27
ATOM     27  O   UNL     1      10.376  13.873  21.284  0.00  0.00    +0.000 OA
ATOM     28  H   UNL     1       9.606  14.475  21.223  0.00  0.00    +0.000 HD
ENDBRANCH  25  27
ENDBRANCH  20  21
ENDBRANCH  19  20
ENDBRANCH  18  19
ENDBRANCH   3  18
TORSDOF 7
ENDMDL
MODEL 9
REMARK VINA RESULT:      -8.3      1.136      1.399
REMARK  Name = 
REMARK  7 active torsions:
REMARK  status: ('A' for Active; 'I' for Inactive)
REMARK    1  A    between atoms: C_2  and  C_14
REMARK    2  A    between atoms: N_3  and  C_4
REMARK    3  A    between atoms: C_4  and  C_5
REMARK    4  A    between atoms: C_5  and  C_6
REMARK    5  A    between atoms: C_6  and  C_7
REMARK    6  A    between atoms: C_11  and  O_12
REMARK    7  A    between atoms: C_19  and  O_20
REMARK                            x       y       z     vdW  Elec       q    Type
REMARK                         _______ _______ _______ _____ _____    ______ ____
ROOT
ATOM      1  O   UNL     1       5.971   5.586  15.866  0.00  0.00    +0.000 OA
ATOM      2  C   UNL     1       5.908   5.807  17.071  0.00  0.00    +0.000 C 
ATOM      3  N   UNL     1       6.612   6.797  17.708  0.00  0.00    +0.000 N 
ATOM      4  H   UNL     1       6.431   6.974  18.696  0.00  0.00    +0.000 HD
ENDROOT
BRANCH   2   5
ATOM      5  C   UNL     1       5.024   5.023  17.959  0.00  0.00    +0.000 A 
ATOM      6  C   UNL     1       3.716   4.916  17.685  0.00  0.00    +0.000 A 
ATOM      7  C   UNL     1       2.921   4.315  18.745  0.00  0.00    +0.000 A 
ATOM      8  C   UNL     1       1.758   4.886  19.245  0.00  0.00    +0.000 A 
ATOM      9  C   UNL     1       1.161   4.331  20.382  0.00  0.00    +0.000 A 
ATOM     10  C   UNL     1       1.659   3.141  20.924  0.00  0.00    +0.000 A 
ATOM     11  C   UNL     1       2.829   2.572  20.445  0.00  0.00    +0.000 A 
ATOM     12  C   UNL     1       3.510   3.268  19.458  0.00  0.00    +0.000 A 
ATOM     13  O   UNL     1       4.909   3.137  19.414  0.00  0.00    +0.000 OA
ATOM     14  C   UNL     1       5.477   4.392  19.218  0.00  0.00    +0.000 A 
ATOM     15  O   UNL     1       6.309   4.901  19.962  0.00  0.00    +0.000 OA
BRANCH  10  16
ATOM     16  O   UNL     1       1.076   2.558  22.011  0.00  0.00    +0.000 OA
ATOM     17  H   UNL     1       0.116   2.525  21.869  0.00  0.00    +0.000 HD
ENDBRANCH  10  16
ENDBRANCH   2   5
BRANCH   3  18
ATOM     18  C   UNL     1       7.511   7.691  17.014  0.00  0.00    +0.000 C 
BRANCH  18  19
ATOM     19  C   UNL     1       8.294   8.572  17.982  0.00  0.00    +0.000 C 
BRANCH  19  20
ATOM     20  C   UNL     1       8.105  10.053  17.653  0.00  0.00    +0.000 C 
BRANCH  20  21
ATOM     21  C   UNL     1       9.078  10.924  18.405  0.00  0.00    +0.000 A 
ATOM     22  C   UNL     1       9.506  10.567  19.719  0.00  0.00    +0.000 A 
ATOM     23  C   UNL     1      10.403  11.387  20.394  0.00  0.00    +0.000 A 
ATOM     24  C   UNL     1      10.903  12.535  19.790  0.00  0.00    +0.000 A 
ATOM     25  C   UNL     1      10.502  12.882  18.514  0.00  0.00    +0.000 A 
ATOM     26  C   UNL     1       9.588  12.079  17.820  0.00  0.00    +0.000 A 
BRANCH  25  27
ATOM     27  O   UNL     1      10.956  13.998  17.889  0.00  0.00    +0.000 OA
ATOM     28  H   UNL     1      10.807  13.889  16.927  0.00  0.00    +0.000 HD
ENDBRANCH  25  27
ENDBRANCH  20  21
ENDBRANCH  19  20
ENDBRANCH  18  19
ENDBRANCH   3  18
TORSDOF 7
ENDMDL
