MODEL 1
REMARK VINA RESULT:      -6.7      0.000      0.000
REMARK  Name = 
REMARK  8 active torsions:
REMARK  status: ('A' for Active; 'I' for Inactive)
REMARK    1  A    between atoms: C_1  and  C_2
REMARK    2  A    between atoms: C_9  and  C_10
REMARK    3  A    between atoms: C_11  and  C_12
REMARK    4  A    between atoms: C_12  and  C_13
REMARK    5  A    between atoms: C_13  and  C_14
REMARK    6  A    between atoms: N_19  and  C_20
REMARK    7  A    between atoms: C_20  and  C_21
REMARK    8  A    between atoms: C_21  and  O_22
REMARK                            x       y       z     vdW  Elec       q    Type
REMARK                         _______ _______ _______ _____ _____    ______ ____
ROOT
ATOM      1  C   UNL     1       2.838   7.220  18.601  0.00  0.00    +0.000 C 
ENDROOT
BRANCH   1   2
ATOM      2  C   UNL     1       1.915   7.545  19.762  0.00  0.00    +0.000 C 
ATOM      3  O   UNL     1       1.827   6.788  20.731  0.00  0.00    +0.000 OA
ATOM      4  N   UNL     1       1.250   8.765  19.706  0.00  0.00    +0.000 N 
ATOM      5  C   UNL     1       0.440   9.201  20.848  0.00  0.00    +0.000 C 
ATOM      6  C   UNL     1       0.664  10.701  21.135  0.00  0.00    +0.000 C 
ATOM      7  N   UNL     1       0.469  11.601  19.972  0.00  0.00    +0.000 NA
ATOM      8  C   UNL     1       1.311  11.105  18.855  0.00  0.00    +0.000 C 
ATOM      9  C   UNL     1       1.122   9.614  18.514  0.00  0.00    +0.000 C 
BRANCH   7  10
ATOM     10  C   UNL     1      -0.942  11.713  19.540  0.00  0.00    +0.000 C 
BRANCH  10  11
ATOM     11  C   UNL     1      -1.106  12.258  18.112  0.00  0.00    +0.000 C 
BRANCH  11  12
ATOM     12  O   UNL     1      -0.873  13.662  18.082  0.00  0.00    +0.000 OA
ATOM     13  H   UNL     1      -1.019  13.930  17.153  0.00  0.00    +0.000 HD
ENDBRANCH  11  12
ENDBRANCH  10  11
ENDBRANCH   7  10
ENDBRANCH   1   2
BRANCH   1  14
ATOM     14  C   UNL     1       3.971   6.263  18.977  0.00  0.00    +0.000 C 
BRANCH  14  25
ATOM     15  C   UNL     1       2.729   3.761  17.838  0.00  0.00    +0.000 C 
ATOM     16  C   UNL     1       3.948   4.361  17.162  0.00  0.00    +0.000 A 
ATOM     17  N   UNL     1       4.378   3.730  16.103  0.00  0.00    +0.000 NA
ATOM     18  C   UNL     1       5.476   4.248  15.487  0.00  0.00    +0.000 A 
ATOM     19  C   UNL     1       6.160   3.838  14.367  0.00  0.00    +0.000 A 
ATOM     20  C   UNL     1       7.206   4.757  14.223  0.00  0.00    +0.000 A 
ATOM     21  N   UNL     1       7.204   5.690  15.173  0.00  0.00    +0.000 NA
ATOM     22  N   UNL     1       6.129   5.391  15.955  0.00  0.00    +0.000 N 
ATOM     23  C   UNL     1       5.665   6.071  17.093  0.00  0.00    +0.000 A 
ATOM     24  C   UNL     1       6.433   7.292  17.526  0.00  0.00    +0.000 C 
ATOM     25  C   UNL     1       4.571   5.610  17.750  0.00  0.00    +0.000 A 
ENDBRANCH  14  25
ENDBRANCH   1  14
TORSDOF 6
ENDMDL
MODEL 2
REMARK VINA RESULT:      -6.7      2.757      4.135
REMARK  Name = 
REMARK  8 active torsions:
REMARK  status: ('A' for Active; 'I' for Inactive)
REMARK    1  A    between atoms: C_1  and  C_2
REMARK    2  A    between atoms: C_9  and  C_10
REMARK    3  A    between atoms: C_11  and  C_12
REMARK    4  A    between atoms: C_12  and  C_13
REMARK    5  A    between atoms: C_13  and  C_14
REMARK    6  A    between atoms: N_19  and  C_20
REMARK    7  A    between atoms: C_20  and  C_21
REMARK    8  A    between atoms: C_21  and  O_22
REMARK                            x       y       z     vdW  Elec       q    Type
REMARK                         _______ _______ _______ _____ _____    ______ ____
ROOT
ATOM      1  C   UNL     1       2.341   3.110  16.921  0.00  0.00    +0.000 C 
ENDROOT
BRANCH   1   2
ATOM      2  C   UNL     1       1.588   3.307  18.225  0.00  0.00    +0.000 C 
ATOM      3  O   UNL     1       1.011   2.364  18.771  0.00  0.00    +0.000 OA
ATOM      4  N   UNL     1       1.656   4.571  18.799  0.00  0.00    +0.000 N 
ATOM      5  C   UNL     1       1.058   4.802  20.117  0.00  0.00    +0.000 C 
ATOM      6  C   UNL     1       1.985   5.671  20.993  0.00  0.00    +0.000 C 
ATOM      7  N   UNL     1       2.418   6.949  20.377  0.00  0.00    +0.000 NA
ATOM      8  C   UNL     1       3.010   6.647  19.050  0.00  0.00    +0.000 C 
ATOM      9  C   UNL     1       2.122   5.791  18.125  0.00  0.00    +0.000 C 
BRANCH   7  10
ATOM     10  C   UNL     1       1.327   7.939  20.238  0.00  0.00    +0.000 C 
BRANCH  10  11
ATOM     11  C   UNL     1       0.920   8.594  21.568  0.00  0.00    +0.000 C 
BRANCH  11  12
ATOM     12  O   UNL     1      -0.490   8.516  21.754  0.00  0.00    +0.000 OA
ATOM     13  H   UNL     1      -0.672   9.026  22.569  0.00  0.00    +0.000 HD
ENDBRANCH  11  12
ENDBRANCH  10  11
ENDBRANCH   7  10
ENDBRANCH   1   2
BRANCH   1  14
ATOM     14  C   UNL     1       3.734   2.508  17.111  0.00  0.00    +0.000 C 
BRANCH  14  25
ATOM     15  C   UNL     1       4.514   2.788  20.012  0.00  0.00    +0.000 C 
ATOM     16  C   UNL     1       5.146   3.703  18.980  0.00  0.00    +0.000 A 
ATOM     17  N   UNL     1       6.010   4.567  19.440  0.00  0.00    +0.000 NA
ATOM     18  C   UNL     1       6.581   5.404  18.530  0.00  0.00    +0.000 A 
ATOM     19  C   UNL     1       7.516   6.400  18.683  0.00  0.00    +0.000 A 
ATOM     20  C   UNL     1       7.710   6.917  17.397  0.00  0.00    +0.000 A 
ATOM     21  N   UNL     1       6.961   6.308  16.480  0.00  0.00    +0.000 NA
ATOM     22  N   UNL     1       6.266   5.360  17.170  0.00  0.00    +0.000 N 
ATOM     23  C   UNL     1       5.339   4.429  16.674  0.00  0.00    +0.000 A 
ATOM     24  C   UNL     1       5.060   4.455  15.195  0.00  0.00    +0.000 C 
ATOM     25  C   UNL     1       4.738   3.562  17.528  0.00  0.00    +0.000 A 
ENDBRANCH  14  25
ENDBRANCH   1  14
TORSDOF 6
ENDMDL
MODEL 3
REMARK VINA RESULT:      -6.7      2.280      3.968
REMARK  Name = 
REMARK  8 active torsions:
REMARK  status: ('A' for Active; 'I' for Inactive)
REMARK    1  A    between atoms: C_1  and  C_2
REMARK    2  A    between atoms: C_9  and  C_10
REMARK    3  A    between atoms: C_11  and  C_12
REMARK    4  A    between atoms: C_12  and  C_13
REMARK    5  A    between atoms: C_13  and  C_14
REMARK    6  A    between atoms: N_19  and  C_20
REMARK    7  A    between atoms: C_20  and  C_21
REMARK    8  A    between atoms: C_21  and  O_22
REMARK                            x       y       z     vdW  Elec       q    Type
REMARK                         _______ _______ _______ _____ _____    ______ ____
ROOT
ATOM      1  C   UNL     1       2.054   8.157  17.903  0.00  0.00    +0.000 C 
ENDROOT
BRANCH   1   2
ATOM      2  C   UNL     1       2.007   9.669  18.028  0.00  0.00    +0.000 C 
ATOM      3  O   UNL     1       2.602  10.389  17.223  0.00  0.00    +0.000 OA
ATOM      4  N   UNL     1       1.200  10.188  19.035  0.00  0.00    +0.000 N 
ATOM      5  C   UNL     1       1.008  11.638  19.137  0.00  0.00    +0.000 C 
ATOM      6  C   UNL     1      -0.468  11.974  19.433  0.00  0.00    +0.000 C 
ATOM      7  N   UNL     1      -1.048  11.279  20.609  0.00  0.00    +0.000 NA
ATOM      8  C   UNL     1      -0.820   9.822  20.446  0.00  0.00    +0.000 C 
ATOM      9  C   UNL     1       0.641   9.424  20.159  0.00  0.00    +0.000 C 
BRANCH   7  10
ATOM     10  C   UNL     1      -0.498  11.743  21.902  0.00  0.00    +0.000 C 
BRANCH  10  11
ATOM     11  C   UNL     1      -1.041  10.969  23.114  0.00  0.00    +0.000 C 
BRANCH  11  12
ATOM     12  O   UNL     1      -0.017  10.169  23.697  0.00  0.00    +0.000 OA
ATOM     13  H   UNL     1       0.281  10.664  24.485  0.00  0.00    +0.000 HD
ENDBRANCH  11  12
ENDBRANCH  10  11
ENDBRANCH   7  10
ENDBRANCH   1   2
BRANCH   1  14
ATOM     14  C   UNL     1       3.252   7.527  18.615  0.00  0.00    +0.000 C 
BRANCH  14  25
ATOM     15  C   UNL     1       4.865   6.319  16.371  0.00  0.00    +0.000 C 
ATOM     16  C   UNL     1       4.096   5.407  17.308  0.00  0.00    +0.000 A 
ATOM     17  N   UNL     1       4.197   4.128  17.067  0.00  0.00    +0.000 NA
ATOM     18  C   UNL     1       3.506   3.295  17.893  0.00  0.00    +0.000 A 
ATOM     19  C   UNL     1       3.410   1.923  17.916  0.00  0.00    +0.000 A 
ATOM     20  C   UNL     1       2.553   1.636  18.983  0.00  0.00    +0.000 A 
ATOM     21  N   UNL     1       2.123   2.732  19.606  0.00  0.00    +0.000 NA
ATOM     22  N   UNL     1       2.718   3.765  18.945  0.00  0.00    +0.000 N 
ATOM     23  C   UNL     1       2.611   5.141  19.207  0.00  0.00    +0.000 A 
ATOM     24  C   UNL     1       1.737   5.557  20.360  0.00  0.00    +0.000 C 
ATOM     25  C   UNL     1       3.279   6.026  18.424  0.00  0.00    +0.000 A 
ENDBRANCH  14  25
ENDBRANCH   1  14
TORSDOF 6
ENDMDL
MODEL 4
REMARK VINA RESULT:      -6.7      2.646      8.024
REMARK  Name = 
REMARK  8 active torsions:
REMARK  status: ('A' for Active; 'I' for Inactive)
REMARK    1  A    between atoms: C_1  and  C_2
REMARK    2  A    between atoms: C_9  and  C_10
REMARK    3  A    between atoms: C_11  and  C_12
REMARK    4  A    between atoms: C_12  and  C_13
REMARK    5  A    between atoms: C_13  and  C_14
REMARK    6  A    between atoms: N_19  and  C_20
REMARK    7  A    between atoms: C_20  and  C_21
REMARK    8  A    between atoms: C_21  and  O_22
REMARK                            x       y       z     vdW  Elec       q    Type
REMARK                         _______ _______ _______ _____ _____    ______ ____
ROOT
ATOM      1  C   UNL     1       1.947   6.904  20.841  0.00  0.00    +0.000 C 
ENDROOT
BRANCH   1   2
ATOM      2  C   UNL     1       1.931   5.481  20.311  0.00  0.00    +0.000 C 
ATOM      3  O   UNL     1       1.058   4.684  20.665  0.00  0.00    +0.000 OA
ATOM      4  N   UNL     1       2.891   5.159  19.359  0.00  0.00    +0.000 N 
ATOM      5  C   UNL     1       2.859   3.843  18.713  0.00  0.00    +0.000 C 
ATOM      6  C   UNL     1       3.133   3.971  17.199  0.00  0.00    +0.000 C 
ATOM      7  N   UNL     1       4.373   4.705  16.844  0.00  0.00    +0.000 NA
ATOM      8  C   UNL     1       4.345   6.022  17.529  0.00  0.00    +0.000 C 
ATOM      9  C   UNL     1       4.085   5.956  19.047  0.00  0.00    +0.000 C 
BRANCH   7  10
ATOM     10  C   UNL     1       5.613   3.975  17.188  0.00  0.00    +0.000 C 
BRANCH  10  11
ATOM     11  C   UNL     1       6.870   4.548  16.516  0.00  0.00    +0.000 C 
BRANCH  11  12
ATOM     12  O   UNL     1       8.040   4.163  17.230  0.00  0.00    +0.000 OA
ATOM     13  H   UNL     1       8.773   4.661  16.815  0.00  0.00    +0.000 HD
ENDBRANCH  11  12
ENDBRANCH  10  11
ENDBRANCH   7  10
ENDBRANCH   1   2
BRANCH   1  14
ATOM     14  C   UNL     1       0.602   7.618  20.703  0.00  0.00    +0.000 C 
BRANCH  14  25
ATOM     15  C   UNL     1       0.000   9.421  23.044  0.00  0.00    +0.000 C 
ATOM     16  C   UNL     1       0.497  10.029  21.746  0.00  0.00    +0.000 A 
ATOM     17  N   UNL     1       0.634  11.327  21.742  0.00  0.00    +0.000 NA
ATOM     18  C   UNL     1       1.070  11.892  20.583  0.00  0.00    +0.000 A 
ATOM     19  C   UNL     1       1.323  13.204  20.257  0.00  0.00    +0.000 A 
ATOM     20  C   UNL     1       1.740  13.173  18.922  0.00  0.00    +0.000 A 
ATOM     21  N   UNL     1       1.756  11.941  18.416  0.00  0.00    +0.000 NA
ATOM     22  N   UNL     1       1.353  11.138  19.442  0.00  0.00    +0.000 N 
ATOM     23  C   UNL     1       1.209   9.741  19.446  0.00  0.00    +0.000 A 
ATOM     24  C   UNL     1       1.535   9.010  18.171  0.00  0.00    +0.000 C 
ATOM     25  C   UNL     1       0.783   9.115  20.573  0.00  0.00    +0.000 A 
ENDBRANCH  14  25
ENDBRANCH   1  14
TORSDOF 6
ENDMDL
MODEL 5
REMARK VINA RESULT:      -6.6      1.552      2.064
REMARK  Name = 
REMARK  8 active torsions:
REMARK  status: ('A' for Active; 'I' for Inactive)
REMARK    1  A    between atoms: C_1  and  C_2
REMARK    2  A    between atoms: C_9  and  C_10
REMARK    3  A    between atoms: C_11  and  C_12
REMARK    4  A    between atoms: C_12  and  C_13
REMARK    5  A    between atoms: C_13  and  C_14
REMARK    6  A    between atoms: N_19  and  C_20
REMARK    7  A    between atoms: C_20  and  C_21
REMARK    8  A    between atoms: C_21  and  O_22
REMARK                            x       y       z     vdW  Elec       q    Type
REMARK                         _______ _______ _______ _____ _____    ______ ____
ROOT
ATOM      1  C   UNL     1       2.484   6.566  18.906  0.00  0.00    +0.000 C 
ENDROOT
BRANCH   1   2
ATOM      2  C   UNL     1       2.271   8.004  18.465  0.00  0.00    +0.000 C 
ATOM      3  O   UNL     1       2.665   8.392  17.363  0.00  0.00    +0.000 OA
ATOM      4  N   UNL     1       1.548   8.820  19.327  0.00  0.00    +0.000 N 
ATOM      5  C   UNL     1       1.197  10.182  18.913  0.00  0.00    +0.000 C 
ATOM      6  C   UNL     1      -0.257  10.516  19.306  0.00  0.00    +0.000 C 
ATOM      7  N   UNL     1      -0.590  10.295  20.735  0.00  0.00    +0.000 NA
ATOM      8  C   UNL     1      -0.211   8.905  21.090  0.00  0.00    +0.000 C 
ATOM      9  C   UNL     1       1.238   8.517  20.731  0.00  0.00    +0.000 C 
BRANCH   7  10
ATOM     10  C   UNL     1       0.066  11.255  21.651  0.00  0.00    +0.000 C 
BRANCH  10  11
ATOM     11  C   UNL     1      -0.889  11.861  22.691  0.00  0.00    +0.000 C 
BRANCH  11  12
ATOM     12  O   UNL     1      -0.389  13.107  23.164  0.00  0.00    +0.000 OA
ATOM     13  H   UNL     1      -0.382  13.697  22.385  0.00  0.00    +0.000 HD
ENDBRANCH  11  12
ENDBRANCH  10  11
ENDBRANCH   7  10
ENDBRANCH   1   2
BRANCH   1  14
ATOM     14  C   UNL     1       3.955   6.212  19.130  0.00  0.00    +0.000 C 
BRANCH  14  25
ATOM     15  C   UNL     1       2.817   3.629  18.066  0.00  0.00    +0.000 C 
ATOM     16  C   UNL     1       3.987   4.276  17.350  0.00  0.00    +0.000 A 
ATOM     17  N   UNL     1       4.424   3.648  16.292  0.00  0.00    +0.000 NA
ATOM     18  C   UNL     1       5.480   4.210  15.642  0.00  0.00    +0.000 A 
ATOM     19  C   UNL     1       6.158   3.813  14.513  0.00  0.00    +0.000 A 
ATOM     20  C   UNL     1       7.151   4.781  14.327  0.00  0.00    +0.000 A 
ATOM     21  N   UNL     1       7.124   5.731  15.260  0.00  0.00    +0.000 NA
ATOM     22  N   UNL     1       6.084   5.392  16.073  0.00  0.00    +0.000 N 
ATOM     23  C   UNL     1       5.613   6.070  17.210  0.00  0.00    +0.000 A 
ATOM     24  C   UNL     1       6.326   7.337  17.602  0.00  0.00    +0.000 C 
ATOM     25  C   UNL     1       4.559   5.567  17.901  0.00  0.00    +0.000 A 
ENDBRANCH  14  25
ENDBRANCH   1  14
TORSDOF 6
ENDMDL
MODEL 6
REMARK VINA RESULT:      -6.6      3.452      8.852
REMARK  Name = 
REMARK  8 active torsions:
REMARK  status: ('A' for Active; 'I' for Inactive)
REMARK    1  A    between atoms: C_1  and  C_2
REMARK    2  A    between atoms: C_9  and  C_10
REMARK    3  A    between atoms: C_11  and  C_12
REMARK    4  A    between atoms: C_12  and  C_13
REMARK    5  A    between atoms: C_13  and  C_14
REMARK    6  A    between atoms: N_19  and  C_20
REMARK    7  A    between atoms: C_20  and  C_21
REMARK    8  A    between atoms: C_21  and  O_22
REMARK                            x       y       z     vdW  Elec       q    Type
REMARK                         _______ _______ _______ _____ _____    ______ ____
ROOT
ATOM      1  C   UNL     1       1.233   7.889  21.080  0.00  0.00    +0.000 C 
ENDROOT
BRANCH   1   2
ATOM      2  C   UNL     1       1.971   7.353  19.867  0.00  0.00    +0.000 C 
ATOM      3  O   UNL     1       2.398   8.117  18.998  0.00  0.00    +0.000 OA
ATOM      4  N   UNL     1       2.205   5.983  19.834  0.00  0.00    +0.000 N 
ATOM      5  C   UNL     1       3.019   5.412  18.756  0.00  0.00    +0.000 C 
ATOM      6  C   UNL     1       3.993   4.351  19.311  0.00  0.00    +0.000 C 
ATOM      7  N   UNL     1       3.362   3.281  20.123  0.00  0.00    +0.000 NA
ATOM      8  C   UNL     1       2.555   3.923  21.190  0.00  0.00    +0.000 C 
ATOM      9  C   UNL     1       1.554   4.985  20.693  0.00  0.00    +0.000 C 
BRANCH   7  10
ATOM     10  C   UNL     1       2.523   2.354  19.331  0.00  0.00    +0.000 C 
BRANCH  10  11
ATOM     11  C   UNL     1       3.235   1.783  18.096  0.00  0.00    +0.000 C 
BRANCH  11  12
ATOM     12  O   UNL     1       4.200   0.808  18.479  0.00  0.00    +0.000 OA
ATOM     13  H   UNL     1       4.394   0.992  19.419  0.00  0.00    +0.000 HD
ENDBRANCH  11  12
ENDBRANCH  10  11
ENDBRANCH   7  10
ENDBRANCH   1   2
BRANCH   1  14
ATOM     14  C   UNL     1      -0.172   8.401  20.757  0.00  0.00    +0.000 C 
BRANCH  14  25
ATOM     15  C   UNL     1      -0.296   9.888  23.379  0.00  0.00    +0.000 C 
ATOM     16  C   UNL     1      -0.272  10.672  22.081  0.00  0.00    +0.000 A 
ATOM     17  N   UNL     1      -0.304  11.972  22.200  0.00  0.00    +0.000 NA
ATOM     18  C   UNL     1      -0.293  12.692  21.045  0.00  0.00    +0.000 A 
ATOM     19  C   UNL     1      -0.308  14.050  20.828  0.00  0.00    +0.000 A 
ATOM     20  C   UNL     1      -0.292  14.196  19.437  0.00  0.00    +0.000 A 
ATOM     21  N   UNL     1      -0.268  13.027  18.797  0.00  0.00    +0.000 NA
ATOM     22  N   UNL     1      -0.257  12.089  19.786  0.00  0.00    +0.000 N 
ATOM     23  C   UNL     1      -0.219  10.691  19.656  0.00  0.00    +0.000 A 
ATOM     24  C   UNL     1      -0.184  10.129  18.260  0.00  0.00    +0.000 C 
ATOM     25  C   UNL     1      -0.222   9.914  20.769  0.00  0.00    +0.000 A 
ENDBRANCH  14  25
ENDBRANCH   1  14
TORSDOF 6
ENDMDL
MODEL 7
REMARK VINA RESULT:      -6.5      3.423      9.285
REMARK  Name = 
REMARK  8 active torsions:
REMARK  status: ('A' for Active; 'I' for Inactive)
REMARK    1  A    between atoms: C_1  and  C_2
REMARK    2  A    between atoms: C_9  and  C_10
REMARK    3  A    between atoms: C_11  and  C_12
REMARK    4  A    between atoms: C_12  and  C_13
REMARK    5  A    between atoms: C_13  and  C_14
REMARK    6  A    between atoms: N_19  and  C_20
REMARK    7  A    between atoms: C_20  and  C_21
REMARK    8  A    between atoms: C_21  and  O_22
REMARK                            x       y       z     vdW  Elec       q    Type
REMARK                         _______ _______ _______ _____ _____    ______ ____
ROOT
ATOM      1  C   UNL     1       1.228   7.808  20.677  0.00  0.00    +0.000 C 
ENDROOT
BRANCH   1   2
ATOM      2  C   UNL     1       2.089   7.213  19.578  0.00  0.00    +0.000 C 
ATOM      3  O   UNL     1       2.619   7.934  18.729  0.00  0.00    +0.000 OA
ATOM      4  N   UNL     1       2.308   5.841  19.630  0.00  0.00    +0.000 N 
ATOM      5  C   UNL     1       3.229   5.216  18.675  0.00  0.00    +0.000 C 
ATOM      6  C   UNL     1       4.122   4.173  19.379  0.00  0.00    +0.000 C 
ATOM      7  N   UNL     1       3.392   3.145  20.162  0.00  0.00    +0.000 NA
ATOM      8  C   UNL     1       2.480   3.840  21.104  0.00  0.00    +0.000 C 
ATOM      9  C   UNL     1       1.554   4.887  20.454  0.00  0.00    +0.000 C 
BRANCH   7  10
ATOM     10  C   UNL     1       2.633   2.191  19.323  0.00  0.00    +0.000 C 
BRANCH  10  11
ATOM     11  C   UNL     1       3.421   1.680  18.107  0.00  0.00    +0.000 C 
BRANCH  11  12
ATOM     12  O   UNL     1       4.326   0.651  18.492  0.00  0.00    +0.000 OA
ATOM     13  H   UNL     1       5.210   1.070  18.493  0.00  0.00    +0.000 HD
ENDBRANCH  11  12
ENDBRANCH  10  11
ENDBRANCH   7  10
ENDBRANCH   1   2
BRANCH   1  14
ATOM     14  C   UNL     1       1.719   9.174  21.159  0.00  0.00    +0.000 C 
BRANCH  14  25
ATOM     15  C   UNL     1       1.160  10.998  18.822  0.00  0.00    +0.000 C 
ATOM     16  C   UNL     1       0.286  11.085  20.059  0.00  0.00    +0.000 A 
ATOM     17  N   UNL     1      -0.675  11.968  20.015  0.00  0.00    +0.000 NA
ATOM     18  C   UNL     1      -1.464  12.067  21.120  0.00  0.00    +0.000 A 
ATOM     19  C   UNL     1      -2.545  12.874  21.387  0.00  0.00    +0.000 A 
ATOM     20  C   UNL     1      -2.941  12.533  22.685  0.00  0.00    +0.000 A 
ATOM     21  N   UNL     1      -2.179  11.583  23.222  0.00  0.00    +0.000 NA
ATOM     22  N   UNL     1      -1.267  11.278  22.255  0.00  0.00    +0.000 N 
ATOM     23  C   UNL     1      -0.236  10.326  22.303  0.00  0.00    +0.000 A 
ATOM     24  C   UNL     1      -0.097   9.522  23.568  0.00  0.00    +0.000 C 
ATOM     25  C   UNL     1       0.584  10.173  21.232  0.00  0.00    +0.000 A 
ENDBRANCH  14  25
ENDBRANCH   1  14
TORSDOF 6
ENDMDL
MODEL 8
REMARK VINA RESULT:      -6.4      2.710      8.235
REMARK  Name = 
REMARK  8 active torsions:
REMARK  status: ('A' for Active; 'I' for Inactive)
REMARK    1  A    between atoms: C_1  and  C_2
REMARK    2  A    between atoms: C_9  and  C_10
REMARK    3  A    between atoms: C_11  and  C_12
REMARK    4  A    between atoms: C_12  and  C_13
REMARK    5  A    between atoms: C_13  and  C_14
REMARK    6  A    between atoms: N_19  and  C_20
REMARK    7  A    between atoms: C_20  and  C_21
REMARK    8  A    between atoms: C_21  and  O_22
REMARK                            x       y       z     vdW  Elec       q    Type
REMARK                         _______ _______ _______ _____ _____    ______ ____
ROOT
ATOM      1  C   UNL     1       1.309   6.399  20.396  0.00  0.00    +0.000 C 
ENDROOT
BRANCH   1   2
ATOM      2  C   UNL     1       2.205   5.187  20.583  0.00  0.00    +0.000 C 
ATOM      3  O   UNL     1       2.006   4.389  21.502  0.00  0.00    +0.000 OA
ATOM      4  N   UNL     1       3.194   4.989  19.627  0.00  0.00    +0.000 N 
ATOM      5  C   UNL     1       4.015   3.775  19.672  0.00  0.00    +0.000 C 
ATOM      6  C   UNL     1       4.211   3.194  18.256  0.00  0.00    +0.000 C 
ATOM      7  N   UNL     1       4.735   4.151  17.250  0.00  0.00    +0.000 NA
ATOM      8  C   UNL     1       3.864   5.352  17.255  0.00  0.00    +0.000 C 
ATOM      9  C   UNL     1       3.642   5.985  18.643  0.00  0.00    +0.000 C 
BRANCH   7  10
ATOM     10  C   UNL     1       6.145   4.537  17.479  0.00  0.00    +0.000 C 
BRANCH  10  11
ATOM     11  C   UNL     1       6.944   4.739  16.182  0.00  0.00    +0.000 C 
BRANCH  11  12
ATOM     12  O   UNL     1       7.506   6.046  16.137  0.00  0.00    +0.000 OA
ATOM     13  H   UNL     1       7.643   6.302  17.071  0.00  0.00    +0.000 HD
ENDBRANCH  11  12
ENDBRANCH  10  11
ENDBRANCH   7  10
ENDBRANCH   1   2
BRANCH   1  14
ATOM     14  C   UNL     1       2.015   7.725  20.688  0.00  0.00    +0.000 C 
BRANCH  14  25
ATOM     15  C   UNL     1       1.883   8.782  17.866  0.00  0.00    +0.000 C 
ATOM     16  C   UNL     1       1.042   9.436  18.944  0.00  0.00    +0.000 A 
ATOM     17  N   UNL     1       0.298  10.436  18.557  0.00  0.00    +0.000 NA
ATOM     18  C   UNL     1      -0.458  11.042  19.513  0.00  0.00    +0.000 A 
ATOM     19  C   UNL     1      -1.339  12.096  19.434  0.00  0.00    +0.000 A 
ATOM     20  C   UNL     1      -1.808  12.276  20.740  0.00  0.00    +0.000 A 
ATOM     21  N   UNL     1      -1.275  11.411  21.602  0.00  0.00    +0.000 NA
ATOM     22  N   UNL     1      -0.446  10.634  20.848  0.00  0.00    +0.000 N 
ATOM     23  C   UNL     1       0.352   9.556  21.266  0.00  0.00    +0.000 A 
ATOM     24  C   UNL     1       0.303   9.188  22.725  0.00  0.00    +0.000 C 
ATOM     25  C   UNL     1       1.125   8.905  20.361  0.00  0.00    +0.000 A 
ENDBRANCH  14  25
ENDBRANCH   1  14
TORSDOF 6
ENDMDL
MODEL 9
REMARK VINA RESULT:      -6.4      0.899      2.100
REMARK  Name = 
REMARK  8 active torsions:
REMARK  status: ('A' for Active; 'I' for Inactive)
REMARK    1  A    between atoms: C_1  and  C_2
REMARK    2  A    between atoms: C_9  and  C_10
REMARK    3  A    between atoms: C_11  and  C_12
REMARK    4  A    between atoms: C_12  and  C_13
REMARK    5  A    between atoms: C_13  and  C_14
REMARK    6  A    between atoms: N_19  and  C_20
REMARK    7  A    between atoms: C_20  and  C_21
REMARK    8  A    between atoms: C_21  and  O_22
REMARK                            x       y       z     vdW  Elec       q    Type
REMARK                         _______ _______ _______ _____ _____    ______ ____
ROOT
ATOM      1  C   UNL     1       3.307   7.047  18.183  0.00  0.00    +0.000 C 
ENDROOT
BRANCH   1   2
ATOM      2  C   UNL     1       2.392   7.292  19.369  0.00  0.00    +0.000 C 
ATOM      3  O   UNL     1       2.364   6.508  20.320  0.00  0.00    +0.000 OA
ATOM      4  N   UNL     1       1.661   8.475  19.359  0.00  0.00    +0.000 N 
ATOM      5  C   UNL     1       0.851   8.838  20.526  0.00  0.00    +0.000 C 
ATOM      6  C   UNL     1       1.000  10.340  20.848  0.00  0.00    +0.000 C 
ATOM      7  N   UNL     1       0.734  11.257  19.713  0.00  0.00    +0.000 NA
ATOM      8  C   UNL     1       1.579  10.836  18.568  0.00  0.00    +0.000 C 
ATOM      9  C   UNL     1       1.463   9.345  18.192  0.00  0.00    +0.000 C 
BRANCH   7  10
ATOM     10  C   UNL     1      -0.690  11.303  19.310  0.00  0.00    +0.000 C 
BRANCH  10  11
ATOM     11  C   UNL     1      -1.119  12.657  18.725  0.00  0.00    +0.000 C 
BRANCH  11  12
ATOM     12  O   UNL     1      -1.282  12.564  17.314  0.00  0.00    +0.000 OA
ATOM     13  H   UNL     1      -2.147  12.979  17.125  0.00  0.00    +0.000 HD
ENDBRANCH  11  12
ENDBRANCH  10  11
ENDBRANCH   7  10
ENDBRANCH   1   2
BRANCH   1  14
ATOM     14  C   UNL     1       4.469   6.103  18.500  0.00  0.00    +0.000 C 
BRANCH  14  25
ATOM     15  C   UNL     1       7.098   7.422  17.830  0.00  0.00    +0.000 C 
ATOM     16  C   UNL     1       6.544   6.356  16.904  0.00  0.00    +0.000 A 
ATOM     17  N   UNL     1       7.272   6.079  15.856  0.00  0.00    +0.000 NA
ATOM     18  C   UNL     1       6.786   5.132  15.008  0.00  0.00    +0.000 A 
ATOM     19  C   UNL     1       7.302   4.613  13.843  0.00  0.00    +0.000 A 
ATOM     20  C   UNL     1       6.355   3.678  13.411  0.00  0.00    +0.000 A 
ATOM     21  N   UNL     1       5.305   3.594  14.227  0.00  0.00    +0.000 NA
ATOM     22  N   UNL     1       5.569   4.483  15.226  0.00  0.00    +0.000 N 
ATOM     23  C   UNL     1       4.786   4.778  16.355  0.00  0.00    +0.000 A 
ATOM     24  C   UNL     1       3.488   4.032  16.508  0.00  0.00    +0.000 C 
ATOM     25  C   UNL     1       5.216   5.710  17.243  0.00  0.00    +0.000 A 
ENDBRANCH  14  25
ENDBRANCH   1  14
TORSDOF 6
ENDMDL
