MODEL 1
REMARK VINA RESULT:      -5.6      0.000      0.000
REMARK  Name = 
REMARK  7 active torsions:
REMARK  status: ('A' for Active; 'I' for Inactive)
REMARK    1  A    between atoms: C_1  and  C_2
REMARK    2  A    between atoms: C_2  and  C_3
REMARK    3  A    between atoms: C_2  and  C_4
REMARK    4  A    between atoms: C_4  and  N_5
REMARK    5  A    between atoms: C_6  and  P_8
REMARK    6  A    between atoms: P_8  and  O_10
REMARK    7  A    between atoms: P_8  and  O_11
REMARK                            x       y       z     vdW  Elec       q    Type
REMARK                         _______ _______ _______ _____ _____    ______ ____
ROOT
ATOM      1  N   UNL     1       6.398   3.626  13.986  0.00  0.00    +0.000 N 
ATOM      2  C   UNL     1       6.985   4.554  14.799  0.00  0.00    +0.000 C 
ATOM      3  O   UNL     1       7.632   5.542  14.474  0.00  0.00    +0.000 OA
ATOM      4  H   UNL     1       6.243   2.728  14.445  0.00  0.00    +0.000 HD
ENDROOT
BRANCH   2   5
ATOM      5  P   UNL     1       6.544   4.316  16.559  0.00  0.00    +0.000 P 
ATOM      6  O   UNL     1       8.021   4.387  16.977  0.00  0.00    +0.000 OA
BRANCH   5   7
ATOM      7  O   UNL     1       5.914   5.836  16.709  0.00  0.00    +0.000 OA
ATOM      8  H   UNL     1       5.580   5.992  17.624  0.00  0.00    +0.000 HD
ENDBRANCH   5   7
BRANCH   5   9
ATOM      9  O   UNL     1       6.127   4.093  18.223  0.00  0.00    +0.000 OA
ATOM     10  H   UNL     1       5.148   4.085  18.210  0.00  0.00    +0.000 HD
ENDBRANCH   5   9
ENDBRANCH   2   5
BRANCH   1  11
ATOM     11  C   UNL     1       6.317   3.708  12.565  0.00  0.00    +0.000 C 
BRANCH  11  13
ATOM     12  C   UNL     1       4.238   3.225  11.261  0.00  0.00    +0.000 C 
ATOM     13  C   UNL     1       5.411   2.597  12.016  0.00  0.00    +0.000 C 
ATOM     14  C   UNL     1       6.189   1.570  11.174  0.00  0.00    +0.000 C 
ENDBRANCH  11  13
ENDBRANCH   1  11
TORSDOF 5
ENDMDL
MODEL 2
REMARK VINA RESULT:      -5.4      2.300      3.096
REMARK  Name = 
REMARK  7 active torsions:
REMARK  status: ('A' for Active; 'I' for Inactive)
REMARK    1  A    between atoms: C_1  and  C_2
REMARK    2  A    between atoms: C_2  and  C_3
REMARK    3  A    between atoms: C_2  and  C_4
REMARK    4  A    between atoms: C_4  and  N_5
REMARK    5  A    between atoms: C_6  and  P_8
REMARK    6  A    between atoms: P_8  and  O_10
REMARK    7  A    between atoms: P_8  and  O_11
REMARK                            x       y       z     vdW  Elec       q    Type
REMARK                         _______ _______ _______ _____ _____    ______ ____
ROOT
ATOM      1  N   UNL     1       7.471   5.150  16.252  0.00  0.00    +0.000 N 
ATOM      2  C   UNL     1       7.195   6.209  17.070  0.00  0.00    +0.000 C 
ATOM      3  O   UNL     1       6.693   7.285  16.771  0.00  0.00    +0.000 OA
ATOM      4  H   UNL     1       8.198   4.536  16.618  0.00  0.00    +0.000 HD
ENDROOT
BRANCH   2   5
ATOM      5  P   UNL     1       7.470   5.813  18.835  0.00  0.00    +0.000 P 
ATOM      6  O   UNL     1       8.252   4.542  18.468  0.00  0.00    +0.000 OA
BRANCH   5   7
ATOM      7  O   UNL     1       8.570   7.028  19.040  0.00  0.00    +0.000 OA
ATOM      8  H   UNL     1       9.181   6.830  19.788  0.00  0.00    +0.000 HD
ENDBRANCH   5   7
BRANCH   5   9
ATOM      9  O   UNL     1       7.730   5.438  20.504  0.00  0.00    +0.000 OA
ATOM     10  H   UNL     1       6.992   5.897  20.955  0.00  0.00    +0.000 HD
ENDBRANCH   5   9
ENDBRANCH   2   5
BRANCH   1  11
ATOM     11  C   UNL     1       7.096   5.050  14.880  0.00  0.00    +0.000 C 
BRANCH  11  13
ATOM     12  C   UNL     1       4.961   3.970  15.609  0.00  0.00    +0.000 C 
ATOM     13  C   UNL     1       6.161   3.851  14.667  0.00  0.00    +0.000 C 
ATOM     14  C   UNL     1       5.755   3.679  13.193  0.00  0.00    +0.000 C 
ENDBRANCH  11  13
ENDBRANCH   1  11
TORSDOF 5
ENDMDL
MODEL 3
REMARK VINA RESULT:      -5.4      0.704      1.138
REMARK  Name = 
REMARK  7 active torsions:
REMARK  status: ('A' for Active; 'I' for Inactive)
REMARK    1  A    between atoms: C_1  and  C_2
REMARK    2  A    between atoms: C_2  and  C_3
REMARK    3  A    between atoms: C_2  and  C_4
REMARK    4  A    between atoms: C_4  and  N_5
REMARK    5  A    between atoms: C_6  and  P_8
REMARK    6  A    between atoms: P_8  and  O_10
REMARK    7  A    between atoms: P_8  and  O_11
REMARK                            x       y       z     vdW  Elec       q    Type
REMARK                         _______ _______ _______ _____ _____    ______ ____
ROOT
ATOM      1  N   UNL     1       6.466   3.694  13.909  0.00  0.00    +0.000 N 
ATOM      2  C   UNL     1       7.115   4.628  14.667  0.00  0.00    +0.000 C 
ATOM      3  O   UNL     1       7.753   5.602  14.286  0.00  0.00    +0.000 OA
ATOM      4  H   UNL     1       6.329   2.807  14.392  0.00  0.00    +0.000 HD
ENDROOT
BRANCH   2   5
ATOM      5  P   UNL     1       6.781   4.425  16.455  0.00  0.00    +0.000 P 
ATOM      6  O   UNL     1       5.917   5.697  16.476  0.00  0.00    +0.000 OA
BRANCH   5   7
ATOM      7  O   UNL     1       5.767   3.142  16.223  0.00  0.00    +0.000 OA
ATOM      8  H   UNL     1       4.940   3.245  16.750  0.00  0.00    +0.000 HD
ENDBRANCH   5   7
BRANCH   5   9
ATOM      9  O   UNL     1       6.465   4.234  18.145  0.00  0.00    +0.000 OA
ATOM     10  H   UNL     1       5.935   3.412  18.182  0.00  0.00    +0.000 HD
ENDBRANCH   5   9
ENDBRANCH   2   5
BRANCH   1  11
ATOM     11  C   UNL     1       6.298   3.754  12.494  0.00  0.00    +0.000 C 
BRANCH  11  13
ATOM     12  C   UNL     1       4.198   3.223  11.244  0.00  0.00    +0.000 C 
ATOM     13  C   UNL     1       5.375   2.625  12.018  0.00  0.00    +0.000 C 
ATOM     14  C   UNL     1       6.132   1.545  11.223  0.00  0.00    +0.000 C 
ENDBRANCH  11  13
ENDBRANCH   1  11
TORSDOF 5
ENDMDL
MODEL 4
REMARK VINA RESULT:      -5.3      4.361      5.267
REMARK  Name = 
REMARK  7 active torsions:
REMARK  status: ('A' for Active; 'I' for Inactive)
REMARK    1  A    between atoms: C_1  and  C_2
REMARK    2  A    between atoms: C_2  and  C_3
REMARK    3  A    between atoms: C_2  and  C_4
REMARK    4  A    between atoms: C_4  and  N_5
REMARK    5  A    between atoms: C_6  and  P_8
REMARK    6  A    between atoms: P_8  and  O_10
REMARK    7  A    between atoms: P_8  and  O_11
REMARK                            x       y       z     vdW  Elec       q    Type
REMARK                         _______ _______ _______ _____ _____    ______ ____
ROOT
ATOM      1  N   UNL     1       4.581   3.436  17.664  0.00  0.00    +0.000 N 
ATOM      2  C   UNL     1       5.615   4.238  18.058  0.00  0.00    +0.000 C 
ATOM      3  O   UNL     1       5.974   4.503  19.199  0.00  0.00    +0.000 OA
ATOM      4  H   UNL     1       4.241   3.648  16.727  0.00  0.00    +0.000 HD
ENDROOT
BRANCH   2   5
ATOM      5  P   UNL     1       6.643   4.790  16.649  0.00  0.00    +0.000 P 
ATOM      6  O   UNL     1       7.933   4.402  17.388  0.00  0.00    +0.000 OA
BRANCH   5   7
ATOM      7  O   UNL     1       6.210   3.508  15.702  0.00  0.00    +0.000 OA
ATOM      8  H   UNL     1       5.730   3.809  14.895  0.00  0.00    +0.000 HD
ENDBRANCH   5   7
BRANCH   5   9
ATOM      9  O   UNL     1       7.614   5.312  15.316  0.00  0.00    +0.000 OA
ATOM     10  H   UNL     1       7.231   6.182  15.086  0.00  0.00    +0.000 HD
ENDBRANCH   5   9
ENDBRANCH   2   5
BRANCH   1  11
ATOM     11  C   UNL     1       3.786   2.631  18.532  0.00  0.00    +0.000 C 
BRANCH  11  13
ATOM     12  C   UNL     1       1.439   2.200  19.283  0.00  0.00    +0.000 C 
ATOM     13  C   UNL     1       2.306   2.716  18.133  0.00  0.00    +0.000 C 
ATOM     14  C   UNL     1       1.907   4.126  17.662  0.00  0.00    +0.000 C 
ENDBRANCH  11  13
ENDBRANCH   1  11
TORSDOF 5
ENDMDL
MODEL 5
REMARK VINA RESULT:      -5.2      4.900      6.157
REMARK  Name = 
REMARK  7 active torsions:
REMARK  status: ('A' for Active; 'I' for Inactive)
REMARK    1  A    between atoms: C_1  and  C_2
REMARK    2  A    between atoms: C_2  and  C_3
REMARK    3  A    between atoms: C_2  and  C_4
REMARK    4  A    between atoms: C_4  and  N_5
REMARK    5  A    between atoms: C_6  and  P_8
REMARK    6  A    between atoms: P_8  and  O_10
REMARK    7  A    between atoms: P_8  and  O_11
REMARK                            x       y       z     vdW  Elec       q    Type
REMARK                         _______ _______ _______ _____ _____    ______ ____
ROOT
ATOM      1  N   UNL     1       5.151   3.361  19.321  0.00  0.00    +0.000 N 
ATOM      2  C   UNL     1       5.344   4.096  18.186  0.00  0.00    +0.000 C 
ATOM      3  O   UNL     1       4.663   4.108  17.168  0.00  0.00    +0.000 OA
ATOM      4  H   UNL     1       6.003   3.227  19.865  0.00  0.00    +0.000 HD
ENDROOT
BRANCH   2   5
ATOM      5  P   UNL     1       6.696   5.315  18.369  0.00  0.00    +0.000 P 
ATOM      6  O   UNL     1       6.603   5.244  19.902  0.00  0.00    +0.000 OA
BRANCH   5   7
ATOM      7  O   UNL     1       7.861   4.244  17.895  0.00  0.00    +0.000 OA
ATOM      8  H   UNL     1       8.750   4.670  17.885  0.00  0.00    +0.000 HD
ENDBRANCH   5   7
BRANCH   5   9
ATOM      9  O   UNL     1       7.974   6.467  18.542  0.00  0.00    +0.000 OA
ATOM     10  H   UNL     1       8.254   6.354  19.473  0.00  0.00    +0.000 HD
ENDBRANCH   5   9
ENDBRANCH   2   5
BRANCH   1  11
ATOM     11  C   UNL     1       4.014   2.542  19.590  0.00  0.00    +0.000 C 
BRANCH  11  13
ATOM     12  C   UNL     1       1.764   3.548  19.163  0.00  0.00    +0.000 C 
ATOM     13  C   UNL     1       2.882   3.383  20.195  0.00  0.00    +0.000 C 
ATOM     14  C   UNL     1       2.384   2.815  21.536  0.00  0.00    +0.000 C 
ENDBRANCH  11  13
ENDBRANCH   1  11
TORSDOF 5
ENDMDL
MODEL 6
REMARK VINA RESULT:      -5.2      4.282      5.453
REMARK  Name = 
REMARK  7 active torsions:
REMARK  status: ('A' for Active; 'I' for Inactive)
REMARK    1  A    between atoms: C_1  and  C_2
REMARK    2  A    between atoms: C_2  and  C_3
REMARK    3  A    between atoms: C_2  and  C_4
REMARK    4  A    between atoms: C_4  and  N_5
REMARK    5  A    between atoms: C_6  and  P_8
REMARK    6  A    between atoms: P_8  and  O_10
REMARK    7  A    between atoms: P_8  and  O_11
REMARK                            x       y       z     vdW  Elec       q    Type
REMARK                         _______ _______ _______ _____ _____    ______ ____
ROOT
ATOM      1  N   UNL     1       4.588   5.323  18.018  0.00  0.00    +0.000 N 
ATOM      2  C   UNL     1       5.925   5.067  18.131  0.00  0.00    +0.000 C 
ATOM      3  O   UNL     1       6.539   4.677  19.116  0.00  0.00    +0.000 OA
ATOM      4  H   UNL     1       4.363   5.968  17.260  0.00  0.00    +0.000 HD
ENDROOT
BRANCH   2   5
ATOM      5  P   UNL     1       6.791   5.167  16.522  0.00  0.00    +0.000 P 
ATOM      6  O   UNL     1       7.232   6.612  16.808  0.00  0.00    +0.000 OA
BRANCH   5   7
ATOM      7  O   UNL     1       8.017   4.172  17.007  0.00  0.00    +0.000 OA
ATOM      8  H   UNL     1       7.675   3.438  17.569  0.00  0.00    +0.000 HD
ENDBRANCH   5   7
BRANCH   5   9
ATOM      9  O   UNL     1       7.610   5.263  15.002  0.00  0.00    +0.000 OA
ATOM     10  H   UNL     1       6.878   5.314  14.355  0.00  0.00    +0.000 HD
ENDBRANCH   5   9
ENDBRANCH   2   5
BRANCH   1  11
ATOM     11  C   UNL     1       3.609   5.051  19.019  0.00  0.00    +0.000 C 
BRANCH  11  13
ATOM     12  C   UNL     1       2.674   3.487  17.306  0.00  0.00    +0.000 C 
ATOM     13  C   UNL     1       2.320   4.521  18.376  0.00  0.00    +0.000 C 
ATOM     14  C   UNL     1       1.321   3.991  19.420  0.00  0.00    +0.000 C 
ENDBRANCH  11  13
ENDBRANCH   1  11
TORSDOF 5
ENDMDL
MODEL 7
REMARK VINA RESULT:      -5.2      4.488      5.489
REMARK  Name = 
REMARK  7 active torsions:
REMARK  status: ('A' for Active; 'I' for Inactive)
REMARK    1  A    between atoms: C_1  and  C_2
REMARK    2  A    between atoms: C_2  and  C_3
REMARK    3  A    between atoms: C_2  and  C_4
REMARK    4  A    between atoms: C_4  and  N_5
REMARK    5  A    between atoms: C_6  and  P_8
REMARK    6  A    between atoms: P_8  and  O_10
REMARK    7  A    between atoms: P_8  and  O_11
REMARK                            x       y       z     vdW  Elec       q    Type
REMARK                         _______ _______ _______ _____ _____    ______ ____
ROOT
ATOM      1  N   UNL     1       4.564   4.492  18.142  0.00  0.00    +0.000 N 
ATOM      2  C   UNL     1       5.907   4.696  18.289  0.00  0.00    +0.000 C 
ATOM      3  O   UNL     1       6.561   4.712  19.324  0.00  0.00    +0.000 OA
ATOM      4  H   UNL     1       4.189   4.878  17.276  0.00  0.00    +0.000 HD
ENDROOT
BRANCH   2   5
ATOM      5  P   UNL     1       6.780   4.758  16.682  0.00  0.00    +0.000 P 
ATOM      6  O   UNL     1       8.080   4.248  17.326  0.00  0.00    +0.000 OA
BRANCH   5   7
ATOM      7  O   UNL     1       5.978   3.445  16.081  0.00  0.00    +0.000 OA
ATOM      8  H   UNL     1       5.295   3.126  16.717  0.00  0.00    +0.000 HD
ENDBRANCH   5   7
BRANCH   5   9
ATOM      9  O   UNL     1       7.606   4.817  15.163  0.00  0.00    +0.000 OA
ATOM     10  H   UNL     1       7.946   3.905  15.058  0.00  0.00    +0.000 HD
ENDBRANCH   5   9
ENDBRANCH   2   5
BRANCH   1  11
ATOM     11  C   UNL     1       3.668   4.120  19.187  0.00  0.00    +0.000 C 
BRANCH  11  13
ATOM     12  C   UNL     1       2.357   2.643  17.652  0.00  0.00    +0.000 C 
ATOM     13  C   UNL     1       2.273   3.828  18.617  0.00  0.00    +0.000 C 
ATOM     14  C   UNL     1       1.218   3.633  19.721  0.00  0.00    +0.000 C 
ENDBRANCH  11  13
ENDBRANCH   1  11
TORSDOF 5
ENDMDL
MODEL 8
REMARK VINA RESULT:      -5.2      4.609      5.454
REMARK  Name = 
REMARK  7 active torsions:
REMARK  status: ('A' for Active; 'I' for Inactive)
REMARK    1  A    between atoms: C_1  and  C_2
REMARK    2  A    between atoms: C_2  and  C_3
REMARK    3  A    between atoms: C_2  and  C_4
REMARK    4  A    between atoms: C_4  and  N_5
REMARK    5  A    between atoms: C_6  and  P_8
REMARK    6  A    between atoms: P_8  and  O_10
REMARK    7  A    between atoms: P_8  and  O_11
REMARK                            x       y       z     vdW  Elec       q    Type
REMARK                         _______ _______ _______ _____ _____    ______ ____
ROOT
ATOM      1  N   UNL     1       4.617   4.781  18.118  0.00  0.00    +0.000 N 
ATOM      2  C   UNL     1       5.974   4.779  18.279  0.00  0.00    +0.000 C 
ATOM      3  O   UNL     1       6.612   4.647  19.316  0.00  0.00    +0.000 OA
ATOM      4  H   UNL     1       4.312   5.261  17.272  0.00  0.00    +0.000 HD
ENDROOT
BRANCH   2   5
ATOM      5  P   UNL     1       6.864   4.795  16.680  0.00  0.00    +0.000 P 
ATOM      6  O   UNL     1       8.134   4.232  17.339  0.00  0.00    +0.000 OA
BRANCH   5   7
ATOM      7  O   UNL     1       6.011   3.515  16.078  0.00  0.00    +0.000 OA
ATOM      8  H   UNL     1       6.390   2.660  16.388  0.00  0.00    +0.000 HD
ENDBRANCH   5   7
BRANCH   5   9
ATOM      9  O   UNL     1       7.706   4.810  15.169  0.00  0.00    +0.000 OA
ATOM     10  H   UNL     1       6.993   4.664  14.514  0.00  0.00    +0.000 HD
ENDBRANCH   5   9
ENDBRANCH   2   5
BRANCH   1  11
ATOM     11  C   UNL     1       3.666   4.491  19.140  0.00  0.00    +0.000 C 
BRANCH  11  13
ATOM     12  C   UNL     1       2.484   6.532  18.308  0.00  0.00    +0.000 C 
ATOM     13  C   UNL     1       2.299   5.089  18.782  0.00  0.00    +0.000 C 
ATOM     14  C   UNL     1       1.524   4.219  17.776  0.00  0.00    +0.000 C 
ENDBRANCH  11  13
ENDBRANCH   1  11
TORSDOF 5
ENDMDL
MODEL 9
REMARK VINA RESULT:      -5.2      4.382      5.361
REMARK  Name = 
REMARK  7 active torsions:
REMARK  status: ('A' for Active; 'I' for Inactive)
REMARK    1  A    between atoms: C_1  and  C_2
REMARK    2  A    between atoms: C_2  and  C_3
REMARK    3  A    between atoms: C_2  and  C_4
REMARK    4  A    between atoms: C_4  and  N_5
REMARK    5  A    between atoms: C_6  and  P_8
REMARK    6  A    between atoms: P_8  and  O_10
REMARK    7  A    between atoms: P_8  and  O_11
REMARK                            x       y       z     vdW  Elec       q    Type
REMARK                         _______ _______ _______ _____ _____    ______ ____
ROOT
ATOM      1  N   UNL     1       4.503   3.669  17.725  0.00  0.00    +0.000 N 
ATOM      2  C   UNL     1       5.651   4.270  18.157  0.00  0.00    +0.000 C 
ATOM      3  O   UNL     1       6.123   4.275  19.288  0.00  0.00    +0.000 OA
ATOM      4  H   UNL     1       4.122   4.089  16.877  0.00  0.00    +0.000 HD
ENDROOT
BRANCH   2   5
ATOM      5  P   UNL     1       6.631   4.969  16.779  0.00  0.00    +0.000 P 
ATOM      6  O   UNL     1       6.676   6.346  17.460  0.00  0.00    +0.000 OA
BRANCH   5   7
ATOM      7  O   UNL     1       8.005   4.159  17.213  0.00  0.00    +0.000 OA
ATOM      8  H   UNL     1       7.877   3.184  17.147  0.00  0.00    +0.000 HD
ENDBRANCH   5   7
BRANCH   5   9
ATOM      9  O   UNL     1       7.559   5.630  15.477  0.00  0.00    +0.000 OA
ATOM     10  H   UNL     1       6.992   5.472  14.695  0.00  0.00    +0.000 HD
ENDBRANCH   5   9
ENDBRANCH   2   5
BRANCH   1  11
ATOM     11  C   UNL     1       3.683   2.802  18.505  0.00  0.00    +0.000 C 
BRANCH  11  13
ATOM     12  C   UNL     1       2.012   4.460  17.661  0.00  0.00    +0.000 C 
ATOM     13  C   UNL     1       2.318   3.452  18.770  0.00  0.00    +0.000 C 
ATOM     14  C   UNL     1       1.201   2.411  18.963  0.00  0.00    +0.000 C 
ENDBRANCH  11  13
ENDBRANCH   1  11
TORSDOF 5
ENDMDL
