MODEL 1
REMARK VINA RESULT:      -8.5      0.000      0.000
REMARK  Name = 
REMARK  7 active torsions:
REMARK  status: ('A' for Active; 'I' for Inactive)
REMARK    1  A    between atoms: C_1  and  C_2
REMARK    2  A    between atoms: C_6  and  C_7
REMARK    3  A    between atoms: C_7  and  C_8
REMARK    4  A    between atoms: C_7  and  N_14
REMARK    5  A    between atoms: C_16  and  C_17
REMARK    6  A    between atoms: C_19  and  C_20
REMARK    7  A    between atoms: C_22  and  O_23
REMARK                            x       y       z     vdW  Elec       q    Type
REMARK                         _______ _______ _______ _____ _____    ______ ____
ROOT
ATOM      1  C   UNL     1       3.971   5.977  18.252  0.00  0.00    +0.000 C 
ENDROOT
BRANCH   1   7
ATOM      2  C   UNL     1      -0.441  10.484  21.817  0.00  0.00    +0.000 C 
ATOM      3  C   UNL     1       0.345   9.559  20.967  0.00  0.00    +0.000 A 
ATOM      4  N   UNL     1       0.742   9.917  19.694  0.00  0.00    +0.000 NA
ATOM      5  C   UNL     1       1.437   8.875  19.342  0.00  0.00    +0.000 A 
ATOM      6  S   UNL     1       2.394   8.427  17.973  0.00  0.00    +0.000 S 
ATOM      7  C   UNL     1       2.890   6.913  18.829  0.00  0.00    +0.000 A 
ATOM      8  C   UNL     1       2.295   6.835  20.052  0.00  0.00    +0.000 A 
ATOM      9  N   UNL     1       1.487   7.934  20.322  0.00  0.00    +0.000 N 
ATOM     10  N   UNL     1       0.767   8.349  21.393  0.00  0.00    +0.000 NA
BRANCH   8  11
ATOM     11  O   UNL     1       2.489   5.838  20.978  0.00  0.00    +0.000 OA
ATOM     12  H   UNL     1       2.382   6.255  21.861  0.00  0.00    +0.000 HD
ENDBRANCH   8  11
ENDBRANCH   1   7
BRANCH   1  13
ATOM     13  N   UNL     1       4.422   6.403  16.887  0.00  0.00    +0.000 NA
ATOM     14  C   UNL     1       5.524   7.392  16.985  0.00  0.00    +0.000 C 
ATOM     15  C   UNL     1       6.833   6.715  17.428  0.00  0.00    +0.000 C 
ATOM     16  C   UNL     1       7.867   7.732  17.868  0.00  0.00    +0.000 C 
ATOM     17  O   UNL     1       7.300   5.898  16.348  0.00  0.00    +0.000 OA
ATOM     18  C   UNL     1       6.354   4.831  16.114  0.00  0.00    +0.000 C 
ATOM     19  C   UNL     1       6.823   4.075  14.870  0.00  0.00    +0.000 C 
ATOM     20  C   UNL     1       4.889   5.344  15.949  0.00  0.00    +0.000 C 
ENDBRANCH   1  13
BRANCH   1  21
ATOM     21  C   UNL     1       3.570   4.503  18.332  0.00  0.00    +0.000 A 
ATOM     22  C   UNL     1       2.442   3.994  17.675  0.00  0.00    +0.000 A 
ATOM     23  C   UNL     1       2.118   2.638  17.762  0.00  0.00    +0.000 A 
ATOM     24  C   UNL     1       2.928   1.767  18.487  0.00  0.00    +0.000 A 
ATOM     25  C   UNL     1       4.070   2.246  19.121  0.00  0.00    +0.000 A 
ATOM     26  C   UNL     1       4.388   3.603  19.046  0.00  0.00    +0.000 A 
ENDBRANCH   1  21
TORSDOF 4
ENDMDL
MODEL 2
REMARK VINA RESULT:      -8.5      0.312      1.007
REMARK  Name = 
REMARK  7 active torsions:
REMARK  status: ('A' for Active; 'I' for Inactive)
REMARK    1  A    between atoms: C_1  and  C_2
REMARK    2  A    between atoms: C_6  and  C_7
REMARK    3  A    between atoms: C_7  and  C_8
REMARK    4  A    between atoms: C_7  and  N_14
REMARK    5  A    between atoms: C_16  and  C_17
REMARK    6  A    between atoms: C_19  and  C_20
REMARK    7  A    between atoms: C_22  and  O_23
REMARK                            x       y       z     vdW  Elec       q    Type
REMARK                         _______ _______ _______ _____ _____    ______ ____
ROOT
ATOM      1  C   UNL     1       3.928   6.066  18.309  0.00  0.00    +0.000 C 
ENDROOT
BRANCH   1   7
ATOM      2  C   UNL     1      -0.564  10.748  21.533  0.00  0.00    +0.000 C 
ATOM      3  C   UNL     1       0.243   9.783  20.750  0.00  0.00    +0.000 A 
ATOM      4  N   UNL     1       0.687  10.086  19.478  0.00  0.00    +0.000 NA
ATOM      5  C   UNL     1       1.384   9.025  19.192  0.00  0.00    +0.000 A 
ATOM      6  S   UNL     1       2.384   8.516  17.877  0.00  0.00    +0.000 S 
ATOM      7  C   UNL     1       2.836   7.033  18.809  0.00  0.00    +0.000 A 
ATOM      8  C   UNL     1       2.198   7.009  20.013  0.00  0.00    +0.000 A 
ATOM      9  N   UNL     1       1.392   8.124  20.210  0.00  0.00    +0.000 N 
ATOM     10  N   UNL     1       0.639   8.588  21.238  0.00  0.00    +0.000 NA
BRANCH   8  11
ATOM     11  O   UNL     1       2.351   6.049  20.984  0.00  0.00    +0.000 OA
ATOM     12  H   UNL     1       3.024   5.418  20.646  0.00  0.00    +0.000 HD
ENDBRANCH   8  11
ENDBRANCH   1   7
BRANCH   1  13
ATOM     13  N   UNL     1       4.513   6.501  16.999  0.00  0.00    +0.000 NA
ATOM     14  C   UNL     1       5.735   7.314  17.215  0.00  0.00    +0.000 C 
ATOM     15  C   UNL     1       6.909   6.431  17.679  0.00  0.00    +0.000 C 
ATOM     16  C   UNL     1       8.047   7.263  18.236  0.00  0.00    +0.000 C 
ATOM     17  O   UNL     1       7.320   5.619  16.573  0.00  0.00    +0.000 OA
ATOM     18  C   UNL     1       6.248   4.713  16.224  0.00  0.00    +0.000 C 
ATOM     19  C   UNL     1       6.679   3.970  14.959  0.00  0.00    +0.000 C 
ATOM     20  C   UNL     1       4.882   5.440  16.018  0.00  0.00    +0.000 C 
ENDBRANCH   1  13
BRANCH   1  21
ATOM     21  C   UNL     1       3.466   4.608  18.319  0.00  0.00    +0.000 A 
ATOM     22  C   UNL     1       4.225   3.583  18.900  0.00  0.00    +0.000 A 
ATOM     23  C   UNL     1       3.761   2.265  18.900  0.00  0.00    +0.000 A 
ATOM     24  C   UNL     1       2.523   1.956  18.341  0.00  0.00    +0.000 A 
ATOM     25  C   UNL     1       1.740   2.964  17.787  0.00  0.00    +0.000 A 
ATOM     26  C   UNL     1       2.208   4.279  17.774  0.00  0.00    +0.000 A 
ENDBRANCH   1  21
TORSDOF 4
ENDMDL
MODEL 3
REMARK VINA RESULT:      -7.8      1.578      1.760
REMARK  Name = 
REMARK  7 active torsions:
REMARK  status: ('A' for Active; 'I' for Inactive)
REMARK    1  A    between atoms: C_1  and  C_2
REMARK    2  A    between atoms: C_6  and  C_7
REMARK    3  A    between atoms: C_7  and  C_8
REMARK    4  A    between atoms: C_7  and  N_14
REMARK    5  A    between atoms: C_16  and  C_17
REMARK    6  A    between atoms: C_19  and  C_20
REMARK    7  A    between atoms: C_22  and  O_23
REMARK                            x       y       z     vdW  Elec       q    Type
REMARK                         _______ _______ _______ _____ _____    ______ ____
ROOT
ATOM      1  C   UNL     1       3.662   6.173  18.660  0.00  0.00    +0.000 C 
ENDROOT
BRANCH   1   7
ATOM      2  C   UNL     1      -1.325  11.303  19.805  0.00  0.00    +0.000 C 
ATOM      3  C   UNL     1      -0.227  10.312  19.707  0.00  0.00    +0.000 A 
ATOM      4  N   UNL     1       0.023   9.416  20.727  0.00  0.00    +0.000 NA
ATOM      5  C   UNL     1       0.994   8.716  20.219  0.00  0.00    +0.000 A 
ATOM      6  S   UNL     1       1.906   7.327  20.699  0.00  0.00    +0.000 S 
ATOM      7  C   UNL     1       2.729   7.324  19.088  0.00  0.00    +0.000 A 
ATOM      8  C   UNL     1       2.290   8.362  18.322  0.00  0.00    +0.000 A 
ATOM      9  N   UNL     1       1.326   9.128  18.966  0.00  0.00    +0.000 N 
ATOM     10  N   UNL     1       0.552  10.184  18.612  0.00  0.00    +0.000 NA
BRANCH   8  11
ATOM     11  O   UNL     1       2.675   8.625  17.029  0.00  0.00    +0.000 OA
ATOM     12  H   UNL     1       2.148   8.027  16.455  0.00  0.00    +0.000 HD
ENDBRANCH   8  11
ENDBRANCH   1   7
BRANCH   1  13
ATOM     13  N   UNL     1       4.334   6.446  17.348  0.00  0.00    +0.000 NA
ATOM     14  C   UNL     1       5.676   7.041  17.561  0.00  0.00    +0.000 C 
ATOM     15  C   UNL     1       6.669   5.986  18.082  0.00  0.00    +0.000 C 
ATOM     16  C   UNL     1       7.928   6.626  18.632  0.00  0.00    +0.000 C 
ATOM     17  O   UNL     1       6.948   5.071  17.015  0.00  0.00    +0.000 OA
ATOM     18  C   UNL     1       5.739   4.353  16.676  0.00  0.00    +0.000 C 
ATOM     19  C   UNL     1       6.051   3.497  15.449  0.00  0.00    +0.000 C 
ATOM     20  C   UNL     1       4.524   5.299  16.415  0.00  0.00    +0.000 C 
ENDBRANCH   1  13
BRANCH   1  21
ATOM     21  C   UNL     1       2.973   4.809  18.723  0.00  0.00    +0.000 A 
ATOM     22  C   UNL     1       1.807   4.522  18.000  0.00  0.00    +0.000 A 
ATOM     23  C   UNL     1       1.216   3.258  18.075  0.00  0.00    +0.000 A 
ATOM     24  C   UNL     1       1.792   2.257  18.854  0.00  0.00    +0.000 A 
ATOM     25  C   UNL     1       2.967   2.513  19.554  0.00  0.00    +0.000 A 
ATOM     26  C   UNL     1       3.551   3.779  19.492  0.00  0.00    +0.000 A 
ENDBRANCH   1  21
TORSDOF 4
ENDMDL
MODEL 4
REMARK VINA RESULT:      -7.3      2.245      2.613
REMARK  Name = 
REMARK  7 active torsions:
REMARK  status: ('A' for Active; 'I' for Inactive)
REMARK    1  A    between atoms: C_1  and  C_2
REMARK    2  A    between atoms: C_6  and  C_7
REMARK    3  A    between atoms: C_7  and  C_8
REMARK    4  A    between atoms: C_7  and  N_14
REMARK    5  A    between atoms: C_16  and  C_17
REMARK    6  A    between atoms: C_19  and  C_20
REMARK    7  A    between atoms: C_22  and  O_23
REMARK                            x       y       z     vdW  Elec       q    Type
REMARK                         _______ _______ _______ _____ _____    ______ ____
ROOT
ATOM      1  C   UNL     1       3.062   6.372  19.472  0.00  0.00    +0.000 C 
ENDROOT
BRANCH   1   7
ATOM      2  C   UNL     1      -1.552  11.951  19.199  0.00  0.00    +0.000 C 
ATOM      3  C   UNL     1      -0.535  10.889  19.382  0.00  0.00    +0.000 A 
ATOM      4  N   UNL     1      -0.423  10.202  20.574  0.00  0.00    +0.000 NA
ATOM      5  C   UNL     1       0.518   9.349  20.290  0.00  0.00    +0.000 A 
ATOM      6  S   UNL     1       1.281   8.028  21.102  0.00  0.00    +0.000 S 
ATOM      7  C   UNL     1       2.202   7.645  19.592  0.00  0.00    +0.000 A 
ATOM      8  C   UNL     1       1.897   8.535  18.606  0.00  0.00    +0.000 A 
ATOM      9  N   UNL     1       0.960   9.478  19.011  0.00  0.00    +0.000 N 
ATOM     10  N   UNL     1       0.299  10.491  18.397  0.00  0.00    +0.000 NA
BRANCH   8  11
ATOM     11  O   UNL     1       2.384   8.506  17.321  0.00  0.00    +0.000 OA
ATOM     12  H   UNL     1       3.303   8.851  17.365  0.00  0.00    +0.000 HD
ENDBRANCH   8  11
ENDBRANCH   1   7
BRANCH   1  13
ATOM     13  N   UNL     1       3.622   6.194  18.092  0.00  0.00    +0.000 NA
ATOM     14  C   UNL     1       5.077   6.488  18.076  0.00  0.00    +0.000 C 
ATOM     15  C   UNL     1       5.873   5.364  18.764  0.00  0.00    +0.000 C 
ATOM     16  C   UNL     1       7.294   5.792  19.070  0.00  0.00    +0.000 C 
ATOM     17  O   UNL     1       5.824   4.205  17.925  0.00  0.00    +0.000 OA
ATOM     18  C   UNL     1       4.459   3.736  17.839  0.00  0.00    +0.000 C 
ATOM     19  C   UNL     1       4.437   2.590  16.827  0.00  0.00    +0.000 C 
ATOM     20  C   UNL     1       3.454   4.864  17.442  0.00  0.00    +0.000 C 
ENDBRANCH   1  13
BRANCH   1  21
ATOM     21  C   UNL     1       2.346   5.130  20.006  0.00  0.00    +0.000 A 
ATOM     22  C   UNL     1       1.239   4.565  19.361  0.00  0.00    +0.000 A 
ATOM     23  C   UNL     1       0.621   3.422  19.874  0.00  0.00    +0.000 A 
ATOM     24  C   UNL     1       1.114   2.814  21.027  0.00  0.00    +0.000 A 
ATOM     25  C   UNL     1       2.232   3.342  21.665  0.00  0.00    +0.000 A 
ATOM     26  C   UNL     1       2.842   4.492  21.161  0.00  0.00    +0.000 A 
ENDBRANCH   1  21
TORSDOF 4
ENDMDL
MODEL 5
REMARK VINA RESULT:      -7.2      1.967      2.252
REMARK  Name = 
REMARK  7 active torsions:
REMARK  status: ('A' for Active; 'I' for Inactive)
REMARK    1  A    between atoms: C_1  and  C_2
REMARK    2  A    between atoms: C_6  and  C_7
REMARK    3  A    between atoms: C_7  and  C_8
REMARK    4  A    between atoms: C_7  and  N_14
REMARK    5  A    between atoms: C_16  and  C_17
REMARK    6  A    between atoms: C_19  and  C_20
REMARK    7  A    between atoms: C_22  and  O_23
REMARK                            x       y       z     vdW  Elec       q    Type
REMARK                         _______ _______ _______ _____ _____    ______ ____
ROOT
ATOM      1  C   UNL     1       3.058   6.368  19.355  0.00  0.00    +0.000 C 
ENDROOT
BRANCH   1   7
ATOM      2  C   UNL     1      -0.441  12.662  20.151  0.00  0.00    +0.000 C 
ATOM      3  C   UNL     1       0.155  11.332  19.879  0.00  0.00    +0.000 A 
ATOM      4  N   UNL     1       0.556  10.974  18.608  0.00  0.00    +0.000 NA
ATOM      5  C   UNL     1       1.062   9.794  18.824  0.00  0.00    +0.000 A 
ATOM      6  S   UNL     1       1.884   8.605  17.876  0.00  0.00    +0.000 S 
ATOM      7  C   UNL     1       2.162   7.623  19.369  0.00  0.00    +0.000 A 
ATOM      8  C   UNL     1       1.608   8.232  20.455  0.00  0.00    +0.000 A 
ATOM      9  N   UNL     1       0.997   9.439  20.134  0.00  0.00    +0.000 N 
ATOM     10  N   UNL     1       0.393  10.421  20.846  0.00  0.00    +0.000 NA
BRANCH   8  11
ATOM     11  O   UNL     1       1.675   7.778  21.751  0.00  0.00    +0.000 OA
ATOM     12  H   UNL     1       2.160   6.925  21.721  0.00  0.00    +0.000 HD
ENDBRANCH   8  11
ENDBRANCH   1   7
BRANCH   1  13
ATOM     13  N   UNL     1       3.681   6.131  18.012  0.00  0.00    +0.000 NA
ATOM     14  C   UNL     1       5.138   6.411  18.054  0.00  0.00    +0.000 C 
ATOM     15  C   UNL     1       5.888   5.309  18.824  0.00  0.00    +0.000 C 
ATOM     16  C   UNL     1       7.298   5.736  19.181  0.00  0.00    +0.000 C 
ATOM     17  O   UNL     1       5.867   4.118  18.028  0.00  0.00    +0.000 OA
ATOM     18  C   UNL     1       4.503   3.658  17.895  0.00  0.00    +0.000 C 
ATOM     19  C   UNL     1       4.517   2.473  16.928  0.00  0.00    +0.000 C 
ATOM     20  C   UNL     1       3.531   4.778  17.406  0.00  0.00    +0.000 C 
ENDBRANCH   1  13
BRANCH   1  21
ATOM     21  C   UNL     1       2.349   5.138  19.925  0.00  0.00    +0.000 A 
ATOM     22  C   UNL     1       1.249   4.544  19.294  0.00  0.00    +0.000 A 
ATOM     23  C   UNL     1       0.637   3.413  19.841  0.00  0.00    +0.000 A 
ATOM     24  C   UNL     1       1.131   2.846  21.015  0.00  0.00    +0.000 A 
ATOM     25  C   UNL     1       2.242   3.403  21.640  0.00  0.00    +0.000 A 
ATOM     26  C   UNL     1       2.845   4.541  21.102  0.00  0.00    +0.000 A 
ENDBRANCH   1  21
TORSDOF 4
ENDMDL
MODEL 6
REMARK VINA RESULT:      -7.2      3.087      6.880
REMARK  Name = 
REMARK  7 active torsions:
REMARK  status: ('A' for Active; 'I' for Inactive)
REMARK    1  A    between atoms: C_1  and  C_2
REMARK    2  A    between atoms: C_6  and  C_7
REMARK    3  A    between atoms: C_7  and  C_8
REMARK    4  A    between atoms: C_7  and  N_14
REMARK    5  A    between atoms: C_16  and  C_17
REMARK    6  A    between atoms: C_19  and  C_20
REMARK    7  A    between atoms: C_22  and  O_23
REMARK                            x       y       z     vdW  Elec       q    Type
REMARK                         _______ _______ _______ _____ _____    ______ ____
ROOT
ATOM      1  C   UNL     1       3.928   4.696  18.948  0.00  0.00    +0.000 C 
ENDROOT
BRANCH   1   7
ATOM      2  C   UNL     1       7.703   5.049  12.774  0.00  0.00    +0.000 C 
ATOM      3  C   UNL     1       7.065   4.902  14.103  0.00  0.00    +0.000 A 
ATOM      4  N   UNL     1       7.615   5.480  15.230  0.00  0.00    +0.000 NA
ATOM      5  C   UNL     1       6.733   5.167  16.134  0.00  0.00    +0.000 A 
ATOM      6  S   UNL     1       6.500   5.512  17.812  0.00  0.00    +0.000 S 
ATOM      7  C   UNL     1       4.902   4.667  17.753  0.00  0.00    +0.000 A 
ATOM      8  C   UNL     1       4.667   4.170  16.506  0.00  0.00    +0.000 A 
ATOM      9  N   UNL     1       5.696   4.455  15.617  0.00  0.00    +0.000 N 
ATOM     10  N   UNL     1       5.896   4.253  14.291  0.00  0.00    +0.000 NA
BRANCH   8  11
ATOM     11  O   UNL     1       3.528   3.513  16.105  0.00  0.00    +0.000 OA
ATOM     12  H   UNL     1       2.815   4.188  16.071  0.00  0.00    +0.000 HD
ENDBRANCH   8  11
ENDBRANCH   1   7
BRANCH   1  13
ATOM     13  N   UNL     1       3.062   3.473  19.004  0.00  0.00    +0.000 NA
ATOM     14  C   UNL     1       3.879   2.264  19.270  0.00  0.00    +0.000 C 
ATOM     15  C   UNL     1       4.363   2.237  20.732  0.00  0.00    +0.000 C 
ATOM     16  C   UNL     1       5.467   1.220  20.936  0.00  0.00    +0.000 C 
ATOM     17  O   UNL     1       3.230   1.985  21.571  0.00  0.00    +0.000 OA
ATOM     18  C   UNL     1       2.308   3.094  21.472  0.00  0.00    +0.000 C 
ATOM     19  C   UNL     1       1.059   2.717  22.271  0.00  0.00    +0.000 C 
ATOM     20  C   UNL     1       1.950   3.456  19.996  0.00  0.00    +0.000 C 
ENDBRANCH   1  13
BRANCH   1  21
ATOM     21  C   UNL     1       3.143   6.006  19.030  0.00  0.00    +0.000 A 
ATOM     22  C   UNL     1       2.526   6.441  20.210  0.00  0.00    +0.000 A 
ATOM     23  C   UNL     1       1.830   7.651  20.246  0.00  0.00    +0.000 A 
ATOM     24  C   UNL     1       1.759   8.456  19.111  0.00  0.00    +0.000 A 
ATOM     25  C   UNL     1       2.391   8.057  17.937  0.00  0.00    +0.000 A 
ATOM     26  C   UNL     1       3.076   6.841  17.896  0.00  0.00    +0.000 A 
ENDBRANCH   1  21
TORSDOF 4
ENDMDL
MODEL 7
REMARK VINA RESULT:      -6.6      4.093      8.061
REMARK  Name = 
REMARK  7 active torsions:
REMARK  status: ('A' for Active; 'I' for Inactive)
REMARK    1  A    between atoms: C_1  and  C_2
REMARK    2  A    between atoms: C_6  and  C_7
REMARK    3  A    between atoms: C_7  and  C_8
REMARK    4  A    between atoms: C_7  and  N_14
REMARK    5  A    between atoms: C_16  and  C_17
REMARK    6  A    between atoms: C_19  and  C_20
REMARK    7  A    between atoms: C_22  and  O_23
REMARK                            x       y       z     vdW  Elec       q    Type
REMARK                         _______ _______ _______ _____ _____    ______ ____
ROOT
ATOM      1  C   UNL     1       0.070  11.464  18.747  0.00  0.00    +0.000 C 
ENDROOT
BRANCH   1   7
ATOM      2  C   UNL     1       2.734   4.921  20.357  0.00  0.00    +0.000 C 
ATOM      3  C   UNL     1       2.347   6.309  20.010  0.00  0.00    +0.000 A 
ATOM      4  N   UNL     1       2.702   6.870  18.799  0.00  0.00    +0.000 NA
ATOM      5  C   UNL     1       2.127   8.035  18.880  0.00  0.00    +0.000 A 
ATOM      6  S   UNL     1       1.929   9.395  17.832  0.00  0.00    +0.000 S 
ATOM      7  C   UNL     1       0.845  10.168  19.057  0.00  0.00    +0.000 A 
ATOM      8  C   UNL     1       0.728   9.377  20.161  0.00  0.00    +0.000 A 
ATOM      9  N   UNL     1       1.449   8.194  20.047  0.00  0.00    +0.000 N 
ATOM     10  N   UNL     1       1.590   7.085  20.814  0.00  0.00    +0.000 NA
BRANCH   8  11
ATOM     11  O   UNL     1      -0.055   9.643  21.259  0.00  0.00    +0.000 OA
ATOM     12  H   UNL     1      -0.082  10.621  21.350  0.00  0.00    +0.000 HD
ENDBRANCH   8  11
ENDBRANCH   1   7
BRANCH   1  13
ATOM     13  N   UNL     1       0.273  12.512  19.799  0.00  0.00    +0.000 NA
ATOM     14  C   UNL     1       1.698  12.918  19.866  0.00  0.00    +0.000 C 
ATOM     15  C   UNL     1       2.084  13.776  18.647  0.00  0.00    +0.000 C 
ATOM     16  C   UNL     1       3.588  13.907  18.509  0.00  0.00    +0.000 C 
ATOM     17  O   UNL     1       1.438  15.047  18.774  0.00  0.00    +0.000 OA
ATOM     18  C   UNL     1       0.006  14.863  18.700  0.00  0.00    +0.000 C 
ATOM     19  C   UNL     1      -0.640  16.220  18.980  0.00  0.00    +0.000 C 
ATOM     20  C   UNL     1      -0.518  13.771  19.685  0.00  0.00    +0.000 C 
ENDBRANCH   1  13
BRANCH   1  21
ATOM     21  C   UNL     1      -1.402  11.200  18.422  0.00  0.00    +0.000 A 
ATOM     22  C   UNL     1      -2.445  11.909  19.031  0.00  0.00    +0.000 A 
ATOM     23  C   UNL     1      -3.776  11.646  18.697  0.00  0.00    +0.000 A 
ATOM     24  C   UNL     1      -4.082  10.687  17.733  0.00  0.00    +0.000 A 
ATOM     25  C   UNL     1      -3.059   9.994  17.094  0.00  0.00    +0.000 A 
ATOM     26  C   UNL     1      -1.730  10.246  17.437  0.00  0.00    +0.000 A 
ENDBRANCH   1  21
TORSDOF 4
ENDMDL
MODEL 8
REMARK VINA RESULT:      -6.5      5.324      8.050
REMARK  Name = 
REMARK  7 active torsions:
REMARK  status: ('A' for Active; 'I' for Inactive)
REMARK    1  A    between atoms: C_1  and  C_2
REMARK    2  A    between atoms: C_6  and  C_7
REMARK    3  A    between atoms: C_7  and  C_8
REMARK    4  A    between atoms: C_7  and  N_14
REMARK    5  A    between atoms: C_16  and  C_17
REMARK    6  A    between atoms: C_19  and  C_20
REMARK    7  A    between atoms: C_22  and  O_23
REMARK                            x       y       z     vdW  Elec       q    Type
REMARK                         _______ _______ _______ _____ _____    ______ ____
ROOT
ATOM      1  C   UNL     1       0.049  11.617  19.317  0.00  0.00    +0.000 C 
ENDROOT
BRANCH   1   7
ATOM      2  C   UNL     1      -6.971  12.258  17.644  0.00  0.00    +0.000 C 
ATOM      3  C   UNL     1      -5.551  11.964  17.951  0.00  0.00    +0.000 A 
ATOM      4  N   UNL     1      -4.706  11.436  16.996  0.00  0.00    +0.000 NA
ATOM      5  C   UNL     1      -3.579  11.397  17.646  0.00  0.00    +0.000 A 
ATOM      6  S   UNL     1      -1.945  10.977  17.271  0.00  0.00    +0.000 S 
ATOM      7  C   UNL     1      -1.437  11.525  18.919  0.00  0.00    +0.000 A 
ATOM      8  C   UNL     1      -2.514  11.955  19.634  0.00  0.00    +0.000 A 
ATOM      9  N   UNL     1      -3.699  11.875  18.913  0.00  0.00    +0.000 N 
ATOM     10  N   UNL     1      -4.984  12.239  19.145  0.00  0.00    +0.000 NA
BRANCH   8  11
ATOM     11  O   UNL     1      -2.476  12.479  20.905  0.00  0.00    +0.000 OA
ATOM     12  H   UNL     1      -1.676  13.047  20.947  0.00  0.00    +0.000 HD
ENDBRANCH   8  11
ENDBRANCH   1   7
BRANCH   1  13
ATOM     13  N   UNL     1       0.784  12.660  18.529  0.00  0.00    +0.000 NA
ATOM     14  C   UNL     1       0.036  13.941  18.530  0.00  0.00    +0.000 C 
ATOM     15  C   UNL     1       0.122  14.628  19.905  0.00  0.00    +0.000 C 
ATOM     16  C   UNL     1      -0.901  15.737  20.042  0.00  0.00    +0.000 C 
ATOM     17  O   UNL     1       1.462  15.100  20.084  0.00  0.00    +0.000 OA
ATOM     18  C   UNL     1       2.362  13.970  20.141  0.00  0.00    +0.000 C 
ATOM     19  C   UNL     1       3.785  14.526  20.191  0.00  0.00    +0.000 C 
ATOM     20  C   UNL     1       2.178  12.987  18.942  0.00  0.00    +0.000 C 
ENDBRANCH   1  13
BRANCH   1  21
ATOM     21  C   UNL     1       0.739  10.252  19.318  0.00  0.00    +0.000 A 
ATOM     22  C   UNL     1       1.367   9.726  18.182  0.00  0.00    +0.000 A 
ATOM     23  C   UNL     1       1.997   8.480  18.228  0.00  0.00    +0.000 A 
ATOM     24  C   UNL     1       2.030   7.753  19.416  0.00  0.00    +0.000 A 
ATOM     25  C   UNL     1       1.440   8.272  20.564  0.00  0.00    +0.000 A 
ATOM     26  C   UNL     1       0.797   9.510  20.516  0.00  0.00    +0.000 A 
ENDBRANCH   1  21
TORSDOF 4
ENDMDL
MODEL 9
REMARK VINA RESULT:      -6.5      2.030      4.197
REMARK  Name = 
REMARK  7 active torsions:
REMARK  status: ('A' for Active; 'I' for Inactive)
REMARK    1  A    between atoms: C_1  and  C_2
REMARK    2  A    between atoms: C_6  and  C_7
REMARK    3  A    between atoms: C_7  and  C_8
REMARK    4  A    between atoms: C_7  and  N_14
REMARK    5  A    between atoms: C_16  and  C_17
REMARK    6  A    between atoms: C_19  and  C_20
REMARK    7  A    between atoms: C_22  and  O_23
REMARK                            x       y       z     vdW  Elec       q    Type
REMARK                         _______ _______ _______ _____ _____    ______ ____
ROOT
ATOM      1  C   UNL     1       2.901   5.733  18.632  0.00  0.00    +0.000 C 
ENDROOT
BRANCH   1   7
ATOM      2  C   UNL     1       0.742  12.422  20.392  0.00  0.00    +0.000 C 
ATOM      3  C   UNL     1       1.061  11.054  19.918  0.00  0.00    +0.000 A 
ATOM      4  N   UNL     1       1.416  10.815  18.606  0.00  0.00    +0.000 NA
ATOM      5  C   UNL     1       1.663   9.538  18.637  0.00  0.00    +0.000 A 
ATOM      6  S   UNL     1       2.251   8.360  17.516  0.00  0.00    +0.000 S 
ATOM      7  C   UNL     1       2.281   7.129  18.841  0.00  0.00    +0.000 A 
ATOM      8  C   UNL     1       1.833   7.670  20.009  0.00  0.00    +0.000 A 
ATOM      9  N   UNL     1       1.491   9.011  19.878  0.00  0.00    +0.000 N 
ATOM     10  N   UNL     1       1.080   9.979  20.734  0.00  0.00    +0.000 NA
BRANCH   8  11
ATOM     11  O   UNL     1       1.769   7.023  21.221  0.00  0.00    +0.000 OA
ATOM     12  H   UNL     1       0.815   6.950  21.445  0.00  0.00    +0.000 HD
ENDBRANCH   8  11
ENDBRANCH   1   7
BRANCH   1  13
ATOM     13  N   UNL     1       2.887   4.913  19.888  0.00  0.00    +0.000 NA
ATOM     14  C   UNL     1       1.661   4.081  19.957  0.00  0.00    +0.000 C 
ATOM     15  C   UNL     1       1.729   2.915  18.953  0.00  0.00    +0.000 C 
ATOM     16  C   UNL     1       0.373   2.269  18.754  0.00  0.00    +0.000 C 
ATOM     17  O   UNL     1       2.712   1.983  19.420  0.00  0.00    +0.000 OA
ATOM     18  C   UNL     1       4.013   2.612  19.397  0.00  0.00    +0.000 C 
ATOM     19  C   UNL     1       5.001   1.632  20.031  0.00  0.00    +0.000 C 
ATOM     20  C   UNL     1       4.034   3.992  20.127  0.00  0.00    +0.000 C 
ENDBRANCH   1  13
BRANCH   1  21
ATOM     21  C   UNL     1       4.272   5.798  17.959  0.00  0.00    +0.000 A 
ATOM     22  C   UNL     1       5.382   6.397  18.569  0.00  0.00    +0.000 A 
ATOM     23  C   UNL     1       6.622   6.424  17.925  0.00  0.00    +0.000 A 
ATOM     24  C   UNL     1       6.776   5.833  16.673  0.00  0.00    +0.000 A 
ATOM     25  C   UNL     1       5.694   5.205  16.064  0.00  0.00    +0.000 A 
ATOM     26  C   UNL     1       4.452   5.190  16.699  0.00  0.00    +0.000 A 
ENDBRANCH   1  21
TORSDOF 4
ENDMDL
