MODEL 1
REMARK VINA RESULT:      -8.0      0.000      0.000
REMARK  Name = 
REMARK  4 active torsions:
REMARK  status: ('A' for Active; 'I' for Inactive)
REMARK    1  A    between atoms: N_3  and  C_4
REMARK    2  A    between atoms: C_4  and  C_5
REMARK    3  A    between atoms: C_5  and  C_6
REMARK    4  A    between atoms: C_15  and  C_16
REMARK                            x       y       z     vdW  Elec       q    Type
REMARK                         _______ _______ _______ _____ _____    ______ ____
ROOT
ATOM      1  O   UNL     1       1.851   7.557  19.943  0.00  0.00    +0.000 OA
ATOM      2  C   UNL     1       2.507   6.715  19.335  0.00  0.00    +0.000 C 
ATOM      3  N   UNL     1       2.453   5.387  19.603  0.00  0.00    +0.000 N 
ATOM      4  N   UNL     1       3.357   7.111  18.345  0.00  0.00    +0.000 N 
ATOM      5  C   UNL     1       4.086   6.319  17.452  0.00  0.00    +0.000 A 
ATOM      6  C   UNL     1       4.833   6.957  16.476  0.00  0.00    +0.000 A 
ATOM      7  C   UNL     1       5.479   6.181  15.511  0.00  0.00    +0.000 A 
ATOM      8  C   UNL     1       5.377   4.782  15.510  0.00  0.00    +0.000 A 
ATOM      9  C   UNL     1       4.647   4.255  16.576  0.00  0.00    +0.000 A 
ATOM     10  N   UNL     1       4.012   4.975  17.531  0.00  0.00    +0.000 NA
ATOM     11  H   UNL     1       3.028   4.792  19.012  0.00  0.00    +0.000 HD
ATOM     12  H   UNL     1       3.380   8.112  18.225  0.00  0.00    +0.000 HD
ENDROOT
BRANCH   8  13
ATOM     13  C   UNL     1       6.015   3.881  14.381  0.00  0.00    +0.000 C 
ATOM     14  C   UNL     1       5.204   3.630  13.073  0.00  0.00    +0.000 C 
ATOM     15  C   UNL     1       6.532   3.701  12.300  0.00  0.00    +0.000 C 
ATOM     16  C   UNL     1       7.092   4.535  13.464  0.00  0.00    +0.000 C 
ENDBRANCH   8  13
BRANCH   3  17
ATOM     17  C   UNL     1       1.598   4.796  20.607  0.00  0.00    +0.000 C 
BRANCH  17  18
ATOM     18  C   UNL     1       2.190   3.520  21.213  0.00  0.00    +0.000 C 
BRANCH  18  19
ATOM     19  C   UNL     1       2.902   2.705  20.188  0.00  0.00    +0.000 A 
ATOM     20  C   UNL     1       2.362   2.076  19.043  0.00  0.00    +0.000 A 
ATOM     21  N   UNL     1       3.291   1.451  18.315  0.00  0.00    +0.000 NA
ATOM     22  N   UNL     1       4.428   1.673  18.993  0.00  0.00    +0.000 N 
ATOM     23  C   UNL     1       4.248   2.413  20.123  0.00  0.00    +0.000 A 
ATOM     24  H   UNL     1       5.293   1.292  18.623  0.00  0.00    +0.000 HD
ENDBRANCH  18  19
ENDBRANCH  17  18
ENDBRANCH   3  17
TORSDOF 4
ENDMDL
MODEL 2
REMARK VINA RESULT:      -7.7      0.914      1.085
REMARK  Name = 
REMARK  4 active torsions:
REMARK  status: ('A' for Active; 'I' for Inactive)
REMARK    1  A    between atoms: N_3  and  C_4
REMARK    2  A    between atoms: C_4  and  C_5
REMARK    3  A    between atoms: C_5  and  C_6
REMARK    4  A    between atoms: C_15  and  C_16
REMARK                            x       y       z     vdW  Elec       q    Type
REMARK                         _______ _______ _______ _____ _____    ______ ____
ROOT
ATOM      1  O   UNL     1       1.745   7.174  20.486  0.00  0.00    +0.000 OA
ATOM      2  C   UNL     1       2.532   6.456  19.875  0.00  0.00    +0.000 C 
ATOM      3  N   UNL     1       2.850   5.196  20.264  0.00  0.00    +0.000 N 
ATOM      4  N   UNL     1       3.148   6.931  18.757  0.00  0.00    +0.000 N 
ATOM      5  C   UNL     1       3.965   6.245  17.852  0.00  0.00    +0.000 A 
ATOM      6  C   UNL     1       4.421   6.930  16.737  0.00  0.00    +0.000 A 
ATOM      7  C   UNL     1       5.146   6.230  15.770  0.00  0.00    +0.000 A 
ATOM      8  C   UNL     1       5.410   4.859  15.904  0.00  0.00    +0.000 A 
ATOM      9  C   UNL     1       4.950   4.296  17.096  0.00  0.00    +0.000 A 
ATOM     10  N   UNL     1       4.248   4.943  18.056  0.00  0.00    +0.000 NA
ATOM     11  H   UNL     1       3.497   4.697  19.659  0.00  0.00    +0.000 HD
ATOM     12  H   UNL     1       2.900   7.886  18.547  0.00  0.00    +0.000 HD
ENDROOT
BRANCH   8  13
ATOM     13  C   UNL     1       6.143   4.018  14.787  0.00  0.00    +0.000 C 
ATOM     14  C   UNL     1       5.373   3.682  13.474  0.00  0.00    +0.000 C 
ATOM     15  C   UNL     1       6.695   3.877  12.712  0.00  0.00    +0.000 C 
ATOM     16  C   UNL     1       7.159   4.769  13.875  0.00  0.00    +0.000 C 
ENDBRANCH   8  13
BRANCH   3  17
ATOM     17  C   UNL     1       2.280   4.532  21.415  0.00  0.00    +0.000 C 
BRANCH  17  18
ATOM     18  C   UNL     1       2.325   3.006  21.300  0.00  0.00    +0.000 C 
BRANCH  18  19
ATOM     19  C   UNL     1       2.042   2.551  19.909  0.00  0.00    +0.000 A 
ATOM     20  C   UNL     1       0.850   2.709  19.164  0.00  0.00    +0.000 A 
ATOM     21  N   UNL     1       0.948   2.211  17.929  0.00  0.00    +0.000 NA
ATOM     22  N   UNL     1       2.200   1.728  17.880  0.00  0.00    +0.000 N 
ATOM     23  C   UNL     1       2.893   1.902  19.040  0.00  0.00    +0.000 A 
ATOM     24  H   UNL     1       2.517   1.295  17.018  0.00  0.00    +0.000 HD
ENDBRANCH  18  19
ENDBRANCH  17  18
ENDBRANCH   3  17
TORSDOF 4
ENDMDL
MODEL 3
REMARK VINA RESULT:      -7.3      2.910      6.386
REMARK  Name = 
REMARK  4 active torsions:
REMARK  status: ('A' for Active; 'I' for Inactive)
REMARK    1  A    between atoms: N_3  and  C_4
REMARK    2  A    between atoms: C_4  and  C_5
REMARK    3  A    between atoms: C_5  and  C_6
REMARK    4  A    between atoms: C_15  and  C_16
REMARK                            x       y       z     vdW  Elec       q    Type
REMARK                         _______ _______ _______ _____ _____    ______ ____
ROOT
ATOM      1  O   UNL     1       5.132   5.415  16.413  0.00  0.00    +0.000 OA
ATOM      2  C   UNL     1       4.323   5.711  17.289  0.00  0.00    +0.000 C 
ATOM      3  N   UNL     1       4.045   4.915  18.350  0.00  0.00    +0.000 N 
ATOM      4  N   UNL     1       3.641   6.888  17.203  0.00  0.00    +0.000 N 
ATOM      5  C   UNL     1       2.786   7.471  18.144  0.00  0.00    +0.000 A 
ATOM      6  C   UNL     1       2.260   8.721  17.860  0.00  0.00    +0.000 A 
ATOM      7  C   UNL     1       1.494   9.364  18.834  0.00  0.00    +0.000 A 
ATOM      8  C   UNL     1       1.257   8.774  20.084  0.00  0.00    +0.000 A 
ATOM      9  C   UNL     1       1.789   7.492  20.228  0.00  0.00    +0.000 A 
ATOM     10  N   UNL     1       2.533   6.837  19.306  0.00  0.00    +0.000 NA
ATOM     11  H   UNL     1       3.373   5.287  19.017  0.00  0.00    +0.000 HD
ATOM     12  H   UNL     1       3.863   7.412  16.370  0.00  0.00    +0.000 HD
ENDROOT
BRANCH   8  13
ATOM     13  C   UNL     1       0.476   9.512  21.242  0.00  0.00    +0.000 C 
ATOM     14  C   UNL     1      -0.612   8.726  22.034  0.00  0.00    +0.000 C 
ATOM     15  C   UNL     1      -0.154   9.472  23.298  0.00  0.00    +0.000 C 
ATOM     16  C   UNL     1       1.205   9.675  22.609  0.00  0.00    +0.000 C 
ENDBRANCH   8  13
BRANCH   3  17
ATOM     17  C   UNL     1       4.686   3.644  18.603  0.00  0.00    +0.000 C 
BRANCH  17  18
ATOM     18  C   UNL     1       3.690   2.485  18.687  0.00  0.00    +0.000 C 
BRANCH  18  19
ATOM     19  C   UNL     1       2.717   2.676  19.800  0.00  0.00    +0.000 A 
ATOM     20  C   UNL     1       2.985   2.783  21.185  0.00  0.00    +0.000 A 
ATOM     21  N   UNL     1       1.879   2.985  21.906  0.00  0.00    +0.000 NA
ATOM     22  N   UNL     1       0.900   3.003  20.988  0.00  0.00    +0.000 N 
ATOM     23  C   UNL     1       1.348   2.817  19.715  0.00  0.00    +0.000 A 
ATOM     24  H   UNL     1      -0.054   3.151  21.303  0.00  0.00    +0.000 HD
ENDBRANCH  18  19
ENDBRANCH  17  18
ENDBRANCH   3  17
TORSDOF 4
ENDMDL
MODEL 4
REMARK VINA RESULT:      -7.2      2.749      6.245
REMARK  Name = 
REMARK  4 active torsions:
REMARK  status: ('A' for Active; 'I' for Inactive)
REMARK    1  A    between atoms: N_3  and  C_4
REMARK    2  A    between atoms: C_4  and  C_5
REMARK    3  A    between atoms: C_5  and  C_6
REMARK    4  A    between atoms: C_15  and  C_16
REMARK                            x       y       z     vdW  Elec       q    Type
REMARK                         _______ _______ _______ _____ _____    ______ ____
ROOT
ATOM      1  O   UNL     1       4.956   4.525  16.113  0.00  0.00    +0.000 OA
ATOM      2  C   UNL     1       4.223   4.829  17.050  0.00  0.00    +0.000 C 
ATOM      3  N   UNL     1       3.859   3.962  18.027  0.00  0.00    +0.000 N 
ATOM      4  N   UNL     1       3.718   6.093  17.126  0.00  0.00    +0.000 N 
ATOM      5  C   UNL     1       2.982   6.678  18.162  0.00  0.00    +0.000 A 
ATOM      6  C   UNL     1       2.638   8.014  18.042  0.00  0.00    +0.000 A 
ATOM      7  C   UNL     1       1.999   8.641  19.114  0.00  0.00    +0.000 A 
ATOM      8  C   UNL     1       1.712   7.949  20.300  0.00  0.00    +0.000 A 
ATOM      9  C   UNL     1       2.055   6.596  20.277  0.00  0.00    +0.000 A 
ATOM     10  N   UNL     1       2.670   5.954  19.256  0.00  0.00    +0.000 NA
ATOM     11  H   UNL     1       3.267   4.345  18.760  0.00  0.00    +0.000 HD
ATOM     12  H   UNL     1       3.992   6.673  16.348  0.00  0.00    +0.000 HD
ENDROOT
BRANCH   8  13
ATOM     13  C   UNL     1       1.079   8.651  21.565  0.00  0.00    +0.000 C 
ATOM     14  C   UNL     1       0.771  10.177  21.502  0.00  0.00    +0.000 C 
ATOM     15  C   UNL     1      -0.496   9.902  22.329  0.00  0.00    +0.000 C 
ATOM     16  C   UNL     1      -0.449   8.458  21.802  0.00  0.00    +0.000 C 
ENDBRANCH   8  13
BRANCH   3  17
ATOM     17  C   UNL     1       4.314   2.592  18.108  0.00  0.00    +0.000 C 
BRANCH  17  18
ATOM     18  C   UNL     1       3.203   1.623  18.521  0.00  0.00    +0.000 C 
BRANCH  18  19
ATOM     19  C   UNL     1       2.229   2.267  19.447  0.00  0.00    +0.000 A 
ATOM     20  C   UNL     1       2.411   2.608  20.808  0.00  0.00    +0.000 A 
ATOM     21  N   UNL     1       1.341   3.207  21.334  0.00  0.00    +0.000 NA
ATOM     22  N   UNL     1       0.467   3.248  20.315  0.00  0.00    +0.000 N 
ATOM     23  C   UNL     1       0.948   2.694  19.167  0.00  0.00    +0.000 A 
ATOM     24  H   UNL     1      -0.441   3.674  20.475  0.00  0.00    +0.000 HD
ENDBRANCH  18  19
ENDBRANCH  17  18
ENDBRANCH   3  17
TORSDOF 4
ENDMDL
MODEL 5
REMARK VINA RESULT:      -7.1      1.178      1.611
REMARK  Name = 
REMARK  4 active torsions:
REMARK  status: ('A' for Active; 'I' for Inactive)
REMARK    1  A    between atoms: N_3  and  C_4
REMARK    2  A    between atoms: C_4  and  C_5
REMARK    3  A    between atoms: C_5  and  C_6
REMARK    4  A    between atoms: C_15  and  C_16
REMARK                            x       y       z     vdW  Elec       q    Type
REMARK                         _______ _______ _______ _____ _____    ______ ____
ROOT
ATOM      1  O   UNL     1       1.063   6.484  21.269  0.00  0.00    +0.000 OA
ATOM      2  C   UNL     1       1.959   6.081  20.531  0.00  0.00    +0.000 C 
ATOM      3  N   UNL     1       2.548   4.867  20.664  0.00  0.00    +0.000 N 
ATOM      4  N   UNL     1       2.418   6.885  19.531  0.00  0.00    +0.000 N 
ATOM      5  C   UNL     1       3.325   6.577  18.511  0.00  0.00    +0.000 A 
ATOM      6  C   UNL     1       3.584   7.545  17.555  0.00  0.00    +0.000 A 
ATOM      7  C   UNL     1       4.402   7.217  16.472  0.00  0.00    +0.000 A 
ATOM      8  C   UNL     1       4.952   5.934  16.333  0.00  0.00    +0.000 A 
ATOM      9  C   UNL     1       4.666   5.066  17.388  0.00  0.00    +0.000 A 
ATOM     10  N   UNL     1       3.882   5.350  18.455  0.00  0.00    +0.000 NA
ATOM     11  H   UNL     1       3.262   4.644  19.975  0.00  0.00    +0.000 HD
ATOM     12  H   UNL     1       1.969   7.787  19.513  0.00  0.00    +0.000 HD
ENDROOT
BRANCH   8  13
ATOM     13  C   UNL     1       5.801   5.501  15.074  0.00  0.00    +0.000 C 
ATOM     14  C   UNL     1       7.044   4.585  15.285  0.00  0.00    +0.000 C 
ATOM     15  C   UNL     1       6.681   3.879  13.968  0.00  0.00    +0.000 C 
ATOM     16  C   UNL     1       5.234   4.352  14.187  0.00  0.00    +0.000 C 
ENDBRANCH   8  13
BRANCH   3  17
ATOM     17  C   UNL     1       2.174   3.887  21.659  0.00  0.00    +0.000 C 
BRANCH  17  18
ATOM     18  C   UNL     1       1.565   2.624  21.046  0.00  0.00    +0.000 C 
BRANCH  18  19
ATOM     19  C   UNL     1       2.068   2.387  19.663  0.00  0.00    +0.000 A 
ATOM     20  C   UNL     1       1.401   2.625  18.438  0.00  0.00    +0.000 A 
ATOM     21  N   UNL     1       2.157   2.333  17.377  0.00  0.00    +0.000 NA
ATOM     22  N   UNL     1       3.309   1.902  17.917  0.00  0.00    +0.000 N 
ATOM     23  C   UNL     1       3.304   1.911  19.280  0.00  0.00    +0.000 A 
ATOM     24  H   UNL     1       4.059   1.622  17.294  0.00  0.00    +0.000 HD
ENDBRANCH  18  19
ENDBRANCH  17  18
ENDBRANCH   3  17
TORSDOF 4
ENDMDL
MODEL 6
REMARK VINA RESULT:      -7.1      3.616      7.080
REMARK  Name = 
REMARK  4 active torsions:
REMARK  status: ('A' for Active; 'I' for Inactive)
REMARK    1  A    between atoms: N_3  and  C_4
REMARK    2  A    between atoms: C_4  and  C_5
REMARK    3  A    between atoms: C_5  and  C_6
REMARK    4  A    between atoms: C_15  and  C_16
REMARK                            x       y       z     vdW  Elec       q    Type
REMARK                         _______ _______ _______ _____ _____    ______ ____
ROOT
ATOM      1  O   UNL     1       3.903   4.307  19.541  0.00  0.00    +0.000 OA
ATOM      2  C   UNL     1       3.525   5.407  19.147  0.00  0.00    +0.000 C 
ATOM      3  N   UNL     1       3.785   5.887  17.906  0.00  0.00    +0.000 N 
ATOM      4  N   UNL     1       2.823   6.217  19.989  0.00  0.00    +0.000 N 
ATOM      5  C   UNL     1       2.195   7.435  19.706  0.00  0.00    +0.000 A 
ATOM      6  C   UNL     1       1.472   8.045  20.717  0.00  0.00    +0.000 A 
ATOM      7  C   UNL     1       0.750   9.203  20.421  0.00  0.00    +0.000 A 
ATOM      8  C   UNL     1       0.739   9.747  19.128  0.00  0.00    +0.000 A 
ATOM      9  C   UNL     1       1.551   9.077  18.213  0.00  0.00    +0.000 A 
ATOM     10  N   UNL     1       2.267   7.956  18.464  0.00  0.00    +0.000 NA
ATOM     11  H   UNL     1       3.396   6.803  17.696  0.00  0.00    +0.000 HD
ATOM     12  H   UNL     1       2.701   5.819  20.907  0.00  0.00    +0.000 HD
ENDROOT
BRANCH   8  13
ATOM     13  C   UNL     1      -0.142  10.999  18.737  0.00  0.00    +0.000 C 
ATOM     14  C   UNL     1      -1.594  10.763  18.221  0.00  0.00    +0.000 C 
ATOM     15  C   UNL     1      -2.013  12.031  18.985  0.00  0.00    +0.000 C 
ATOM     16  C   UNL     1      -0.796  11.806  19.897  0.00  0.00    +0.000 C 
ENDBRANCH   8  13
BRANCH   3  17
ATOM     17  C   UNL     1       4.501   5.156  16.885  0.00  0.00    +0.000 C 
BRANCH  17  18
ATOM     18  C   UNL     1       5.770   5.876  16.421  0.00  0.00    +0.000 C 
BRANCH  18  19
ATOM     19  C   UNL     1       6.761   6.011  17.526  0.00  0.00    +0.000 A 
ATOM     20  C   UNL     1       7.206   5.015  18.426  0.00  0.00    +0.000 A 
ATOM     21  N   UNL     1       8.131   5.468  19.276  0.00  0.00    +0.000 NA
ATOM     22  N   UNL     1       8.278   6.756  18.927  0.00  0.00    +0.000 N 
ATOM     23  C   UNL     1       7.478   7.131  17.890  0.00  0.00    +0.000 A 
ATOM     24  H   UNL     1       8.949   7.321  19.439  0.00  0.00    +0.000 HD
ENDBRANCH  18  19
ENDBRANCH  17  18
ENDBRANCH   3  17
TORSDOF 4
ENDMDL
MODEL 7
REMARK VINA RESULT:      -7.0      3.782      6.222
REMARK  Name = 
REMARK  4 active torsions:
REMARK  status: ('A' for Active; 'I' for Inactive)
REMARK    1  A    between atoms: N_3  and  C_4
REMARK    2  A    between atoms: C_4  and  C_5
REMARK    3  A    between atoms: C_5  and  C_6
REMARK    4  A    between atoms: C_15  and  C_16
REMARK                            x       y       z     vdW  Elec       q    Type
REMARK                         _______ _______ _______ _____ _____    ______ ____
ROOT
ATOM      1  O   UNL     1       0.772   8.682  22.058  0.00  0.00    +0.000 OA
ATOM      2  C   UNL     1       1.244   8.309  20.987  0.00  0.00    +0.000 C 
ATOM      3  N   UNL     1       1.303   9.093  19.883  0.00  0.00    +0.000 N 
ATOM      4  N   UNL     1       1.722   7.038  20.870  0.00  0.00    +0.000 N 
ATOM      5  C   UNL     1       2.411   6.461  19.798  0.00  0.00    +0.000 A 
ATOM      6  C   UNL     1       2.867   5.160  19.941  0.00  0.00    +0.000 A 
ATOM      7  C   UNL     1       3.649   4.608  18.924  0.00  0.00    +0.000 A 
ATOM      8  C   UNL     1       3.983   5.344  17.777  0.00  0.00    +0.000 A 
ATOM      9  C   UNL     1       3.418   6.618  17.723  0.00  0.00    +0.000 A 
ATOM     10  N   UNL     1       2.653   7.185  18.686  0.00  0.00    +0.000 NA
ATOM     11  H   UNL     1       1.739   8.673  19.065  0.00  0.00    +0.000 HD
ATOM     12  H   UNL     1       1.610   6.496  21.713  0.00  0.00    +0.000 HD
ENDROOT
BRANCH   8  13
ATOM     13  C   UNL     1       4.943   4.784  16.655  0.00  0.00    +0.000 C 
ATOM     14  C   UNL     1       5.469   5.762  15.560  0.00  0.00    +0.000 C 
ATOM     15  C   UNL     1       6.808   5.007  15.606  0.00  0.00    +0.000 C 
ATOM     16  C   UNL     1       6.439   4.567  17.033  0.00  0.00    +0.000 C 
ENDBRANCH   8  13
BRANCH   3  17
ATOM     17  C   UNL     1       0.856  10.467  19.836  0.00  0.00    +0.000 C 
BRANCH  17  18
ATOM     18  C   UNL     1      -0.668  10.596  19.909  0.00  0.00    +0.000 C 
BRANCH  18  19
ATOM     19  C   UNL     1      -1.259  10.895  18.573  0.00  0.00    +0.000 A 
ATOM     20  C   UNL     1      -1.762   9.982  17.617  0.00  0.00    +0.000 A 
ATOM     21  N   UNL     1      -2.253  10.592  16.536  0.00  0.00    +0.000 NA
ATOM     22  N   UNL     1      -2.062  11.897  16.792  0.00  0.00    +0.000 N 
ATOM     23  C   UNL     1      -1.466  12.129  17.996  0.00  0.00    +0.000 A 
ATOM     24  H   UNL     1      -2.368  12.575  16.101  0.00  0.00    +0.000 HD
ENDBRANCH  18  19
ENDBRANCH  17  18
ENDBRANCH   3  17
TORSDOF 4
ENDMDL
MODEL 8
REMARK VINA RESULT:      -7.0      3.276      6.720
REMARK  Name = 
REMARK  4 active torsions:
REMARK  status: ('A' for Active; 'I' for Inactive)
REMARK    1  A    between atoms: N_3  and  C_4
REMARK    2  A    between atoms: C_4  and  C_5
REMARK    3  A    between atoms: C_5  and  C_6
REMARK    4  A    between atoms: C_15  and  C_16
REMARK                            x       y       z     vdW  Elec       q    Type
REMARK                         _______ _______ _______ _____ _____    ______ ____
ROOT
ATOM      1  O   UNL     1       2.886   3.705  20.760  0.00  0.00    +0.000 OA
ATOM      2  C   UNL     1       2.873   4.802  20.208  0.00  0.00    +0.000 C 
ATOM      3  N   UNL     1       3.519   5.062  19.045  0.00  0.00    +0.000 N 
ATOM      4  N   UNL     1       2.198   5.836  20.785  0.00  0.00    +0.000 N 
ATOM      5  C   UNL     1       1.950   7.112  20.268  0.00  0.00    +0.000 A 
ATOM      6  C   UNL     1       1.169   7.978  21.017  0.00  0.00    +0.000 A 
ATOM      7  C   UNL     1       0.822   9.213  20.467  0.00  0.00    +0.000 A 
ATOM      8  C   UNL     1       1.238   9.584  19.180  0.00  0.00    +0.000 A 
ATOM      9  C   UNL     1       2.066   8.654  18.551  0.00  0.00    +0.000 A 
ATOM     10  N   UNL     1       2.427   7.450  19.053  0.00  0.00    +0.000 NA
ATOM     11  H   UNL     1       3.410   6.005  18.680  0.00  0.00    +0.000 HD
ATOM     12  H   UNL     1       1.777   5.588  21.667  0.00  0.00    +0.000 HD
ENDROOT
BRANCH   8  13
ATOM     13  C   UNL     1       0.784  10.931  18.492  0.00  0.00    +0.000 C 
ATOM     14  C   UNL     1      -0.242  11.843  19.231  0.00  0.00    +0.000 C 
ATOM     15  C   UNL     1       0.532  13.059  18.693  0.00  0.00    +0.000 C 
ATOM     16  C   UNL     1       1.761  12.143  18.573  0.00  0.00    +0.000 C 
ENDBRANCH   8  13
BRANCH   3  17
ATOM     17  C   UNL     1       4.267   4.079  18.293  0.00  0.00    +0.000 C 
BRANCH  17  18
ATOM     18  C   UNL     1       4.261   4.355  16.787  0.00  0.00    +0.000 C 
BRANCH  18  19
ATOM     19  C   UNL     1       5.556   4.933  16.329  0.00  0.00    +0.000 A 
ATOM     20  C   UNL     1       6.250   6.047  16.857  0.00  0.00    +0.000 A 
ATOM     21  N   UNL     1       7.406   6.275  16.228  0.00  0.00    +0.000 NA
ATOM     22  N   UNL     1       7.454   5.313  15.293  0.00  0.00    +0.000 N 
ATOM     23  C   UNL     1       6.369   4.489  15.308  0.00  0.00    +0.000 A 
ATOM     24  H   UNL     1       8.262   5.276  14.679  0.00  0.00    +0.000 HD
ENDBRANCH  18  19
ENDBRANCH  17  18
ENDBRANCH   3  17
TORSDOF 4
ENDMDL
MODEL 9
REMARK VINA RESULT:      -6.9      3.612      6.969
REMARK  Name = 
REMARK  4 active torsions:
REMARK  status: ('A' for Active; 'I' for Inactive)
REMARK    1  A    between atoms: N_3  and  C_4
REMARK    2  A    between atoms: C_4  and  C_5
REMARK    3  A    between atoms: C_5  and  C_6
REMARK    4  A    between atoms: C_15  and  C_16
REMARK                            x       y       z     vdW  Elec       q    Type
REMARK                         _______ _______ _______ _____ _____    ______ ____
ROOT
ATOM      1  O   UNL     1       2.697   4.143  20.577  0.00  0.00    +0.000 OA
ATOM      2  C   UNL     1       2.577   5.258  20.075  0.00  0.00    +0.000 C 
ATOM      3  N   UNL     1       2.920   5.542  18.794  0.00  0.00    +0.000 N 
ATOM      4  N   UNL     1       2.095   6.286  20.828  0.00  0.00    +0.000 N 
ATOM      5  C   UNL     1       1.759   7.582  20.422  0.00  0.00    +0.000 A 
ATOM      6  C   UNL     1       1.213   8.439  21.364  0.00  0.00    +0.000 A 
ATOM      7  C   UNL     1       0.772   9.698  20.950  0.00  0.00    +0.000 A 
ATOM      8  C   UNL     1       0.866  10.101  19.610  0.00  0.00    +0.000 A 
ATOM      9  C   UNL     1       1.486   9.175  18.770  0.00  0.00    +0.000 A 
ATOM     10  N   UNL     1       1.929   7.949  19.136  0.00  0.00    +0.000 NA
ATOM     11  H   UNL     1       2.749   6.498  18.492  0.00  0.00    +0.000 HD
ATOM     12  H   UNL     1       1.899   6.018  21.780  0.00  0.00    +0.000 HD
ENDROOT
BRANCH   8  13
ATOM     13  C   UNL     1       0.291  11.477  19.091  0.00  0.00    +0.000 C 
ATOM     14  C   UNL     1      -1.105  11.495  18.397  0.00  0.00    +0.000 C 
ATOM     15  C   UNL     1      -1.369  12.846  19.083  0.00  0.00    +0.000 C 
ATOM     16  C   UNL     1      -0.337  12.436  20.147  0.00  0.00    +0.000 C 
ENDBRANCH   8  13
BRANCH   3  17
ATOM     17  C   UNL     1       3.432   4.569  17.855  0.00  0.00    +0.000 C 
BRANCH  17  18
ATOM     18  C   UNL     1       4.400   5.179  16.838  0.00  0.00    +0.000 C 
BRANCH  18  19
ATOM     19  C   UNL     1       5.815   4.824  17.144  0.00  0.00    +0.000 A 
ATOM     20  C   UNL     1       6.857   4.527  16.236  0.00  0.00    +0.000 A 
ATOM     21  N   UNL     1       8.018   4.284  16.849  0.00  0.00    +0.000 NA
ATOM     22  N   UNL     1       7.723   4.418  18.152  0.00  0.00    +0.000 N 
ATOM     23  C   UNL     1       6.418   4.736  18.381  0.00  0.00    +0.000 A 
ATOM     24  H   UNL     1       8.465   4.283  18.831  0.00  0.00    +0.000 HD
ENDBRANCH  18  19
ENDBRANCH  17  18
ENDBRANCH   3  17
TORSDOF 4
ENDMDL
