MODEL 1
REMARK VINA RESULT:      -7.1      0.000      0.000
REMARK  Name = 
REMARK  3 active torsions:
REMARK  status: ('A' for Active; 'I' for Inactive)
REMARK    1  A    between atoms: N_3  and  C_4
REMARK    2  A    between atoms: C_4  and  C_5
REMARK    3  A    between atoms: C_5  and  C_6
REMARK                            x       y       z     vdW  Elec       q    Type
REMARK                         _______ _______ _______ _____ _____    ______ ____
ROOT
ATOM      1  N   UNL     1       2.041   9.171  17.650  0.00  0.00    +0.000 N 
ATOM      2  C   UNL     1       1.992   8.481  18.827  0.00  0.00    +0.000 C 
ATOM      3  N   UNL     1       2.593   7.399  19.086  0.00  0.00    +0.000 NA
ATOM      4  N   UNL     1       1.220   9.109  19.780  0.00  0.00    +0.000 N 
ATOM      5  C   UNL     1       0.042   9.954  19.461  0.00  0.00    +0.000 C 
ATOM      6  C   UNL     1      -0.161  10.984  20.585  0.00  0.00    +0.000 C 
ATOM      7  O   UNL     1      -0.330  10.354  21.865  0.00  0.00    +0.000 OA
ATOM      8  C   UNL     1       0.807   9.529  22.172  0.00  0.00    +0.000 C 
ATOM      9  C   UNL     1       1.018   8.459  21.097  0.00  0.00    +0.000 C 
ATOM     10  H   UNL     1       2.783   8.861  17.033  0.00  0.00    +0.000 HD
ATOM     11  H   UNL     1       2.104  10.170  17.802  0.00  0.00    +0.000 HD
ENDROOT
BRANCH   3  12
ATOM     12  C   UNL     1       3.405   6.656  18.117  0.00  0.00    +0.000 C 
BRANCH  12  13
ATOM     13  C   UNL     1       3.813   5.316  18.762  0.00  0.00    +0.000 C 
ATOM     14  C   UNL     1       4.742   4.344  18.033  0.00  0.00    +0.000 C 
ATOM     15  C   UNL     1       5.276   5.185  19.151  0.00  0.00    +0.000 C 
BRANCH  13  16
ATOM     16  C   UNL     1       2.646   4.696  19.530  0.00  0.00    +0.000 A 
ATOM     17  C   UNL     1       2.754   4.557  20.927  0.00  0.00    +0.000 A 
ATOM     18  C   UNL     1       2.025   3.591  21.623  0.00  0.00    +0.000 A 
ATOM     19  C   UNL     1       1.182   2.734  20.925  0.00  0.00    +0.000 A 
ATOM     20  C   UNL     1       0.942   2.957  19.572  0.00  0.00    +0.000 A 
ATOM     21  C   UNL     1       1.609   3.988  18.901  0.00  0.00    +0.000 A 
ATOM     22 CL   UNL     1       1.125   4.343  17.282  0.00  0.00    +0.000 Cl
ENDBRANCH  13  16
ENDBRANCH  12  13
ENDBRANCH   3  12
TORSDOF 3
ENDMDL
MODEL 2
REMARK VINA RESULT:      -7.0      3.791      6.039
REMARK  Name = 
REMARK  3 active torsions:
REMARK  status: ('A' for Active; 'I' for Inactive)
REMARK    1  A    between atoms: N_3  and  C_4
REMARK    2  A    between atoms: C_4  and  C_5
REMARK    3  A    between atoms: C_5  and  C_6
REMARK                            x       y       z     vdW  Elec       q    Type
REMARK                         _______ _______ _______ _____ _____    ______ ____
ROOT
ATOM      1  N   UNL     1       6.686   6.603  17.665  0.00  0.00    +0.000 N 
ATOM      2  C   UNL     1       5.780   5.655  17.282  0.00  0.00    +0.000 C 
ATOM      3  N   UNL     1       4.756   5.294  17.929  0.00  0.00    +0.000 NA
ATOM      4  N   UNL     1       6.066   5.115  16.047  0.00  0.00    +0.000 N 
ATOM      5  C   UNL     1       7.442   4.968  15.509  0.00  0.00    +0.000 C 
ATOM      6  C   UNL     1       7.388   4.983  13.972  0.00  0.00    +0.000 C 
ATOM      7  O   UNL     1       6.537   3.948  13.455  0.00  0.00    +0.000 OA
ATOM      8  C   UNL     1       5.205   4.084  13.982  0.00  0.00    +0.000 C 
ATOM      9  C   UNL     1       5.210   4.029  15.512  0.00  0.00    +0.000 C 
ATOM     10  H   UNL     1       6.366   7.174  18.438  0.00  0.00    +0.000 HD
ATOM     11  H   UNL     1       6.969   7.188  16.888  0.00  0.00    +0.000 HD
ENDROOT
BRANCH   3  12
ATOM     12  C   UNL     1       4.404   5.799  19.260  0.00  0.00    +0.000 C 
BRANCH  12  13
ATOM     13  C   UNL     1       2.889   6.089  19.276  0.00  0.00    +0.000 C 
ATOM     14  C   UNL     1       2.357   7.471  19.656  0.00  0.00    +0.000 C 
ATOM     15  C   UNL     1       2.388   7.057  18.217  0.00  0.00    +0.000 C 
BRANCH  13  16
ATOM     16  C   UNL     1       2.103   4.889  19.804  0.00  0.00    +0.000 A 
ATOM     17  C   UNL     1       2.132   4.616  21.185  0.00  0.00    +0.000 A 
ATOM     18  C   UNL     1       1.902   3.331  21.680  0.00  0.00    +0.000 A 
ATOM     19  C   UNL     1       1.651   2.290  20.794  0.00  0.00    +0.000 A 
ATOM     20  C   UNL     1       1.462   2.567  19.442  0.00  0.00    +0.000 A 
ATOM     21  C   UNL     1       1.605   3.876  18.967  0.00  0.00    +0.000 A 
ATOM     22 CL   UNL     1       1.166   4.193  17.329  0.00  0.00    +0.000 Cl
ENDBRANCH  13  16
ENDBRANCH  12  13
ENDBRANCH   3  12
TORSDOF 3
ENDMDL
MODEL 3
REMARK VINA RESULT:      -6.9      2.275      4.174
REMARK  Name = 
REMARK  3 active torsions:
REMARK  status: ('A' for Active; 'I' for Inactive)
REMARK    1  A    between atoms: N_3  and  C_4
REMARK    2  A    between atoms: C_4  and  C_5
REMARK    3  A    between atoms: C_5  and  C_6
REMARK                            x       y       z     vdW  Elec       q    Type
REMARK                         _______ _______ _______ _____ _____    ______ ____
ROOT
ATOM      1  N   UNL     1       1.790   6.537  21.225  0.00  0.00    +0.000 N 
ATOM      2  C   UNL     1       2.213   7.049  20.032  0.00  0.00    +0.000 C 
ATOM      3  N   UNL     1       3.077   6.540  19.263  0.00  0.00    +0.000 NA
ATOM      4  N   UNL     1       1.562   8.216  19.694  0.00  0.00    +0.000 N 
ATOM      5  C   UNL     1       1.049   9.193  20.688  0.00  0.00    +0.000 C 
ATOM      6  C   UNL     1      -0.134   9.962  20.077  0.00  0.00    +0.000 C 
ATOM      7  O   UNL     1       0.234  10.633  18.861  0.00  0.00    +0.000 OA
ATOM      8  C   UNL     1       0.738   9.689  17.900  0.00  0.00    +0.000 C 
ATOM      9  C   UNL     1       1.948   8.931  18.454  0.00  0.00    +0.000 C 
ATOM     10  H   UNL     1       2.071   5.574  21.370  0.00  0.00    +0.000 HD
ATOM     11  H   UNL     1       0.788   6.632  21.341  0.00  0.00    +0.000 HD
ENDROOT
BRANCH   3  12
ATOM     12  C   UNL     1       3.833   5.321  19.568  0.00  0.00    +0.000 C 
BRANCH  12  13
ATOM     13  C   UNL     1       4.443   4.795  18.252  0.00  0.00    +0.000 C 
ATOM     14  C   UNL     1       4.266   3.335  17.832  0.00  0.00    +0.000 C 
ATOM     15  C   UNL     1       3.450   4.403  17.171  0.00  0.00    +0.000 C 
BRANCH  13  16
ATOM     16  C   UNL     1       5.815   5.416  17.993  0.00  0.00    +0.000 A 
ATOM     17  C   UNL     1       6.851   5.180  18.918  0.00  0.00    +0.000 A 
ATOM     18  C   UNL     1       7.922   6.064  19.055  0.00  0.00    +0.000 A 
ATOM     19  C   UNL     1       7.968   7.212  18.274  0.00  0.00    +0.000 A 
ATOM     20  C   UNL     1       7.042   7.383  17.248  0.00  0.00    +0.000 A 
ATOM     21  C   UNL     1       6.023   6.444  17.058  0.00  0.00    +0.000 A 
ATOM     22 CL   UNL     1       5.031   6.601  15.654  0.00  0.00    +0.000 Cl
ENDBRANCH  13  16
ENDBRANCH  12  13
ENDBRANCH   3  12
TORSDOF 3
ENDMDL
MODEL 4
REMARK VINA RESULT:      -6.8      2.383      4.396
REMARK  Name = 
REMARK  3 active torsions:
REMARK  status: ('A' for Active; 'I' for Inactive)
REMARK    1  A    between atoms: N_3  and  C_4
REMARK    2  A    between atoms: C_4  and  C_5
REMARK    3  A    between atoms: C_5  and  C_6
REMARK                            x       y       z     vdW  Elec       q    Type
REMARK                         _______ _______ _______ _____ _____    ______ ____
ROOT
ATOM      1  N   UNL     1       1.817   6.030  21.019  0.00  0.00    +0.000 N 
ATOM      2  C   UNL     1       2.320   6.521  19.847  0.00  0.00    +0.000 C 
ATOM      3  N   UNL     1       3.113   5.924  19.065  0.00  0.00    +0.000 NA
ATOM      4  N   UNL     1       1.841   7.778  19.549  0.00  0.00    +0.000 N 
ATOM      5  C   UNL     1       1.459   8.781  20.575  0.00  0.00    +0.000 C 
ATOM      6  C   UNL     1       0.401   9.729  19.986  0.00  0.00    +0.000 C 
ATOM      7  O   UNL     1       0.872  10.385  18.798  0.00  0.00    +0.000 OA
ATOM      8  C   UNL     1       1.249   9.414  17.805  0.00  0.00    +0.000 C 
ATOM      9  C   UNL     1       2.336   8.476  18.338  0.00  0.00    +0.000 C 
ATOM     10  H   UNL     1       1.960   5.033  21.130  0.00  0.00    +0.000 HD
ATOM     11  H   UNL     1       0.837   6.260  21.133  0.00  0.00    +0.000 HD
ENDROOT
BRANCH   3  12
ATOM     12  C   UNL     1       3.689   4.601  19.329  0.00  0.00    +0.000 C 
BRANCH  12  13
ATOM     13  C   UNL     1       3.815   3.856  17.984  0.00  0.00    +0.000 C 
ATOM     14  C   UNL     1       3.672   2.335  17.912  0.00  0.00    +0.000 C 
ATOM     15  C   UNL     1       2.541   3.210  17.464  0.00  0.00    +0.000 C 
BRANCH  13  16
ATOM     16  C   UNL     1       4.899   4.481  17.107  0.00  0.00    +0.000 A 
ATOM     17  C   UNL     1       4.693   4.537  15.714  0.00  0.00    +0.000 A 
ATOM     18  C   UNL     1       5.763   4.599  14.821  0.00  0.00    +0.000 A 
ATOM     19  C   UNL     1       7.064   4.592  15.308  0.00  0.00    +0.000 A 
ATOM     20  C   UNL     1       7.286   4.697  16.679  0.00  0.00    +0.000 A 
ATOM     21  C   UNL     1       6.204   4.726  17.565  0.00  0.00    +0.000 A 
ATOM     22 CL   UNL     1       6.529   5.056  19.228  0.00  0.00    +0.000 Cl
ENDBRANCH  13  16
ENDBRANCH  12  13
ENDBRANCH   3  12
TORSDOF 3
ENDMDL
MODEL 5
REMARK VINA RESULT:      -6.6      2.534      4.493
REMARK  Name = 
REMARK  3 active torsions:
REMARK  status: ('A' for Active; 'I' for Inactive)
REMARK    1  A    between atoms: N_3  and  C_4
REMARK    2  A    between atoms: C_4  and  C_5
REMARK    3  A    between atoms: C_5  and  C_6
REMARK                            x       y       z     vdW  Elec       q    Type
REMARK                         _______ _______ _______ _____ _____    ______ ____
ROOT
ATOM      1  N   UNL     1       2.232   5.353  19.624  0.00  0.00    +0.000 N 
ATOM      2  C   UNL     1       2.497   6.268  18.646  0.00  0.00    +0.000 C 
ATOM      3  N   UNL     1       3.095   6.046  17.555  0.00  0.00    +0.000 NA
ATOM      4  N   UNL     1       2.003   7.520  18.942  0.00  0.00    +0.000 N 
ATOM      5  C   UNL     1       1.869   8.049  20.323  0.00  0.00    +0.000 C 
ATOM      6  C   UNL     1       0.741   9.093  20.357  0.00  0.00    +0.000 C 
ATOM      7  O   UNL     1       0.975  10.167  19.432  0.00  0.00    +0.000 OA
ATOM      8  C   UNL     1       1.113   9.655  18.095  0.00  0.00    +0.000 C 
ATOM      9  C   UNL     1       2.259   8.643  18.007  0.00  0.00    +0.000 C 
ATOM     10  H   UNL     1       2.366   4.394  19.323  0.00  0.00    +0.000 HD
ATOM     11  H   UNL     1       1.303   5.473  20.010  0.00  0.00    +0.000 HD
ENDROOT
BRANCH   3  12
ATOM     12  C   UNL     1       3.675   4.751  17.183  0.00  0.00    +0.000 C 
BRANCH  12  13
ATOM     13  C   UNL     1       5.080   5.006  16.599  0.00  0.00    +0.000 C 
ATOM     14  C   UNL     1       5.809   3.920  15.806  0.00  0.00    +0.000 C 
ATOM     15  C   UNL     1       5.166   5.063  15.082  0.00  0.00    +0.000 C 
BRANCH  13  16
ATOM     16  C   UNL     1       5.932   5.841  17.553  0.00  0.00    +0.000 A 
ATOM     17  C   UNL     1       6.504   7.038  17.079  0.00  0.00    +0.000 A 
ATOM     18  C   UNL     1       7.653   7.576  17.659  0.00  0.00    +0.000 A 
ATOM     19  C   UNL     1       8.260   6.916  18.721  0.00  0.00    +0.000 A 
ATOM     20  C   UNL     1       7.624   5.822  19.304  0.00  0.00    +0.000 A 
ATOM     21  C   UNL     1       6.423   5.343  18.772  0.00  0.00    +0.000 A 
ATOM     22 CL   UNL     1       5.582   4.118  19.651  0.00  0.00    +0.000 Cl
ENDBRANCH  13  16
ENDBRANCH  12  13
ENDBRANCH   3  12
TORSDOF 3
ENDMDL
MODEL 6
REMARK VINA RESULT:      -6.6      3.768      5.626
REMARK  Name = 
REMARK  3 active torsions:
REMARK  status: ('A' for Active; 'I' for Inactive)
REMARK    1  A    between atoms: N_3  and  C_4
REMARK    2  A    between atoms: C_4  and  C_5
REMARK    3  A    between atoms: C_5  and  C_6
REMARK                            x       y       z     vdW  Elec       q    Type
REMARK                         _______ _______ _______ _____ _____    ______ ____
ROOT
ATOM      1  N   UNL     1       4.745   4.618  15.982  0.00  0.00    +0.000 N 
ATOM      2  C   UNL     1       5.011   4.480  17.314  0.00  0.00    +0.000 C 
ATOM      3  N   UNL     1       4.466   3.658  18.105  0.00  0.00    +0.000 NA
ATOM      4  N   UNL     1       6.003   5.332  17.749  0.00  0.00    +0.000 N 
ATOM      5  C   UNL     1       6.258   6.671  17.161  0.00  0.00    +0.000 C 
ATOM      6  C   UNL     1       7.735   7.043  17.372  0.00  0.00    +0.000 C 
ATOM      7  O   UNL     1       8.097   7.032  18.762  0.00  0.00    +0.000 OA
ATOM      8  C   UNL     1       7.843   5.737  19.335  0.00  0.00    +0.000 C 
ATOM      9  C   UNL     1       6.370   5.347  19.186  0.00  0.00    +0.000 C 
ATOM     10  H   UNL     1       4.207   3.850  15.598  0.00  0.00    +0.000 HD
ATOM     11  H   UNL     1       5.590   4.759  15.442  0.00  0.00    +0.000 HD
ENDROOT
BRANCH   3  12
ATOM     12  C   UNL     1       3.384   2.744  17.724  0.00  0.00    +0.000 C 
BRANCH  12  13
ATOM     13  C   UNL     1       2.197   2.983  18.680  0.00  0.00    +0.000 C 
ATOM     14  C   UNL     1       0.954   2.093  18.628  0.00  0.00    +0.000 C 
ATOM     15  C   UNL     1       1.959   1.904  19.724  0.00  0.00    +0.000 C 
BRANCH  13  16
ATOM     16  C   UNL     1       1.956   4.476  18.897  0.00  0.00    +0.000 A 
ATOM     17  C   UNL     1       1.717   5.294  17.775  0.00  0.00    +0.000 A 
ATOM     18  C   UNL     1       1.989   6.662  17.799  0.00  0.00    +0.000 A 
ATOM     19  C   UNL     1       2.520   7.236  18.947  0.00  0.00    +0.000 A 
ATOM     20  C   UNL     1       2.615   6.481  20.113  0.00  0.00    +0.000 A 
ATOM     21  C   UNL     1       2.254   5.129  20.105  0.00  0.00    +0.000 A 
ATOM     22 CL   UNL     1       2.202   4.298  21.617  0.00  0.00    +0.000 Cl
ENDBRANCH  13  16
ENDBRANCH  12  13
ENDBRANCH   3  12
TORSDOF 3
ENDMDL
MODEL 7
REMARK VINA RESULT:      -6.5      2.299      4.185
REMARK  Name = 
REMARK  3 active torsions:
REMARK  status: ('A' for Active; 'I' for Inactive)
REMARK    1  A    between atoms: N_3  and  C_4
REMARK    2  A    between atoms: C_4  and  C_5
REMARK    3  A    between atoms: C_5  and  C_6
REMARK                            x       y       z     vdW  Elec       q    Type
REMARK                         _______ _______ _______ _____ _____    ______ ____
ROOT
ATOM      1  N   UNL     1       1.798   7.346  21.253  0.00  0.00    +0.000 N 
ATOM      2  C   UNL     1       1.966   7.675  19.938  0.00  0.00    +0.000 C 
ATOM      3  N   UNL     1       2.693   7.068  19.102  0.00  0.00    +0.000 NA
ATOM      4  N   UNL     1       1.212   8.766  19.563  0.00  0.00    +0.000 N 
ATOM      5  C   UNL     1       0.852   9.876  20.481  0.00  0.00    +0.000 C 
ATOM      6  C   UNL     1      -0.457  10.524  20.002  0.00  0.00    +0.000 C 
ATOM      7  O   UNL     1      -0.355  11.006  18.653  0.00  0.00    +0.000 OA
ATOM      8  C   UNL     1       0.002   9.933  17.763  0.00  0.00    +0.000 C 
ATOM      9  C   UNL     1       1.327   9.288  18.180  0.00  0.00    +0.000 C 
ATOM     10  H   UNL     1       2.144   6.421  21.482  0.00  0.00    +0.000 HD
ATOM     11  H   UNL     1       0.832   7.442  21.544  0.00  0.00    +0.000 HD
ENDROOT
BRANCH   3  12
ATOM     12  C   UNL     1       3.546   5.922  19.432  0.00  0.00    +0.000 C 
BRANCH  12  13
ATOM     13  C   UNL     1       3.607   4.998  18.198  0.00  0.00    +0.000 C 
ATOM     14  C   UNL     1       3.151   3.541  18.284  0.00  0.00    +0.000 C 
ATOM     15  C   UNL     1       2.267   4.559  17.632  0.00  0.00    +0.000 C 
BRANCH  13  16
ATOM     16  C   UNL     1       4.859   5.272  17.365  0.00  0.00    +0.000 A 
ATOM     17  C   UNL     1       4.723   5.429  15.972  0.00  0.00    +0.000 A 
ATOM     18  C   UNL     1       5.785   5.175  15.103  0.00  0.00    +0.000 A 
ATOM     19  C   UNL     1       7.002   4.743  15.615  0.00  0.00    +0.000 A 
ATOM     20  C   UNL     1       7.204   4.734  16.993  0.00  0.00    +0.000 A 
ATOM     21  C   UNL     1       6.160   5.079  17.858  0.00  0.00    +0.000 A 
ATOM     22 CL   UNL     1       6.523   5.242  19.537  0.00  0.00    +0.000 Cl
ENDBRANCH  13  16
ENDBRANCH  12  13
ENDBRANCH   3  12
TORSDOF 3
ENDMDL
MODEL 8
REMARK VINA RESULT:      -6.5      1.320      1.722
REMARK  Name = 
REMARK  3 active torsions:
REMARK  status: ('A' for Active; 'I' for Inactive)
REMARK    1  A    between atoms: N_3  and  C_4
REMARK    2  A    between atoms: C_4  and  C_5
REMARK    3  A    between atoms: C_5  and  C_6
REMARK                            x       y       z     vdW  Elec       q    Type
REMARK                         _______ _______ _______ _____ _____    ______ ____
ROOT
ATOM      1  N   UNL     1       2.209   8.867  17.603  0.00  0.00    +0.000 N 
ATOM      2  C   UNL     1       2.132   8.133  18.752  0.00  0.00    +0.000 C 
ATOM      3  N   UNL     1       2.592   6.969  18.929  0.00  0.00    +0.000 NA
ATOM      4  N   UNL     1       1.506   8.811  19.775  0.00  0.00    +0.000 N 
ATOM      5  C   UNL     1       0.438   9.821  19.565  0.00  0.00    +0.000 C 
ATOM      6  C   UNL     1       0.440  10.812  20.740  0.00  0.00    +0.000 C 
ATOM      7  O   UNL     1       0.257  10.149  22.001  0.00  0.00    +0.000 OA
ATOM      8  C   UNL     1       1.287   9.165  22.203  0.00  0.00    +0.000 C 
ATOM      9  C   UNL     1       1.290   8.130  21.075  0.00  0.00    +0.000 C 
ATOM     10  H   UNL     1       2.867   8.491  16.930  0.00  0.00    +0.000 HD
ATOM     11  H   UNL     1       2.416   9.840  17.792  0.00  0.00    +0.000 HD
ENDROOT
BRANCH   3  12
ATOM     12  C   UNL     1       3.241   6.173  17.882  0.00  0.00    +0.000 C 
BRANCH  12  13
ATOM     13  C   UNL     1       4.024   5.032  18.564  0.00  0.00    +0.000 C 
ATOM     14  C   UNL     1       5.461   4.709  18.153  0.00  0.00    +0.000 C 
ATOM     15  C   UNL     1       5.202   5.458  19.424  0.00  0.00    +0.000 C 
BRANCH  13  16
ATOM     16  C   UNL     1       3.115   3.839  18.858  0.00  0.00    +0.000 A 
ATOM     17  C   UNL     1       2.972   2.839  17.876  0.00  0.00    +0.000 A 
ATOM     18  C   UNL     1       1.839   2.027  17.822  0.00  0.00    +0.000 A 
ATOM     19  C   UNL     1       0.818   2.211  18.747  0.00  0.00    +0.000 A 
ATOM     20  C   UNL     1       1.009   3.082  19.817  0.00  0.00    +0.000 A 
ATOM     21  C   UNL     1       2.189   3.828  19.914  0.00  0.00    +0.000 A 
ATOM     22 CL   UNL     1       2.455   4.735  21.358  0.00  0.00    +0.000 Cl
ENDBRANCH  13  16
ENDBRANCH  12  13
ENDBRANCH   3  12
TORSDOF 3
ENDMDL
MODEL 9
REMARK VINA RESULT:      -6.4      3.800      5.830
REMARK  Name = 
REMARK  3 active torsions:
REMARK  status: ('A' for Active; 'I' for Inactive)
REMARK    1  A    between atoms: N_3  and  C_4
REMARK    2  A    between atoms: C_4  and  C_5
REMARK    3  A    between atoms: C_5  and  C_6
REMARK                            x       y       z     vdW  Elec       q    Type
REMARK                         _______ _______ _______ _____ _____    ______ ____
ROOT
ATOM      1  N   UNL     1       5.240   3.071  18.972  0.00  0.00    +0.000 N 
ATOM      2  C   UNL     1       4.850   3.896  17.955  0.00  0.00    +0.000 C 
ATOM      3  N   UNL     1       3.796   3.789  17.267  0.00  0.00    +0.000 NA
ATOM      4  N   UNL     1       5.730   4.936  17.749  0.00  0.00    +0.000 N 
ATOM      5  C   UNL     1       7.190   4.846  18.003  0.00  0.00    +0.000 C 
ATOM      6  C   UNL     1       7.736   6.248  18.319  0.00  0.00    +0.000 C 
ATOM      7  O   UNL     1       7.471   7.179  17.258  0.00  0.00    +0.000 OA
ATOM      8  C   UNL     1       6.057   7.262  17.005  0.00  0.00    +0.000 C 
ATOM      9  C   UNL     1       5.481   5.891  16.642  0.00  0.00    +0.000 C 
ATOM     10  H   UNL     1       4.502   2.457  19.295  0.00  0.00    +0.000 HD
ATOM     11  H   UNL     1       5.632   3.590  19.748  0.00  0.00    +0.000 HD
ENDROOT
BRANCH   3  12
ATOM     12  C   UNL     1       2.830   2.694  17.406  0.00  0.00    +0.000 C 
BRANCH  12  13
ATOM     13  C   UNL     1       1.890   3.032  18.582  0.00  0.00    +0.000 C 
ATOM     14  C   UNL     1       0.611   2.228  18.821  0.00  0.00    +0.000 C 
ATOM     15  C   UNL     1       1.811   1.991  19.686  0.00  0.00    +0.000 C 
BRANCH  13  16
ATOM     16  C   UNL     1       1.796   4.541  18.797  0.00  0.00    +0.000 A 
ATOM     17  C   UNL     1       1.560   5.370  17.682  0.00  0.00    +0.000 A 
ATOM     18  C   UNL     1       1.953   6.709  17.673  0.00  0.00    +0.000 A 
ATOM     19  C   UNL     1       2.604   7.241  18.780  0.00  0.00    +0.000 A 
ATOM     20  C   UNL     1       2.705   6.486  19.946  0.00  0.00    +0.000 A 
ATOM     21  C   UNL     1       2.226   5.172  19.976  0.00  0.00    +0.000 A 
ATOM     22 CL   UNL     1       2.195   4.358  21.498  0.00  0.00    +0.000 Cl
ENDBRANCH  13  16
ENDBRANCH  12  13
ENDBRANCH   3  12
TORSDOF 3
ENDMDL
