MODEL 1
REMARK VINA RESULT:      -6.2      0.000      0.000
REMARK  Name = 
REMARK  12 active torsions:
REMARK  status: ('A' for Active; 'I' for Inactive)
REMARK    1  A    between atoms: C_1  and  C_2
REMARK    2  A    between atoms: C_2  and  C_3
REMARK    3  A    between atoms: C_3  and  C_4
REMARK    4  A    between atoms: C_3  and  O_5
REMARK    5  A    between atoms: O_5  and  C_6
REMARK    6  A    between atoms: C_6  and  C_8
REMARK    7  A    between atoms: C_9  and  C_10
REMARK    8  A    between atoms: C_17  and  C_18
REMARK    9  A    between atoms: C_21  and  O_22
REMARK   10  A    between atoms: O_22  and  C_23
REMARK   11  A    between atoms: C_27  and  C_28
REMARK   12  A    between atoms: C_31  and  O_32
REMARK                            x       y       z     vdW  Elec       q    Type
REMARK                         _______ _______ _______ _____ _____    ______ ____
ROOT
ATOM      1  C   UNL     1       8.419  14.034  20.416  0.00  0.00    +0.000 C 
ATOM      2  C   UNL     1       8.206  15.041  19.530  0.00  0.00    +0.000 C 
ATOM      3  C   UNL     1       9.141  15.496  18.433  0.00  0.00    +0.000 C 
ATOM      4  N   UNL     1       7.018  15.758  19.572  0.00  0.00    +0.000 N 
ATOM      5  C   UNL     1       6.002  15.548  20.479  0.00  0.00    +0.000 C 
ATOM      6  C   UNL     1       6.117  14.576  21.408  0.00  0.00    +0.000 C 
ATOM      7  C   UNL     1       4.968  14.356  22.345  0.00  0.00    +0.000 C 
ATOM      8  O   UNL     1       4.881  13.359  23.057  0.00  0.00    +0.000 OA
ATOM      9  C   UNL     1       3.890  15.413  22.389  0.00  0.00    +0.000 C 
ATOM     10  C   UNL     1       3.499  15.764  20.953  0.00  0.00    +0.000 C 
ATOM     11  C   UNL     1       4.747  16.388  20.294  0.00  0.00    +0.000 C 
ATOM     12  C   UNL     1       7.347  13.664  21.465  0.00  0.00    +0.000 C 
ATOM     13  H   UNL     1       6.883  16.476  18.864  0.00  0.00    +0.000 HD
ENDROOT
BRANCH  10  14
ATOM     14  C   UNL     1       2.889  14.559  20.229  0.00  0.00    +0.000 A 
ATOM     15  C   UNL     1       1.940  13.758  20.887  0.00  0.00    +0.000 A 
ATOM     16  C   UNL     1       1.418  12.612  20.278  0.00  0.00    +0.000 A 
ATOM     17  C   UNL     1       1.808  12.254  18.990  0.00  0.00    +0.000 A 
ATOM     18  C   UNL     1       2.749  13.034  18.327  0.00  0.00    +0.000 A 
ATOM     19  C   UNL     1       3.274  14.176  18.935  0.00  0.00    +0.000 A 
BRANCH  17  20
ATOM     20  O   UNL     1       1.241  11.117  18.485  0.00  0.00    +0.000 OA
ATOM     21  C   UNL     1       1.017  10.078  19.434  0.00  0.00    +0.000 C 
ENDBRANCH  17  20
ENDBRANCH  10  14
BRANCH  12  22
ATOM     22  C   UNL     1       7.897  13.578  22.893  0.00  0.00    +0.000 A 
ATOM     23  C   UNL     1       7.990  12.314  23.509  0.00  0.00    +0.000 A 
ATOM     24  C   UNL     1       8.319  12.193  24.857  0.00  0.00    +0.000 A 
ATOM     25  C   UNL     1       8.612  13.337  25.585  0.00  0.00    +0.000 A 
ATOM     26  C   UNL     1       8.601  14.589  24.979  0.00  0.00    +0.000 A 
ATOM     27  C   UNL     1       8.231  14.716  23.638  0.00  0.00    +0.000 A 
BRANCH  25  28
ATOM     28  O   UNL     1       8.895  13.269  26.917  0.00  0.00    +0.000 OA
ATOM     29  H   UNL     1       8.174  12.787  27.352  0.00  0.00    +0.000 HD
ENDBRANCH  25  28
ENDBRANCH  12  22
BRANCH   1  30
ATOM     30  C   UNL     1       9.694  13.257  20.430  0.00  0.00    +0.000 C 
ATOM     31  O   UNL     1      10.772  13.699  20.783  0.00  0.00    +0.000 OA
BRANCH  30  32
ATOM     32  O   UNL     1       9.476  11.984  20.012  0.00  0.00    +0.000 OA
BRANCH  32  33
ATOM     33  C   UNL     1       9.579  11.750  18.587  0.00  0.00    +0.000 C 
ATOM     34  C   UNL     1       8.922  10.394  18.339  0.00  0.00    +0.000 C 
BRANCH  33  36
ATOM     35  C   UNL     1      11.357  12.834  17.099  0.00  0.00    +0.000 C 
ATOM     36  C   UNL     1      11.052  11.765  18.138  0.00  0.00    +0.000 C 
ENDBRANCH  33  36
ENDBRANCH  32  33
ENDBRANCH  30  32
ENDBRANCH   1  30
TORSDOF 8
ENDMDL
MODEL 2
REMARK VINA RESULT:      -6.1      6.751     10.539
REMARK  Name = 
REMARK  12 active torsions:
REMARK  status: ('A' for Active; 'I' for Inactive)
REMARK    1  A    between atoms: C_1  and  C_2
REMARK    2  A    between atoms: C_2  and  C_3
REMARK    3  A    between atoms: C_3  and  C_4
REMARK    4  A    between atoms: C_3  and  O_5
REMARK    5  A    between atoms: O_5  and  C_6
REMARK    6  A    between atoms: C_6  and  C_8
REMARK    7  A    between atoms: C_9  and  C_10
REMARK    8  A    between atoms: C_17  and  C_18
REMARK    9  A    between atoms: C_21  and  O_22
REMARK   10  A    between atoms: O_22  and  C_23
REMARK   11  A    between atoms: C_27  and  C_28
REMARK   12  A    between atoms: C_31  and  O_32
REMARK                            x       y       z     vdW  Elec       q    Type
REMARK                         _______ _______ _______ _____ _____    ______ ____
ROOT
ATOM      1  C   UNL     1      -1.894  13.688  21.485  0.00  0.00    +0.000 C 
ATOM      2  C   UNL     1      -2.874  13.881  22.406  0.00  0.00    +0.000 C 
ATOM      3  C   UNL     1      -2.738  14.573  23.743  0.00  0.00    +0.000 C 
ATOM      4  N   UNL     1      -4.163  13.433  22.147  0.00  0.00    +0.000 N 
ATOM      5  C   UNL     1      -4.551  12.767  21.006  0.00  0.00    +0.000 C 
ATOM      6  C   UNL     1      -3.652  12.517  20.031  0.00  0.00    +0.000 C 
ATOM      7  C   UNL     1      -4.130  11.827  18.789  0.00  0.00    +0.000 C 
ATOM      8  O   UNL     1      -3.453  11.769  17.767  0.00  0.00    +0.000 OA
ATOM      9  C   UNL     1      -5.502  11.196  18.825  0.00  0.00    +0.000 C 
ATOM     10  C   UNL     1      -6.482  12.203  19.427  0.00  0.00    +0.000 C 
ATOM     11  C   UNL     1      -6.032  12.443  20.884  0.00  0.00    +0.000 C 
ATOM     12  C   UNL     1      -2.198  12.987  20.143  0.00  0.00    +0.000 C 
ATOM     13  H   UNL     1      -4.874  13.636  22.846  0.00  0.00    +0.000 HD
ENDROOT
BRANCH  10  14
ATOM     14  C   UNL     1      -6.608  13.454  18.550  0.00  0.00    +0.000 A 
ATOM     15  C   UNL     1      -6.531  14.728  19.139  0.00  0.00    +0.000 A 
ATOM     16  C   UNL     1      -6.711  15.887  18.377  0.00  0.00    +0.000 A 
ATOM     17  C   UNL     1      -6.944  15.804  17.006  0.00  0.00    +0.000 A 
ATOM     18  C   UNL     1      -7.026  14.551  16.408  0.00  0.00    +0.000 A 
ATOM     19  C   UNL     1      -6.850  13.393  17.170  0.00  0.00    +0.000 A 
BRANCH  17  20
ATOM     20  O   UNL     1      -7.107  16.993  16.352  0.00  0.00    +0.000 OA
ATOM     21  C   UNL     1      -6.822  18.155  17.126  0.00  0.00    +0.000 C 
ENDBRANCH  17  20
ENDBRANCH  10  14
BRANCH  12  22
ATOM     22  C   UNL     1      -1.228  11.846  19.819  0.00  0.00    +0.000 A 
ATOM     23  C   UNL     1      -1.189  10.725  20.674  0.00  0.00    +0.000 A 
ATOM     24  C   UNL     1      -0.213   9.742  20.528  0.00  0.00    +0.000 A 
ATOM     25  C   UNL     1       0.699   9.847  19.487  0.00  0.00    +0.000 A 
ATOM     26  C   UNL     1       0.632  10.904  18.585  0.00  0.00    +0.000 A 
ATOM     27  C   UNL     1      -0.320  11.912  18.755  0.00  0.00    +0.000 A 
BRANCH  25  28
ATOM     28  O   UNL     1       1.697   8.931  19.333  0.00  0.00    +0.000 OA
ATOM     29  H   UNL     1       1.958   8.623  20.216  0.00  0.00    +0.000 HD
ENDBRANCH  25  28
ENDBRANCH  12  22
BRANCH   1  30
ATOM     30  C   UNL     1      -0.488  14.122  21.734  0.00  0.00    +0.000 C 
ATOM     31  O   UNL     1       0.320  13.509  22.409  0.00  0.00    +0.000 OA
BRANCH  30  32
ATOM     32  O   UNL     1      -0.230  15.286  21.085  0.00  0.00    +0.000 OA
BRANCH  32  33
ATOM     33  C   UNL     1       0.768  15.230  20.037  0.00  0.00    +0.000 C 
ATOM     34  C   UNL     1       1.899  16.151  20.489  0.00  0.00    +0.000 C 
BRANCH  33  36
ATOM     35  C   UNL     1      -0.810  16.832  18.815  0.00  0.00    +0.000 C 
ATOM     36  C   UNL     1       0.169  15.674  18.690  0.00  0.00    +0.000 C 
ENDBRANCH  33  36
ENDBRANCH  32  33
ENDBRANCH  30  32
ENDBRANCH   1  30
TORSDOF 8
ENDMDL
MODEL 3
REMARK VINA RESULT:      -6.1      7.352     10.148
REMARK  Name = 
REMARK  12 active torsions:
REMARK  status: ('A' for Active; 'I' for Inactive)
REMARK    1  A    between atoms: C_1  and  C_2
REMARK    2  A    between atoms: C_2  and  C_3
REMARK    3  A    between atoms: C_3  and  C_4
REMARK    4  A    between atoms: C_3  and  O_5
REMARK    5  A    between atoms: O_5  and  C_6
REMARK    6  A    between atoms: C_6  and  C_8
REMARK    7  A    between atoms: C_9  and  C_10
REMARK    8  A    between atoms: C_17  and  C_18
REMARK    9  A    between atoms: C_21  and  O_22
REMARK   10  A    between atoms: O_22  and  C_23
REMARK   11  A    between atoms: C_27  and  C_28
REMARK   12  A    between atoms: C_31  and  O_32
REMARK                            x       y       z     vdW  Elec       q    Type
REMARK                         _______ _______ _______ _____ _____    ______ ____
ROOT
ATOM      1  C   UNL     1      -0.456  11.303  21.779  0.00  0.00    +0.000 C 
ATOM      2  C   UNL     1      -0.814  10.675  22.929  0.00  0.00    +0.000 C 
ATOM      3  C   UNL     1      -0.073   9.553  23.618  0.00  0.00    +0.000 C 
ATOM      4  N   UNL     1      -1.964  11.068  23.601  0.00  0.00    +0.000 N 
ATOM      5  C   UNL     1      -2.821  12.063  23.182  0.00  0.00    +0.000 C 
ATOM      6  C   UNL     1      -2.560  12.744  22.046  0.00  0.00    +0.000 C 
ATOM      7  C   UNL     1      -3.498  13.846  21.654  0.00  0.00    +0.000 C 
ATOM      8  O   UNL     1      -3.222  14.664  20.781  0.00  0.00    +0.000 OA
ATOM      9  C   UNL     1      -4.820  13.930  22.379  0.00  0.00    +0.000 C 
ATOM     10  C   UNL     1      -4.555  13.807  23.881  0.00  0.00    +0.000 C 
ATOM     11  C   UNL     1      -3.976  12.395  24.114  0.00  0.00    +0.000 C 
ATOM     12  C   UNL     1      -1.306  12.462  21.214  0.00  0.00    +0.000 C 
ATOM     13  H   UNL     1      -2.171  10.599  24.479  0.00  0.00    +0.000 HD
ENDROOT
BRANCH  10  14
ATOM     14  C   UNL     1      -3.706  14.973  24.397  0.00  0.00    +0.000 A 
ATOM     15  C   UNL     1      -2.638  14.721  25.275  0.00  0.00    +0.000 A 
ATOM     16  C   UNL     1      -1.888  15.770  25.818  0.00  0.00    +0.000 A 
ATOM     17  C   UNL     1      -2.168  17.092  25.477  0.00  0.00    +0.000 A 
ATOM     18  C   UNL     1      -3.224  17.358  24.612  0.00  0.00    +0.000 A 
ATOM     19  C   UNL     1      -3.975  16.311  24.073  0.00  0.00    +0.000 A 
BRANCH  17  20
ATOM     20  O   UNL     1      -1.378  18.042  26.062  0.00  0.00    +0.000 OA
ATOM     21  C   UNL     1      -0.422  17.546  26.994  0.00  0.00    +0.000 C 
ENDBRANCH  17  20
ENDBRANCH  10  14
BRANCH  12  22
ATOM     22  C   UNL     1      -1.660  12.291  19.733  0.00  0.00    +0.000 A 
ATOM     23  C   UNL     1      -2.758  11.478  19.387  0.00  0.00    +0.000 A 
ATOM     24  C   UNL     1      -3.021  11.149  18.059  0.00  0.00    +0.000 A 
ATOM     25  C   UNL     1      -2.216  11.680  17.062  0.00  0.00    +0.000 A 
ATOM     26  C   UNL     1      -1.173  12.546  17.373  0.00  0.00    +0.000 A 
ATOM     27  C   UNL     1      -0.883  12.844  18.706  0.00  0.00    +0.000 A 
BRANCH  25  28
ATOM     28  O   UNL     1      -2.409  11.350  15.753  0.00  0.00    +0.000 OA
ATOM     29  H   UNL     1      -2.685  10.420  15.717  0.00  0.00    +0.000 HD
ENDBRANCH  25  28
ENDBRANCH  12  22
BRANCH   1  30
ATOM     30  C   UNL     1       0.753  10.893  21.005  0.00  0.00    +0.000 C 
ATOM     31  O   UNL     1       1.791  11.526  20.950  0.00  0.00    +0.000 OA
BRANCH  30  32
ATOM     32  O   UNL     1       0.537   9.704  20.386  0.00  0.00    +0.000 OA
BRANCH  32  33
ATOM     33  C   UNL     1       1.480   9.339  19.349  0.00  0.00    +0.000 C 
ATOM     34  C   UNL     1       0.739   9.528  18.027  0.00  0.00    +0.000 C 
BRANCH  33  36
ATOM     35  C   UNL     1       2.520   7.268  18.265  0.00  0.00    +0.000 C 
ATOM     36  C   UNL     1       1.960   7.888  19.536  0.00  0.00    +0.000 C 
ENDBRANCH  33  36
ENDBRANCH  32  33
ENDBRANCH  30  32
ENDBRANCH   1  30
TORSDOF 8
ENDMDL
MODEL 4
REMARK VINA RESULT:      -5.9      7.215     10.633
REMARK  Name = 
REMARK  12 active torsions:
REMARK  status: ('A' for Active; 'I' for Inactive)
REMARK    1  A    between atoms: C_1  and  C_2
REMARK    2  A    between atoms: C_2  and  C_3
REMARK    3  A    between atoms: C_3  and  C_4
REMARK    4  A    between atoms: C_3  and  O_5
REMARK    5  A    between atoms: O_5  and  C_6
REMARK    6  A    between atoms: C_6  and  C_8
REMARK    7  A    between atoms: C_9  and  C_10
REMARK    8  A    between atoms: C_17  and  C_18
REMARK    9  A    between atoms: C_21  and  O_22
REMARK   10  A    between atoms: O_22  and  C_23
REMARK   11  A    between atoms: C_27  and  C_28
REMARK   12  A    between atoms: C_31  and  O_32
REMARK                            x       y       z     vdW  Elec       q    Type
REMARK                         _______ _______ _______ _____ _____    ______ ____
ROOT
ATOM      1  C   UNL     1      -2.360  15.054  22.321  0.00  0.00    +0.000 C 
ATOM      2  C   UNL     1      -3.324  15.679  23.047  0.00  0.00    +0.000 C 
ATOM      3  C   UNL     1      -3.132  16.822  24.017  0.00  0.00    +0.000 C 
ATOM      4  N   UNL     1      -4.649  15.283  22.919  0.00  0.00    +0.000 N 
ATOM      5  C   UNL     1      -5.092  14.262  22.107  0.00  0.00    +0.000 C 
ATOM      6  C   UNL     1      -4.213  13.572  21.350  0.00  0.00    +0.000 C 
ATOM      7  C   UNL     1      -4.748  12.499  20.450  0.00  0.00    +0.000 C 
ATOM      8  O   UNL     1      -4.070  11.986  19.564  0.00  0.00    +0.000 OA
ATOM      9  C   UNL     1      -6.176  12.057  20.661  0.00  0.00    +0.000 C 
ATOM     10  C   UNL     1      -7.055  13.304  20.778  0.00  0.00    +0.000 C 
ATOM     11  C   UNL     1      -6.597  14.050  22.049  0.00  0.00    +0.000 C 
ATOM     12  C   UNL     1      -2.721  13.917  21.342  0.00  0.00    +0.000 C 
ATOM     13  H   UNL     1      -5.342  15.805  23.450  0.00  0.00    +0.000 HD
ENDROOT
BRANCH  10  14
ATOM     14  C   UNL     1      -7.044  14.120  19.480  0.00  0.00    +0.000 A 
ATOM     15  C   UNL     1      -7.328  13.487  18.258  0.00  0.00    +0.000 A 
ATOM     16  C   UNL     1      -7.258  14.189  17.050  0.00  0.00    +0.000 A 
ATOM     17  C   UNL     1      -6.931  15.543  17.036  0.00  0.00    +0.000 A 
ATOM     18  C   UNL     1      -6.644  16.183  18.236  0.00  0.00    +0.000 A 
ATOM     19  C   UNL     1      -6.710  15.482  19.443  0.00  0.00    +0.000 A 
BRANCH  17  20
ATOM     20  O   UNL     1      -6.889  16.137  15.805  0.00  0.00    +0.000 OA
ATOM     21  C   UNL     1      -7.099  17.546  15.803  0.00  0.00    +0.000 C 
ENDBRANCH  17  20
ENDBRANCH  10  14
BRANCH  12  22
ATOM     22  C   UNL     1      -1.868  12.657  21.532  0.00  0.00    +0.000 A 
ATOM     23  C   UNL     1      -2.006  11.919  22.725  0.00  0.00    +0.000 A 
ATOM     24  C   UNL     1      -1.140  10.870  23.027  0.00  0.00    +0.000 A 
ATOM     25  C   UNL     1      -0.163  10.517  22.106  0.00  0.00    +0.000 A 
ATOM     26  C   UNL     1      -0.058  11.181  20.889  0.00  0.00    +0.000 A 
ATOM     27  C   UNL     1      -0.898  12.259  20.603  0.00  0.00    +0.000 A 
BRANCH  25  28
ATOM     28  O   UNL     1       0.733   9.526  22.378  0.00  0.00    +0.000 OA
ATOM     29  H   UNL     1       0.556   8.789  21.771  0.00  0.00    +0.000 HD
ENDBRANCH  25  28
ENDBRANCH  12  22
BRANCH   1  30
ATOM     30  C   UNL     1      -0.919  15.423  22.451  0.00  0.00    +0.000 C 
ATOM     31  O   UNL     1      -0.208  15.126  23.393  0.00  0.00    +0.000 OA
BRANCH  30  32
ATOM     32  O   UNL     1      -0.510  16.118  21.359  0.00  0.00    +0.000 OA
BRANCH  32  33
ATOM     33  C   UNL     1       0.800  15.784  20.839  0.00  0.00    +0.000 C 
ATOM     34  C   UNL     1       1.670  17.017  21.077  0.00  0.00    +0.000 C 
BRANCH  33  36
ATOM     35  C   UNL     1      -0.440  16.094  18.622  0.00  0.00    +0.000 C 
ATOM     36  C   UNL     1       0.717  15.420  19.346  0.00  0.00    +0.000 C 
ENDBRANCH  33  36
ENDBRANCH  32  33
ENDBRANCH  30  32
ENDBRANCH   1  30
TORSDOF 8
ENDMDL
MODEL 5
REMARK VINA RESULT:      -5.9      0.660      1.362
REMARK  Name = 
REMARK  12 active torsions:
REMARK  status: ('A' for Active; 'I' for Inactive)
REMARK    1  A    between atoms: C_1  and  C_2
REMARK    2  A    between atoms: C_2  and  C_3
REMARK    3  A    between atoms: C_3  and  C_4
REMARK    4  A    between atoms: C_3  and  O_5
REMARK    5  A    between atoms: O_5  and  C_6
REMARK    6  A    between atoms: C_6  and  C_8
REMARK    7  A    between atoms: C_9  and  C_10
REMARK    8  A    between atoms: C_17  and  C_18
REMARK    9  A    between atoms: C_21  and  O_22
REMARK   10  A    between atoms: O_22  and  C_23
REMARK   11  A    between atoms: C_27  and  C_28
REMARK   12  A    between atoms: C_31  and  O_32
REMARK                            x       y       z     vdW  Elec       q    Type
REMARK                         _______ _______ _______ _____ _____    ______ ____
ROOT
ATOM      1  C   UNL     1       8.254  14.446  20.301  0.00  0.00    +0.000 C 
ATOM      2  C   UNL     1       7.899  15.451  19.460  0.00  0.00    +0.000 C 
ATOM      3  C   UNL     1       8.735  16.043  18.349  0.00  0.00    +0.000 C 
ATOM      4  N   UNL     1       6.641  16.031  19.570  0.00  0.00    +0.000 N 
ATOM      5  C   UNL     1       5.690  15.679  20.503  0.00  0.00    +0.000 C 
ATOM      6  C   UNL     1       5.947  14.696  21.391  0.00  0.00    +0.000 C 
ATOM      7  C   UNL     1       4.865  14.319  22.358  0.00  0.00    +0.000 C 
ATOM      8  O   UNL     1       4.916  13.296  23.035  0.00  0.00    +0.000 OA
ATOM      9  C   UNL     1       3.680  15.247  22.478  0.00  0.00    +0.000 C 
ATOM     10  C   UNL     1       3.198  15.600  21.070  0.00  0.00    +0.000 C 
ATOM     11  C   UNL     1       4.344  16.380  20.392  0.00  0.00    +0.000 C 
ATOM     12  C   UNL     1       7.270  13.925  21.372  0.00  0.00    +0.000 C 
ATOM     13  H   UNL     1       6.402  16.751  18.893  0.00  0.00    +0.000 HD
ENDROOT
BRANCH  10  14
ATOM     14  C   UNL     1       2.697  14.358  20.323  0.00  0.00    +0.000 A 
ATOM     15  C   UNL     1       3.077  14.151  18.986  0.00  0.00    +0.000 A 
ATOM     16  C   UNL     1       2.581  13.065  18.256  0.00  0.00    +0.000 A 
ATOM     17  C   UNL     1       1.718  12.147  18.851  0.00  0.00    +0.000 A 
ATOM     18  C   UNL     1       1.330  12.340  20.173  0.00  0.00    +0.000 A 
ATOM     19  C   UNL     1       1.822  13.426  20.900  0.00  0.00    +0.000 A 
BRANCH  17  20
ATOM     20  O   UNL     1       1.290  11.122  18.053  0.00  0.00    +0.000 OA
ATOM     21  C   UNL     1       2.100   9.951  18.084  0.00  0.00    +0.000 C 
ENDBRANCH  17  20
ENDBRANCH  10  14
BRANCH  12  22
ATOM     22  C   UNL     1       7.881  13.854  22.776  0.00  0.00    +0.000 A 
ATOM     23  C   UNL     1       8.101  12.589  23.356  0.00  0.00    +0.000 A 
ATOM     24  C   UNL     1       8.490  12.466  24.688  0.00  0.00    +0.000 A 
ATOM     25  C   UNL     1       8.717  13.615  25.433  0.00  0.00    +0.000 A 
ATOM     26  C   UNL     1       8.580  14.874  24.860  0.00  0.00    +0.000 A 
ATOM     27  C   UNL     1       8.149  14.999  23.537  0.00  0.00    +0.000 A 
BRANCH  25  28
ATOM     28  O   UNL     1       9.057  13.542  26.752  0.00  0.00    +0.000 OA
ATOM     29  H   UNL     1       9.993  13.784  26.832  0.00  0.00    +0.000 HD
ENDBRANCH  25  28
ENDBRANCH  12  22
BRANCH   1  30
ATOM     30  C   UNL     1       9.606  13.816  20.243  0.00  0.00    +0.000 C 
ATOM     31  O   UNL     1      10.557  14.145  20.930  0.00  0.00    +0.000 OA
BRANCH  30  32
ATOM     32  O   UNL     1       9.621  12.812  19.330  0.00  0.00    +0.000 OA
BRANCH  32  33
ATOM     33  C   UNL     1      10.352  11.617  19.700  0.00  0.00    +0.000 C 
ATOM     34  C   UNL     1      11.463  11.470  18.663  0.00  0.00    +0.000 C 
BRANCH  33  36
ATOM     35  C   UNL     1       8.873  10.025  18.349  0.00  0.00    +0.000 C 
ATOM     36  C   UNL     1       9.419  10.393  19.721  0.00  0.00    +0.000 C 
ENDBRANCH  33  36
ENDBRANCH  32  33
ENDBRANCH  30  32
ENDBRANCH   1  30
TORSDOF 8
ENDMDL
MODEL 6
REMARK VINA RESULT:      -5.9      7.274     10.758
REMARK  Name = 
REMARK  12 active torsions:
REMARK  status: ('A' for Active; 'I' for Inactive)
REMARK    1  A    between atoms: C_1  and  C_2
REMARK    2  A    between atoms: C_2  and  C_3
REMARK    3  A    between atoms: C_3  and  C_4
REMARK    4  A    between atoms: C_3  and  O_5
REMARK    5  A    between atoms: O_5  and  C_6
REMARK    6  A    between atoms: C_6  and  C_8
REMARK    7  A    between atoms: C_9  and  C_10
REMARK    8  A    between atoms: C_17  and  C_18
REMARK    9  A    between atoms: C_21  and  O_22
REMARK   10  A    between atoms: O_22  and  C_23
REMARK   11  A    between atoms: C_27  and  C_28
REMARK   12  A    between atoms: C_31  and  O_32
REMARK                            x       y       z     vdW  Elec       q    Type
REMARK                         _______ _______ _______ _____ _____    ______ ____
ROOT
ATOM      1  C   UNL     1      -2.224  13.726  21.881  0.00  0.00    +0.000 C 
ATOM      2  C   UNL     1      -3.306  13.731  22.702  0.00  0.00    +0.000 C 
ATOM      3  C   UNL     1      -3.382  14.305  24.099  0.00  0.00    +0.000 C 
ATOM      4  N   UNL     1      -4.504  13.180  22.268  0.00  0.00    +0.000 N 
ATOM      5  C   UNL     1      -4.700  12.587  21.040  0.00  0.00    +0.000 C 
ATOM      6  C   UNL     1      -3.686  12.523  20.152  0.00  0.00    +0.000 C 
ATOM      7  C   UNL     1      -3.959  11.907  18.813  0.00  0.00    +0.000 C 
ATOM      8  O   UNL     1      -3.181  12.015  17.869  0.00  0.00    +0.000 OA
ATOM      9  C   UNL     1      -5.248  11.138  18.647  0.00  0.00    +0.000 C 
ATOM     10  C   UNL     1      -6.390  11.979  19.220  0.00  0.00    +0.000 C 
ATOM     11  C   UNL     1      -6.117  12.125  20.732  0.00  0.00    +0.000 C 
ATOM     12  C   UNL     1      -2.313  13.127  20.460  0.00  0.00    +0.000 C 
ATOM     13  H   UNL     1      -5.299  13.242  22.900  0.00  0.00    +0.000 HD
ENDROOT
BRANCH  10  14
ATOM     14  C   UNL     1      -6.567  13.287  18.441  0.00  0.00    +0.000 A 
ATOM     15  C   UNL     1      -6.593  14.510  19.132  0.00  0.00    +0.000 A 
ATOM     16  C   UNL     1      -6.822  15.715  18.458  0.00  0.00    +0.000 A 
ATOM     17  C   UNL     1      -7.003  15.730  17.076  0.00  0.00    +0.000 A 
ATOM     18  C   UNL     1      -6.984  14.527  16.378  0.00  0.00    +0.000 A 
ATOM     19  C   UNL     1      -6.759  13.324  17.052  0.00  0.00    +0.000 A 
BRANCH  17  20
ATOM     20  O   UNL     1      -7.220  16.956  16.513  0.00  0.00    +0.000 OA
ATOM     21  C   UNL     1      -7.282  18.043  17.432  0.00  0.00    +0.000 C 
ENDBRANCH  17  20
ENDBRANCH  10  14
BRANCH  12  22
ATOM     22  C   UNL     1      -1.194  12.126  20.151  0.00  0.00    +0.000 A 
ATOM     23  C   UNL     1      -0.240  12.458  19.168  0.00  0.00    +0.000 A 
ATOM     24  C   UNL     1       0.693  11.523  18.725  0.00  0.00    +0.000 A 
ATOM     25  C   UNL     1       0.711  10.263  19.306  0.00  0.00    +0.000 A 
ATOM     26  C   UNL     1      -0.171   9.937  20.331  0.00  0.00    +0.000 A 
ATOM     27  C   UNL     1      -1.133  10.860  20.747  0.00  0.00    +0.000 A 
BRANCH  25  28
ATOM     28  O   UNL     1       1.577   9.302  18.874  0.00  0.00    +0.000 OA
ATOM     29  H   UNL     1       2.027   9.640  18.082  0.00  0.00    +0.000 HD
ENDBRANCH  25  28
ENDBRANCH  12  22
BRANCH   1  30
ATOM     30  C   UNL     1      -0.906  14.277  22.316  0.00  0.00    +0.000 C 
ATOM     31  O   UNL     1      -0.009  13.621  22.814  0.00  0.00    +0.000 OA
BRANCH  30  32
ATOM     32  O   UNL     1      -0.843  15.608  22.060  0.00  0.00    +0.000 OA
BRANCH  32  33
ATOM     33  C   UNL     1       0.001  16.010  20.954  0.00  0.00    +0.000 C 
ATOM     34  C   UNL     1       0.924  17.094  21.505  0.00  0.00    +0.000 C 
BRANCH  33  36
ATOM     35  C   UNL     1      -0.265  16.184  18.414  0.00  0.00    +0.000 C 
ATOM     36  C   UNL     1      -0.850  16.523  19.778  0.00  0.00    +0.000 C 
ENDBRANCH  33  36
ENDBRANCH  32  33
ENDBRANCH  30  32
ENDBRANCH   1  30
TORSDOF 8
ENDMDL
MODEL 7
REMARK VINA RESULT:      -5.9      0.896      1.217
REMARK  Name = 
REMARK  12 active torsions:
REMARK  status: ('A' for Active; 'I' for Inactive)
REMARK    1  A    between atoms: C_1  and  C_2
REMARK    2  A    between atoms: C_2  and  C_3
REMARK    3  A    between atoms: C_3  and  C_4
REMARK    4  A    between atoms: C_3  and  O_5
REMARK    5  A    between atoms: O_5  and  C_6
REMARK    6  A    between atoms: C_6  and  C_8
REMARK    7  A    between atoms: C_9  and  C_10
REMARK    8  A    between atoms: C_17  and  C_18
REMARK    9  A    between atoms: C_21  and  O_22
REMARK   10  A    between atoms: O_22  and  C_23
REMARK   11  A    between atoms: C_27  and  C_28
REMARK   12  A    between atoms: C_31  and  O_32
REMARK                            x       y       z     vdW  Elec       q    Type
REMARK                         _______ _______ _______ _____ _____    ______ ____
ROOT
ATOM      1  C   UNL     1       8.071  14.980  20.136  0.00  0.00    +0.000 C 
ATOM      2  C   UNL     1       7.613  16.020  19.391  0.00  0.00    +0.000 C 
ATOM      3  C   UNL     1       8.374  16.779  18.328  0.00  0.00    +0.000 C 
ATOM      4  N   UNL     1       6.312  16.473  19.565  0.00  0.00    +0.000 N 
ATOM      5  C   UNL     1       5.413  15.957  20.473  0.00  0.00    +0.000 C 
ATOM      6  C   UNL     1       5.771  14.927  21.267  0.00  0.00    +0.000 C 
ATOM      7  C   UNL     1       4.744  14.372  22.209  0.00  0.00    +0.000 C 
ATOM      8  O   UNL     1       4.897  13.302  22.792  0.00  0.00    +0.000 OA
ATOM      9  C   UNL     1       3.485  15.177  22.423  0.00  0.00    +0.000 C 
ATOM     10  C   UNL     1       2.948  15.607  21.057  0.00  0.00    +0.000 C 
ATOM     11  C   UNL     1       4.009  16.543  20.439  0.00  0.00    +0.000 C 
ATOM     12  C   UNL     1       7.156  14.282  21.166  0.00  0.00    +0.000 C 
ATOM     13  H   UNL     1       5.998  17.226  18.958  0.00  0.00    +0.000 HD
ENDROOT
BRANCH  10  14
ATOM     14  C   UNL     1       2.545  14.396  20.208  0.00  0.00    +0.000 A 
ATOM     15  C   UNL     1       1.731  13.396  20.765  0.00  0.00    +0.000 A 
ATOM     16  C   UNL     1       1.403  12.246  20.039  0.00  0.00    +0.000 A 
ATOM     17  C   UNL     1       1.856  12.080  18.732  0.00  0.00    +0.000 A 
ATOM     18  C   UNL     1       2.666  13.060  18.168  0.00  0.00    +0.000 A 
ATOM     19  C   UNL     1       2.996  14.207  18.894  0.00  0.00    +0.000 A 
BRANCH  17  20
ATOM     20  O   UNL     1       1.481  10.922  18.110  0.00  0.00    +0.000 OA
ATOM     21  C   UNL     1       0.746  10.009  18.919  0.00  0.00    +0.000 C 
ENDBRANCH  17  20
ENDBRANCH  10  14
BRANCH  12  22
ATOM     22  C   UNL     1       7.796  14.143  22.552  0.00  0.00    +0.000 A 
ATOM     23  C   UNL     1       8.105  12.853  23.030  0.00  0.00    +0.000 A 
ATOM     24  C   UNL     1       8.526  12.654  24.343  0.00  0.00    +0.000 A 
ATOM     25  C   UNL     1       8.695  13.755  25.170  0.00  0.00    +0.000 A 
ATOM     26  C   UNL     1       8.471  15.043  24.698  0.00  0.00    +0.000 A 
ATOM     27  C   UNL     1       8.009  15.241  23.395  0.00  0.00    +0.000 A 
BRANCH  25  28
ATOM     28  O   UNL     1       9.064  13.603  26.475  0.00  0.00    +0.000 OA
ATOM     29  H   UNL     1       9.387  12.695  26.590  0.00  0.00    +0.000 HD
ENDBRANCH  25  28
ENDBRANCH  12  22
BRANCH   1  30
ATOM     30  C   UNL     1       9.472  14.480  20.007  0.00  0.00    +0.000 C 
ATOM     31  O   UNL     1      10.435  14.955  20.583  0.00  0.00    +0.000 OA
BRANCH  30  32
ATOM     32  O   UNL     1       9.518  13.411  19.173  0.00  0.00    +0.000 OA
BRANCH  32  33
ATOM     33  C   UNL     1      10.784  12.711  19.095  0.00  0.00    +0.000 C 
ATOM     34  C   UNL     1      10.926  12.268  17.641  0.00  0.00    +0.000 C 
BRANCH  33  36
ATOM     35  C   UNL     1       9.464  10.808  20.183  0.00  0.00    +0.000 C 
ATOM     36  C   UNL     1      10.805  11.515  20.065  0.00  0.00    +0.000 C 
ENDBRANCH  33  36
ENDBRANCH  32  33
ENDBRANCH  30  32
ENDBRANCH   1  30
TORSDOF 8
ENDMDL
MODEL 8
REMARK VINA RESULT:      -5.8      2.940      8.814
REMARK  Name = 
REMARK  12 active torsions:
REMARK  status: ('A' for Active; 'I' for Inactive)
REMARK    1  A    between atoms: C_1  and  C_2
REMARK    2  A    between atoms: C_2  and  C_3
REMARK    3  A    between atoms: C_3  and  C_4
REMARK    4  A    between atoms: C_3  and  O_5
REMARK    5  A    between atoms: O_5  and  C_6
REMARK    6  A    between atoms: C_6  and  C_8
REMARK    7  A    between atoms: C_9  and  C_10
REMARK    8  A    between atoms: C_17  and  C_18
REMARK    9  A    between atoms: C_21  and  O_22
REMARK   10  A    between atoms: O_22  and  C_23
REMARK   11  A    between atoms: C_27  and  C_28
REMARK   12  A    between atoms: C_31  and  O_32
REMARK                            x       y       z     vdW  Elec       q    Type
REMARK                         _______ _______ _______ _____ _____    ______ ____
ROOT
ATOM      1  C   UNL     1      -0.011  13.143  21.560  0.00  0.00    +0.000 C 
ATOM      2  C   UNL     1      -0.125  14.403  22.055  0.00  0.00    +0.000 C 
ATOM      3  C   UNL     1      -0.902  14.830  23.279  0.00  0.00    +0.000 C 
ATOM      4  N   UNL     1       0.530  15.453  21.425  0.00  0.00    +0.000 N 
ATOM      5  C   UNL     1       1.299  15.334  20.288  0.00  0.00    +0.000 C 
ATOM      6  C   UNL     1       1.470  14.126  19.712  0.00  0.00    +0.000 C 
ATOM      7  C   UNL     1       2.350  14.039  18.502  0.00  0.00    +0.000 C 
ATOM      8  O   UNL     1       2.750  12.968  18.055  0.00  0.00    +0.000 OA
ATOM      9  C   UNL     1       2.747  15.334  17.832  0.00  0.00    +0.000 C 
ATOM     10  C   UNL     1       3.220  16.310  18.911  0.00  0.00    +0.000 C 
ATOM     11  C   UNL     1       2.001  16.598  19.813  0.00  0.00    +0.000 C 
ATOM     12  C   UNL     1       0.852  12.859  20.311  0.00  0.00    +0.000 C 
ATOM     13  H   UNL     1       0.452  16.373  21.854  0.00  0.00    +0.000 HD
ENDROOT
BRANCH  10  14
ATOM     14  C   UNL     1       4.474  15.792  19.624  0.00  0.00    +0.000 A 
ATOM     15  C   UNL     1       5.605  15.433  18.870  0.00  0.00    +0.000 A 
ATOM     16  C   UNL     1       6.739  14.892  19.485  0.00  0.00    +0.000 A 
ATOM     17  C   UNL     1       6.782  14.723  20.868  0.00  0.00    +0.000 A 
ATOM     18  C   UNL     1       5.670  15.070  21.627  0.00  0.00    +0.000 A 
ATOM     19  C   UNL     1       4.536  15.607  21.013  0.00  0.00    +0.000 A 
BRANCH  17  20
ATOM     20  O   UNL     1       7.935  14.186  21.370  0.00  0.00    +0.000 OA
ATOM     21  C   UNL     1       7.761  13.304  22.475  0.00  0.00    +0.000 C 
ENDBRANCH  17  20
ENDBRANCH  10  14
BRANCH  12  22
ATOM     22  C   UNL     1       0.118  12.049  19.237  0.00  0.00    +0.000 A 
ATOM     23  C   UNL     1      -1.043  12.592  18.651  0.00  0.00    +0.000 A 
ATOM     24  C   UNL     1      -1.843  11.833  17.800  0.00  0.00    +0.000 A 
ATOM     25  C   UNL     1      -1.453  10.540  17.484  0.00  0.00    +0.000 A 
ATOM     26  C   UNL     1      -0.272  10.008  17.989  0.00  0.00    +0.000 A 
ATOM     27  C   UNL     1       0.510  10.753  18.876  0.00  0.00    +0.000 A 
BRANCH  25  28
ATOM     28  O   UNL     1      -2.228   9.746  16.690  0.00  0.00    +0.000 OA
ATOM     29  H   UNL     1      -1.972   8.824  16.850  0.00  0.00    +0.000 HD
ENDBRANCH  25  28
ENDBRANCH  12  22
BRANCH   1  30
ATOM     30  C   UNL     1      -0.724  11.989  22.183  0.00  0.00    +0.000 C 
ATOM     31  O   UNL     1      -1.933  11.893  22.289  0.00  0.00    +0.000 OA
BRANCH  30  32
ATOM     32  O   UNL     1       0.167  11.052  22.597  0.00  0.00    +0.000 OA
BRANCH  32  33
ATOM     33  C   UNL     1      -0.373   9.742  22.898  0.00  0.00    +0.000 C 
ATOM     34  C   UNL     1       0.455   9.208  24.065  0.00  0.00    +0.000 C 
BRANCH  33  36
ATOM     35  C   UNL     1       1.115   8.307  21.390  0.00  0.00    +0.000 C 
ATOM     36  C   UNL     1      -0.289   8.822  21.666  0.00  0.00    +0.000 C 
ENDBRANCH  33  36
ENDBRANCH  32  33
ENDBRANCH  30  32
ENDBRANCH   1  30
TORSDOF 8
ENDMDL
MODEL 9
REMARK VINA RESULT:      -5.8      4.690      9.524
REMARK  Name = 
REMARK  12 active torsions:
REMARK  status: ('A' for Active; 'I' for Inactive)
REMARK    1  A    between atoms: C_1  and  C_2
REMARK    2  A    between atoms: C_2  and  C_3
REMARK    3  A    between atoms: C_3  and  C_4
REMARK    4  A    between atoms: C_3  and  O_5
REMARK    5  A    between atoms: O_5  and  C_6
REMARK    6  A    between atoms: C_6  and  C_8
REMARK    7  A    between atoms: C_9  and  C_10
REMARK    8  A    between atoms: C_17  and  C_18
REMARK    9  A    between atoms: C_21  and  O_22
REMARK   10  A    between atoms: O_22  and  C_23
REMARK   11  A    between atoms: C_27  and  C_28
REMARK   12  A    between atoms: C_31  and  O_32
REMARK                            x       y       z     vdW  Elec       q    Type
REMARK                         _______ _______ _______ _____ _____    ______ ____
ROOT
ATOM      1  C   UNL     1      -1.223  13.584  22.434  0.00  0.00    +0.000 C 
ATOM      2  C   UNL     1      -1.174  14.741  23.143  0.00  0.00    +0.000 C 
ATOM      3  C   UNL     1      -1.351  14.899  24.636  0.00  0.00    +0.000 C 
ATOM      4  N   UNL     1      -0.923  15.941  22.489  0.00  0.00    +0.000 N 
ATOM      5  C   UNL     1      -0.731  16.074  21.131  0.00  0.00    +0.000 C 
ATOM      6  C   UNL     1      -0.769  14.985  20.335  0.00  0.00    +0.000 C 
ATOM      7  C   UNL     1      -0.512  15.173  18.870  0.00  0.00    +0.000 C 
ATOM      8  O   UNL     1      -0.293  14.230  18.114  0.00  0.00    +0.000 OA
ATOM      9  C   UNL     1      -0.522  16.585  18.334  0.00  0.00    +0.000 C 
ATOM     10  C   UNL     1       0.325  17.460  19.260  0.00  0.00    +0.000 C 
ATOM     11  C   UNL     1      -0.383  17.468  20.632  0.00  0.00    +0.000 C 
ATOM     12  C   UNL     1      -0.988  13.581  20.907  0.00  0.00    +0.000 C 
ATOM     13  H   UNL     1      -0.854  16.777  23.064  0.00  0.00    +0.000 HD
ENDROOT
BRANCH  10  14
ATOM     14  C   UNL     1       1.791  17.013  19.264  0.00  0.00    +0.000 A 
ATOM     15  C   UNL     1       2.497  16.954  20.478  0.00  0.00    +0.000 A 
ATOM     16  C   UNL     1       3.855  16.617  20.507  0.00  0.00    +0.000 A 
ATOM     17  C   UNL     1       4.532  16.304  19.330  0.00  0.00    +0.000 A 
ATOM     18  C   UNL     1       3.848  16.361  18.120  0.00  0.00    +0.000 A 
ATOM     19  C   UNL     1       2.494  16.701  18.091  0.00  0.00    +0.000 A 
BRANCH  17  20
ATOM     20  O   UNL     1       5.856  15.989  19.465  0.00  0.00    +0.000 OA
ATOM     21  C   UNL     1       6.435  15.316  18.351  0.00  0.00    +0.000 C 
ENDBRANCH  17  20
ENDBRANCH  10  14
BRANCH  12  22
ATOM     22  C   UNL     1      -2.076  12.837  20.126  0.00  0.00    +0.000 A 
ATOM     23  C   UNL     1      -1.690  11.834  19.213  0.00  0.00    +0.000 A 
ATOM     24  C   UNL     1      -2.617  11.248  18.354  0.00  0.00    +0.000 A 
ATOM     25  C   UNL     1      -3.950  11.622  18.444  0.00  0.00    +0.000 A 
ATOM     26  C   UNL     1      -4.367  12.553  19.389  0.00  0.00    +0.000 A 
ATOM     27  C   UNL     1      -3.433  13.172  20.223  0.00  0.00    +0.000 A 
BRANCH  25  28
ATOM     28  O   UNL     1      -4.884  11.105  17.595  0.00  0.00    +0.000 OA
ATOM     29  H   UNL     1      -4.764  10.142  17.569  0.00  0.00    +0.000 HD
ENDBRANCH  25  28
ENDBRANCH  12  22
BRANCH   1  30
ATOM     30  C   UNL     1      -1.522  12.276  23.088  0.00  0.00    +0.000 C 
ATOM     31  O   UNL     1      -2.623  11.929  23.477  0.00  0.00    +0.000 OA
BRANCH  30  32
ATOM     32  O   UNL     1      -0.398  11.520  23.169  0.00  0.00    +0.000 OA
BRANCH  32  33
ATOM     33  C   UNL     1      -0.359  10.335  22.337  0.00  0.00    +0.000 C 
ATOM     34  C   UNL     1      -0.219   9.156  23.298  0.00  0.00    +0.000 C 
BRANCH  33  36
ATOM     35  C   UNL     1       0.871   9.223  20.388  0.00  0.00    +0.000 C 
ATOM     36  C   UNL     1       0.813  10.407  21.342  0.00  0.00    +0.000 C 
ENDBRANCH  33  36
ENDBRANCH  32  33
ENDBRANCH  30  32
ENDBRANCH   1  30
TORSDOF 8
ENDMDL
