MODEL 1
REMARK VINA RESULT:      -7.9      0.000      0.000
REMARK  Name = 
REMARK  8 active torsions:
REMARK  status: ('A' for Active; 'I' for Inactive)
REMARK    1  A    between atoms: C_1  and  O_2
REMARK    2  A    between atoms: O_2  and  C_3
REMARK    3  A    between atoms: C_6  and  N_7
REMARK    4  A    between atoms: C_13  and  C_14
REMARK    5  A    between atoms: C_14  and  S_15
REMARK    6  A    between atoms: S_15  and  C_16
REMARK    7  A    between atoms: C_16  and  N_18
REMARK    8  A    between atoms: C_21  and  C_22
REMARK                            x       y       z     vdW  Elec       q    Type
REMARK                         _______ _______ _______ _____ _____    ______ ____
ROOT
ATOM      1  N   UNL     1       0.797  10.348  17.763  0.00  0.00    +0.000 N 
ATOM      2  C   UNL     1       1.494   9.217  18.204  0.00  0.00    +0.000 A 
ATOM      3  N   UNL     1       1.187   8.689  19.386  0.00  0.00    +0.000 NA
ATOM      4  C   UNL     1       1.932   7.679  19.781  0.00  0.00    +0.000 A 
ATOM      5  N   UNL     1       1.648   7.121  21.010  0.00  0.00    +0.000 N 
ATOM      6  N   UNL     1       2.907   7.142  19.072  0.00  0.00    +0.000 NA
ATOM      7  C   UNL     1       3.129   7.696  17.877  0.00  0.00    +0.000 A 
ATOM      8  N   UNL     1       2.459   8.756  17.411  0.00  0.00    +0.000 NA
ATOM      9  H   UNL     1       1.096  10.580  16.825  0.00  0.00    +0.000 HD
ATOM     10  H   UNL     1       0.698   7.333  21.282  0.00  0.00    +0.000 HD
ATOM     11  H   UNL     1       1.944   6.156  21.044  0.00  0.00    +0.000 HD
ENDROOT
BRANCH   1  15
ATOM     12  C   UNL     1      -3.243  11.327  18.533  0.00  0.00    +0.000 A 
ATOM     13  C   UNL     1      -2.207  12.002  19.183  0.00  0.00    +0.000 A 
ATOM     14  C   UNL     1      -0.871  11.685  18.907  0.00  0.00    +0.000 A 
ATOM     15  C   UNL     1      -0.551  10.653  18.021  0.00  0.00    +0.000 A 
ATOM     16  C   UNL     1      -1.601   9.984  17.377  0.00  0.00    +0.000 A 
ATOM     17  C   UNL     1      -2.934  10.314  17.632  0.00  0.00    +0.000 A 
BRANCH  12  19
ATOM     18  C   UNL     1      -5.557  10.976  18.251  0.00  0.00    +0.000 C 
ATOM     19  O   UNL     1      -4.510  11.709  18.882  0.00  0.00    +0.000 OA
ENDBRANCH  12  19
ENDBRANCH   1  15
BRANCH   7  20
ATOM     20  C   UNL     1       4.252   7.143  17.017  0.00  0.00    +0.000 C 
BRANCH  20  21
ATOM     21  S   UNL     1       5.272   5.923  17.891  0.00  0.00    +0.000 S 
BRANCH  21  22
ATOM     22  C   UNL     1       4.998   4.367  17.102  0.00  0.00    +0.000 C 
ATOM     23  S   UNL     1       5.835   3.870  15.730  0.00  0.00    +0.000 S 
BRANCH  22  24
ATOM     24  N   UNL     1       4.026   3.581  17.753  0.00  0.00    +0.000 N 
ATOM     25  C   UNL     1       2.666   3.362  17.236  0.00  0.00    +0.000 C 
ATOM     26  C   UNL     1       1.621   3.751  18.274  0.00  0.00    +0.000 C 
ATOM     27  C   UNL     1       1.831   2.959  19.571  0.00  0.00    +0.000 C 
ATOM     28  C   UNL     1       0.829   3.403  20.634  0.00  0.00    +0.000 C 
ATOM     29  C   UNL     1       3.276   3.120  20.066  0.00  0.00    +0.000 C 
ATOM     30  C   UNL     1       4.303   2.800  18.972  0.00  0.00    +0.000 C 
ENDBRANCH  22  24
ENDBRANCH  21  22
ENDBRANCH  20  21
ENDBRANCH   7  20
TORSDOF 6
ENDMDL
MODEL 2
REMARK VINA RESULT:      -7.8      0.643      1.137
REMARK  Name = 
REMARK  8 active torsions:
REMARK  status: ('A' for Active; 'I' for Inactive)
REMARK    1  A    between atoms: C_1  and  O_2
REMARK    2  A    between atoms: O_2  and  C_3
REMARK    3  A    between atoms: C_6  and  N_7
REMARK    4  A    between atoms: C_13  and  C_14
REMARK    5  A    between atoms: C_14  and  S_15
REMARK    6  A    between atoms: S_15  and  C_16
REMARK    7  A    between atoms: C_16  and  N_18
REMARK    8  A    between atoms: C_21  and  C_22
REMARK                            x       y       z     vdW  Elec       q    Type
REMARK                         _______ _______ _______ _____ _____    ______ ____
ROOT
ATOM      1  N   UNL     1       0.488  10.683  17.945  0.00  0.00    +0.000 N 
ATOM      2  C   UNL     1       1.176   9.558  18.417  0.00  0.00    +0.000 A 
ATOM      3  N   UNL     1       0.920   9.113  19.645  0.00  0.00    +0.000 NA
ATOM      4  C   UNL     1       1.656   8.106  20.062  0.00  0.00    +0.000 A 
ATOM      5  N   UNL     1       1.426   7.633  21.337  0.00  0.00    +0.000 N 
ATOM      6  N   UNL     1       2.574   7.495  19.336  0.00  0.00    +0.000 NA
ATOM      7  C   UNL     1       2.744   7.968  18.098  0.00  0.00    +0.000 A 
ATOM      8  N   UNL     1       2.081   9.019  17.604  0.00  0.00    +0.000 NA
ATOM      9  H   UNL     1       0.740  10.847  16.979  0.00  0.00    +0.000 HD
ATOM     10  H   UNL     1       0.499   7.892  21.646  0.00  0.00    +0.000 HD
ATOM     11  H   UNL     1       1.695   6.663  21.415  0.00  0.00    +0.000 HD
ENDROOT
BRANCH   1  15
ATOM     12  C   UNL     1      -3.502  11.717  18.882  0.00  0.00    +0.000 A 
ATOM     13  C   UNL     1      -3.222  10.778  17.886  0.00  0.00    +0.000 A 
ATOM     14  C   UNL     1      -1.898  10.427  17.596  0.00  0.00    +0.000 A 
ATOM     15  C   UNL     1      -0.834  11.047  18.256  0.00  0.00    +0.000 A 
ATOM     16  C   UNL     1      -1.130  11.989  19.251  0.00  0.00    +0.000 A 
ATOM     17  C   UNL     1      -2.451  12.324  19.559  0.00  0.00    +0.000 A 
BRANCH  12  19
ATOM     18  C   UNL     1      -5.731  11.011  18.579  0.00  0.00    +0.000 C 
ATOM     19  O   UNL     1      -4.828  11.994  19.079  0.00  0.00    +0.000 OA
ENDBRANCH  12  19
ENDBRANCH   1  15
BRANCH   7  20
ATOM     20  C   UNL     1       3.801   7.327  17.215  0.00  0.00    +0.000 C 
BRANCH  20  21
ATOM     21  S   UNL     1       4.742   6.032  18.070  0.00  0.00    +0.000 S 
BRANCH  21  22
ATOM     22  C   UNL     1       4.441   4.523  17.203  0.00  0.00    +0.000 C 
ATOM     23  S   UNL     1       5.278   4.076  15.814  0.00  0.00    +0.000 S 
BRANCH  22  24
ATOM     24  N   UNL     1       3.447   3.728  17.807  0.00  0.00    +0.000 N 
ATOM     25  C   UNL     1       2.021   4.088  17.852  0.00  0.00    +0.000 C 
ATOM     26  C   UNL     1       1.503   4.083  19.284  0.00  0.00    +0.000 C 
ATOM     27  C   UNL     1       1.726   2.709  19.930  0.00  0.00    +0.000 C 
ATOM     28  C   UNL     1       1.273   2.727  21.389  0.00  0.00    +0.000 C 
ATOM     29  C   UNL     1       3.200   2.295  19.810  0.00  0.00    +0.000 C 
ATOM     30  C   UNL     1       3.713   2.391  18.367  0.00  0.00    +0.000 C 
ENDBRANCH  22  24
ENDBRANCH  21  22
ENDBRANCH  20  21
ENDBRANCH   7  20
TORSDOF 6
ENDMDL
MODEL 3
REMARK VINA RESULT:      -7.8      5.302      7.614
REMARK  Name = 
REMARK  8 active torsions:
REMARK  status: ('A' for Active; 'I' for Inactive)
REMARK    1  A    between atoms: C_1  and  O_2
REMARK    2  A    between atoms: O_2  and  C_3
REMARK    3  A    between atoms: C_6  and  N_7
REMARK    4  A    between atoms: C_13  and  C_14
REMARK    5  A    between atoms: C_14  and  S_15
REMARK    6  A    between atoms: S_15  and  C_16
REMARK    7  A    between atoms: C_16  and  N_18
REMARK    8  A    between atoms: C_21  and  C_22
REMARK                            x       y       z     vdW  Elec       q    Type
REMARK                         _______ _______ _______ _____ _____    ______ ____
ROOT
ATOM      1  N   UNL     1       8.354   9.150  17.320  0.00  0.00    +0.000 N 
ATOM      2  C   UNL     1       7.854   7.885  17.650  0.00  0.00    +0.000 A 
ATOM      3  N   UNL     1       8.283   7.291  18.761  0.00  0.00    +0.000 NA
ATOM      4  C   UNL     1       7.840   6.070  18.973  0.00  0.00    +0.000 A 
ATOM      5  N   UNL     1       8.280   5.421  20.108  0.00  0.00    +0.000 N 
ATOM      6  N   UNL     1       6.980   5.437  18.197  0.00  0.00    +0.000 NA
ATOM      7  C   UNL     1       6.559   6.113  17.125  0.00  0.00    +0.000 A 
ATOM      8  N   UNL     1       6.991   7.336  16.798  0.00  0.00    +0.000 NA
ATOM      9  H   UNL     1       7.880   9.492  16.495  0.00  0.00    +0.000 HD
ATOM     10  H   UNL     1       8.604   6.090  20.793  0.00  0.00    +0.000 HD
ATOM     11  H   UNL     1       7.611   4.726  20.407  0.00  0.00    +0.000 HD
ENDROOT
BRANCH   1  15
ATOM     12  C   UNL     1       9.426  12.227  20.014  0.00  0.00    +0.000 A 
ATOM     13  C   UNL     1       8.959  12.529  18.733  0.00  0.00    +0.000 A 
ATOM     14  C   UNL     1       8.587  11.504  17.854  0.00  0.00    +0.000 A 
ATOM     15  C   UNL     1       8.728  10.163  18.220  0.00  0.00    +0.000 A 
ATOM     16  C   UNL     1       9.201   9.875  19.508  0.00  0.00    +0.000 A 
ATOM     17  C   UNL     1       9.550  10.896  20.395  0.00  0.00    +0.000 A 
BRANCH  12  19
ATOM     18  C   UNL     1       8.672  14.024  21.340  0.00  0.00    +0.000 C 
ATOM     19  O   UNL     1       9.770  13.302  20.788  0.00  0.00    +0.000 OA
ENDBRANCH  12  19
ENDBRANCH   1  15
BRANCH   7  20
ATOM     20  C   UNL     1       5.586   5.436  16.175  0.00  0.00    +0.000 C 
BRANCH  20  21
ATOM     21  S   UNL     1       4.260   4.549  17.040  0.00  0.00    +0.000 S 
BRANCH  21  22
ATOM     22  C   UNL     1       3.278   5.769  17.858  0.00  0.00    +0.000 C 
ATOM     23  S   UNL     1       3.448   7.420  17.587  0.00  0.00    +0.000 S 
BRANCH  22  24
ATOM     24  N   UNL     1       2.328   5.213  18.738  0.00  0.00    +0.000 N 
ATOM     25  C   UNL     1       2.030   5.757  20.073  0.00  0.00    +0.000 C 
ATOM     26  C   UNL     1       2.190   4.685  21.144  0.00  0.00    +0.000 C 
ATOM     27  C   UNL     1       1.283   3.485  20.843  0.00  0.00    +0.000 C 
ATOM     28  C   UNL     1       1.500   2.382  21.877  0.00  0.00    +0.000 C 
ATOM     29  C   UNL     1       1.536   2.970  19.418  0.00  0.00    +0.000 C 
ATOM     30  C   UNL     1       1.449   4.089  18.373  0.00  0.00    +0.000 C 
ENDBRANCH  22  24
ENDBRANCH  21  22
ENDBRANCH  20  21
ENDBRANCH   7  20
TORSDOF 6
ENDMDL
MODEL 4
REMARK VINA RESULT:      -7.2      4.075      8.319
REMARK  Name = 
REMARK  8 active torsions:
REMARK  status: ('A' for Active; 'I' for Inactive)
REMARK    1  A    between atoms: C_1  and  O_2
REMARK    2  A    between atoms: O_2  and  C_3
REMARK    3  A    between atoms: C_6  and  N_7
REMARK    4  A    between atoms: C_13  and  C_14
REMARK    5  A    between atoms: C_14  and  S_15
REMARK    6  A    between atoms: S_15  and  C_16
REMARK    7  A    between atoms: C_16  and  N_18
REMARK    8  A    between atoms: C_21  and  C_22
REMARK                            x       y       z     vdW  Elec       q    Type
REMARK                         _______ _______ _______ _____ _____    ______ ____
ROOT
ATOM      1  N   UNL     1       1.770   8.287  17.850  0.00  0.00    +0.000 N 
ATOM      2  C   UNL     1       1.494   9.160  18.910  0.00  0.00    +0.000 A 
ATOM      3  N   UNL     1       1.315   8.659  20.129  0.00  0.00    +0.000 NA
ATOM      4  C   UNL     1       0.976   9.519  21.066  0.00  0.00    +0.000 A 
ATOM      5  N   UNL     1       0.767   9.028  22.337  0.00  0.00    +0.000 N 
ATOM      6  N   UNL     1       0.856  10.821  20.882  0.00  0.00    +0.000 NA
ATOM      7  C   UNL     1       1.095  11.257  19.642  0.00  0.00    +0.000 A 
ATOM      8  N   UNL     1       1.394  10.454  18.615  0.00  0.00    +0.000 NA
ATOM      9  H   UNL     1       1.950   8.825  17.013  0.00  0.00    +0.000 HD
ATOM     10  H   UNL     1       1.235   8.139  22.452  0.00  0.00    +0.000 HD
ATOM     11  H   UNL     1       0.933   9.742  23.031  0.00  0.00    +0.000 HD
ENDROOT
BRANCH   1  15
ATOM     12  C   UNL     1       3.929   4.657  18.026  0.00  0.00    +0.000 A 
ATOM     13  C   UNL     1       2.534   4.663  18.089  0.00  0.00    +0.000 A 
ATOM     14  C   UNL     1       1.826   5.868  18.010  0.00  0.00    +0.000 A 
ATOM     15  C   UNL     1       2.501   7.088  17.923  0.00  0.00    +0.000 A 
ATOM     16  C   UNL     1       3.902   7.067  17.863  0.00  0.00    +0.000 A 
ATOM     17  C   UNL     1       4.610   5.864  17.918  0.00  0.00    +0.000 A 
BRANCH  12  19
ATOM     18  C   UNL     1       4.561   2.875  19.435  0.00  0.00    +0.000 C 
ATOM     19  O   UNL     1       4.522   3.427  18.122  0.00  0.00    +0.000 OA
ENDBRANCH  12  19
ENDBRANCH   1  15
BRANCH   7  20
ATOM     20  C   UNL     1       0.952  12.742  19.354  0.00  0.00    +0.000 C 
BRANCH  20  21
ATOM     21  S   UNL     1      -0.547  13.134  18.410  0.00  0.00    +0.000 S 
BRANCH  21  22
ATOM     22  C   UNL     1      -1.898  12.378  19.260  0.00  0.00    +0.000 C 
ATOM     23  S   UNL     1      -2.316  12.754  20.845  0.00  0.00    +0.000 S 
BRANCH  22  24
ATOM     24  N   UNL     1      -2.600  11.449  18.466  0.00  0.00    +0.000 N 
ATOM     25  C   UNL     1      -2.068  10.132  18.081  0.00  0.00    +0.000 C 
ATOM     26  C   UNL     1      -2.097   9.955  16.568  0.00  0.00    +0.000 C 
ATOM     27  C   UNL     1      -3.524  10.130  16.033  0.00  0.00    +0.000 C 
ATOM     28  C   UNL     1      -3.538  10.026  14.510  0.00  0.00    +0.000 C 
ATOM     29  C   UNL     1      -4.110  11.470  16.505  0.00  0.00    +0.000 C 
ATOM     30  C   UNL     1      -3.991  11.651  18.024  0.00  0.00    +0.000 C 
ENDBRANCH  22  24
ENDBRANCH  21  22
ENDBRANCH  20  21
ENDBRANCH   7  20
TORSDOF 6
ENDMDL
MODEL 5
REMARK VINA RESULT:      -7.1      1.812      3.215
REMARK  Name = 
REMARK  8 active torsions:
REMARK  status: ('A' for Active; 'I' for Inactive)
REMARK    1  A    between atoms: C_1  and  O_2
REMARK    2  A    between atoms: O_2  and  C_3
REMARK    3  A    between atoms: C_6  and  N_7
REMARK    4  A    between atoms: C_13  and  C_14
REMARK    5  A    between atoms: C_14  and  S_15
REMARK    6  A    between atoms: S_15  and  C_16
REMARK    7  A    between atoms: C_16  and  N_18
REMARK    8  A    between atoms: C_21  and  C_22
REMARK                            x       y       z     vdW  Elec       q    Type
REMARK                         _______ _______ _______ _____ _____    ______ ____
ROOT
ATOM      1  N   UNL     1      -0.099  10.129  17.805  0.00  0.00    +0.000 N 
ATOM      2  C   UNL     1       0.575   9.339  18.744  0.00  0.00    +0.000 A 
ATOM      3  N   UNL     1       0.293   9.489  20.036  0.00  0.00    +0.000 NA
ATOM      4  C   UNL     1       1.017   8.779  20.874  0.00  0.00    +0.000 A 
ATOM      5  N   UNL     1       0.759   8.926  22.221  0.00  0.00    +0.000 N 
ATOM      6  N   UNL     1       1.947   7.913  20.517  0.00  0.00    +0.000 NA
ATOM      7  C   UNL     1       2.143   7.782  19.202  0.00  0.00    +0.000 A 
ATOM      8  N   UNL     1       1.494   8.497  18.277  0.00  0.00    +0.000 NA
ATOM      9  H   UNL     1       0.173   9.846  16.873  0.00  0.00    +0.000 HD
ATOM     10  H   UNL     1      -0.173   9.292  22.364  0.00  0.00    +0.000 HD
ATOM     11  H   UNL     1       1.023   8.095  22.731  0.00  0.00    +0.000 HD
ENDROOT
BRANCH   1  15
ATOM     12  C   UNL     1      -4.066  11.565  18.071  0.00  0.00    +0.000 A 
ATOM     13  C   UNL     1      -3.057  12.097  18.878  0.00  0.00    +0.000 A 
ATOM     14  C   UNL     1      -1.742  11.629  18.769  0.00  0.00    +0.000 A 
ATOM     15  C   UNL     1      -1.425  10.587  17.894  0.00  0.00    +0.000 A 
ATOM     16  C   UNL     1      -2.448  10.061  17.093  0.00  0.00    +0.000 A 
ATOM     17  C   UNL     1      -3.756  10.542  17.182  0.00  0.00    +0.000 A 
BRANCH  12  19
ATOM     18  C   UNL     1      -6.371  11.129  18.305  0.00  0.00    +0.000 C 
ATOM     19  O   UNL     1      -5.316  12.087  18.264  0.00  0.00    +0.000 OA
ENDBRANCH  12  19
ENDBRANCH   1  15
BRANCH   7  20
ATOM     20  C   UNL     1       3.215   6.820  18.720  0.00  0.00    +0.000 C 
BRANCH  20  21
ATOM     21  S   UNL     1       2.526   5.304  17.998  0.00  0.00    +0.000 S 
BRANCH  21  22
ATOM     22  C   UNL     1       3.819   4.100  18.007  0.00  0.00    +0.000 C 
ATOM     23  S   UNL     1       3.575   2.490  18.429  0.00  0.00    +0.000 S 
BRANCH  22  24
ATOM     24  N   UNL     1       5.063   4.623  17.603  0.00  0.00    +0.000 N 
ATOM     25  C   UNL     1       6.296   4.516  18.399  0.00  0.00    +0.000 C 
ATOM     26  C   UNL     1       6.910   5.889  18.639  0.00  0.00    +0.000 C 
ATOM     27  C   UNL     1       7.197   6.590  17.305  0.00  0.00    +0.000 C 
ATOM     28  C   UNL     1       7.743   7.995  17.549  0.00  0.00    +0.000 C 
ATOM     29  C   UNL     1       5.929   6.628  16.439  0.00  0.00    +0.000 C 
ATOM     30  C   UNL     1       5.290   5.242  16.285  0.00  0.00    +0.000 C 
ENDBRANCH  22  24
ENDBRANCH  21  22
ENDBRANCH  20  21
ENDBRANCH   7  20
TORSDOF 6
ENDMDL
MODEL 6
REMARK VINA RESULT:      -7.0      0.764      1.223
REMARK  Name = 
REMARK  8 active torsions:
REMARK  status: ('A' for Active; 'I' for Inactive)
REMARK    1  A    between atoms: C_1  and  O_2
REMARK    2  A    between atoms: O_2  and  C_3
REMARK    3  A    between atoms: C_6  and  N_7
REMARK    4  A    between atoms: C_13  and  C_14
REMARK    5  A    between atoms: C_14  and  S_15
REMARK    6  A    between atoms: S_15  and  C_16
REMARK    7  A    between atoms: C_16  and  N_18
REMARK    8  A    between atoms: C_21  and  C_22
REMARK                            x       y       z     vdW  Elec       q    Type
REMARK                         _______ _______ _______ _____ _____    ______ ____
ROOT
ATOM      1  N   UNL     1       1.117  10.246  17.828  0.00  0.00    +0.000 N 
ATOM      2  C   UNL     1       1.805   9.078  18.182  0.00  0.00    +0.000 A 
ATOM      3  N   UNL     1       1.420   8.404  19.262  0.00  0.00    +0.000 NA
ATOM      4  C   UNL     1       2.156   7.363  19.589  0.00  0.00    +0.000 A 
ATOM      5  N   UNL     1       1.792   6.653  20.714  0.00  0.00    +0.000 N 
ATOM      6  N   UNL     1       3.195   6.932  18.899  0.00  0.00    +0.000 NA
ATOM      7  C   UNL     1       3.495   7.633  17.802  0.00  0.00    +0.000 A 
ATOM      8  N   UNL     1       2.839   8.733  17.418  0.00  0.00    +0.000 NA
ATOM      9  H   UNL     1       1.482  10.596  16.952  0.00  0.00    +0.000 HD
ATOM     10  H   UNL     1       0.818   6.817  20.934  0.00  0.00    +0.000 HD
ATOM     11  H   UNL     1       2.107   5.696  20.653  0.00  0.00    +0.000 HD
ENDROOT
BRANCH   1  15
ATOM     12  C   UNL     1      -3.015  10.942  18.387  0.00  0.00    +0.000 A 
ATOM     13  C   UNL     1      -2.567  10.018  17.440  0.00  0.00    +0.000 A 
ATOM     14  C   UNL     1      -1.197   9.779  17.276  0.00  0.00    +0.000 A 
ATOM     15  C   UNL     1      -0.254  10.498  18.014  0.00  0.00    +0.000 A 
ATOM     16  C   UNL     1      -0.718  11.423  18.959  0.00  0.00    +0.000 A 
ATOM     17  C   UNL     1      -2.084  11.647  19.142  0.00  0.00    +0.000 A 
BRANCH  12  19
ATOM     18  C   UNL     1      -5.001  11.489  17.241  0.00  0.00    +0.000 C 
ATOM     19  O   UNL     1      -4.372  11.105  18.461  0.00  0.00    +0.000 OA
ENDBRANCH  12  19
ENDBRANCH   1  15
BRANCH   7  20
ATOM     20  C   UNL     1       4.695   7.206  16.973  0.00  0.00    +0.000 C 
BRANCH  20  21
ATOM     21  S   UNL     1       4.559   5.502  16.364  0.00  0.00    +0.000 S 
BRANCH  21  22
ATOM     22  C   UNL     1       5.347   4.468  17.560  0.00  0.00    +0.000 C 
ATOM     23  S   UNL     1       6.991   4.550  17.908  0.00  0.00    +0.000 S 
BRANCH  22  24
ATOM     24  N   UNL     1       4.454   3.588  18.204  0.00  0.00    +0.000 N 
ATOM     25  C   UNL     1       3.360   2.883  17.519  0.00  0.00    +0.000 C 
ATOM     26  C   UNL     1       2.025   3.160  18.198  0.00  0.00    +0.000 C 
ATOM     27  C   UNL     1       2.079   2.751  19.676  0.00  0.00    +0.000 C 
ATOM     28  C   UNL     1       0.765   3.098  20.372  0.00  0.00    +0.000 C 
ATOM     29  C   UNL     1       3.272   3.423  20.372  0.00  0.00    +0.000 C 
ATOM     30  C   UNL     1       4.588   3.193  19.617  0.00  0.00    +0.000 C 
ENDBRANCH  22  24
ENDBRANCH  21  22
ENDBRANCH  20  21
ENDBRANCH   7  20
TORSDOF 6
ENDMDL
MODEL 7
REMARK VINA RESULT:      -6.9      1.223      1.719
REMARK  Name = 
REMARK  8 active torsions:
REMARK  status: ('A' for Active; 'I' for Inactive)
REMARK    1  A    between atoms: C_1  and  O_2
REMARK    2  A    between atoms: O_2  and  C_3
REMARK    3  A    between atoms: C_6  and  N_7
REMARK    4  A    between atoms: C_13  and  C_14
REMARK    5  A    between atoms: C_14  and  S_15
REMARK    6  A    between atoms: S_15  and  C_16
REMARK    7  A    between atoms: C_16  and  N_18
REMARK    8  A    between atoms: C_21  and  C_22
REMARK                            x       y       z     vdW  Elec       q    Type
REMARK                         _______ _______ _______ _____ _____    ______ ____
ROOT
ATOM      1  N   UNL     1       0.098  10.148  17.888  0.00  0.00    +0.000 N 
ATOM      2  C   UNL     1       0.611   9.360  18.926  0.00  0.00    +0.000 A 
ATOM      3  N   UNL     1       0.112   9.501  20.151  0.00  0.00    +0.000 NA
ATOM      4  C   UNL     1       0.691   8.794  21.099  0.00  0.00    +0.000 A 
ATOM      5  N   UNL     1       0.207   8.932  22.383  0.00  0.00    +0.000 N 
ATOM      6  N   UNL     1       1.677   7.939  20.901  0.00  0.00    +0.000 NA
ATOM      7  C   UNL     1       2.096   7.816  19.638  0.00  0.00    +0.000 A 
ATOM      8  N   UNL     1       1.605   8.529  18.619  0.00  0.00    +0.000 NA
ATOM      9  H   UNL     1       0.528   9.871  17.015  0.00  0.00    +0.000 HD
ATOM     10  H   UNL     1      -0.739   9.287  22.366  0.00  0.00    +0.000 HD
ATOM     11  H   UNL     1       0.389   8.101  22.927  0.00  0.00    +0.000 HD
ENDROOT
BRANCH   1  15
ATOM     12  C   UNL     1      -3.911  11.423  17.480  0.00  0.00    +0.000 A 
ATOM     13  C   UNL     1      -3.402  10.399  16.679  0.00  0.00    +0.000 A 
ATOM     14  C   UNL     1      -2.078   9.969  16.834  0.00  0.00    +0.000 A 
ATOM     15  C   UNL     1      -1.229  10.592  17.753  0.00  0.00    +0.000 A 
ATOM     16  C   UNL     1      -1.753  11.620  18.548  0.00  0.00    +0.000 A 
ATOM     17  C   UNL     1      -3.080  12.035  18.411  0.00  0.00    +0.000 A 
BRANCH  12  19
ATOM     18  C   UNL     1      -6.005  11.986  18.405  0.00  0.00    +0.000 C 
ATOM     19  O   UNL     1      -5.213  11.772  17.240  0.00  0.00    +0.000 OA
ENDBRANCH  12  19
ENDBRANCH   1  15
BRANCH   7  20
ATOM     20  C   UNL     1       3.244   6.867  19.343  0.00  0.00    +0.000 C 
BRANCH  20  21
ATOM     21  S   UNL     1       3.462   6.558  17.568  0.00  0.00    +0.000 S 
BRANCH  21  22
ATOM     22  C   UNL     1       4.160   4.944  17.412  0.00  0.00    +0.000 C 
ATOM     23  S   UNL     1       5.602   4.638  16.600  0.00  0.00    +0.000 S 
BRANCH  22  24
ATOM     24  N   UNL     1       3.399   3.948  18.055  0.00  0.00    +0.000 N 
ATOM     25  C   UNL     1       1.932   3.865  17.989  0.00  0.00    +0.000 C 
ATOM     26  C   UNL     1       1.325   3.841  19.386  0.00  0.00    +0.000 C 
ATOM     27  C   UNL     1       1.888   2.666  20.196  0.00  0.00    +0.000 C 
ATOM     28  C   UNL     1       1.334   2.688  21.619  0.00  0.00    +0.000 C 
ATOM     29  C   UNL     1       3.423   2.706  20.196  0.00  0.00    +0.000 C 
ATOM     30  C   UNL     1       4.000   2.813  18.778  0.00  0.00    +0.000 C 
ENDBRANCH  22  24
ENDBRANCH  21  22
ENDBRANCH  20  21
ENDBRANCH   7  20
TORSDOF 6
ENDMDL
MODEL 8
REMARK VINA RESULT:      -6.9      4.934      9.712
REMARK  Name = 
REMARK  8 active torsions:
REMARK  status: ('A' for Active; 'I' for Inactive)
REMARK    1  A    between atoms: C_1  and  O_2
REMARK    2  A    between atoms: O_2  and  C_3
REMARK    3  A    between atoms: C_6  and  N_7
REMARK    4  A    between atoms: C_13  and  C_14
REMARK    5  A    between atoms: C_14  and  S_15
REMARK    6  A    between atoms: S_15  and  C_16
REMARK    7  A    between atoms: C_16  and  N_18
REMARK    8  A    between atoms: C_21  and  C_22
REMARK                            x       y       z     vdW  Elec       q    Type
REMARK                         _______ _______ _______ _____ _____    ______ ____
ROOT
ATOM      1  N   UNL     1       1.892   6.836  21.106  0.00  0.00    +0.000 N 
ATOM      2  C   UNL     1       1.458   8.077  20.625  0.00  0.00    +0.000 A 
ATOM      3  N   UNL     1       1.682   8.391  19.352  0.00  0.00    +0.000 NA
ATOM      4  C   UNL     1       1.324   9.602  18.981  0.00  0.00    +0.000 A 
ATOM      5  N   UNL     1       1.559   9.964  17.671  0.00  0.00    +0.000 N 
ATOM      6  N   UNL     1       0.727  10.482  19.764  0.00  0.00    +0.000 NA
ATOM      7  C   UNL     1       0.494  10.080  21.017  0.00  0.00    +0.000 A 
ATOM      8  N   UNL     1       0.866   8.889  21.499  0.00  0.00    +0.000 NA
ATOM      9  H   UNL     1       1.585   6.721  22.062  0.00  0.00    +0.000 HD
ATOM     10  H   UNL     1       1.654   9.141  17.091  0.00  0.00    +0.000 HD
ATOM     11  H   UNL     1       0.912  10.679  17.374  0.00  0.00    +0.000 HD
ENDROOT
BRANCH   1  15
ATOM     12  C   UNL     1       2.134   3.209  18.947  0.00  0.00    +0.000 A 
ATOM     13  C   UNL     1       3.166   4.148  18.884  0.00  0.00    +0.000 A 
ATOM     14  C   UNL     1       3.086   5.338  19.619  0.00  0.00    +0.000 A 
ATOM     15  C   UNL     1       1.953   5.632  20.381  0.00  0.00    +0.000 A 
ATOM     16  C   UNL     1       0.925   4.681  20.432  0.00  0.00    +0.000 A 
ATOM     17  C   UNL     1       1.011   3.483  19.720  0.00  0.00    +0.000 A 
BRANCH  12  19
ATOM     18  C   UNL     1       3.623   1.538  18.209  0.00  0.00    +0.000 C 
ATOM     19  O   UNL     1       2.308   2.086  18.185  0.00  0.00    +0.000 OA
ENDBRANCH  12  19
ENDBRANCH   1  15
BRANCH   7  20
ATOM     20  C   UNL     1      -0.169  11.050  21.979  0.00  0.00    +0.000 C 
BRANCH  20  21
ATOM     21  S   UNL     1      -1.255  12.239  21.143  0.00  0.00    +0.000 S 
BRANCH  21  22
ATOM     22  C   UNL     1      -2.055  13.177  22.407  0.00  0.00    +0.000 C 
ATOM     23  S   UNL     1      -1.343  14.501  23.163  0.00  0.00    +0.000 S 
BRANCH  22  24
ATOM     24  N   UNL     1      -3.356  12.718  22.696  0.00  0.00    +0.000 N 
ATOM     25  C   UNL     1      -4.446  12.665  21.709  0.00  0.00    +0.000 C 
ATOM     26  C   UNL     1      -5.669  13.424  22.210  0.00  0.00    +0.000 C 
ATOM     27  C   UNL     1      -6.140  12.856  23.555  0.00  0.00    +0.000 C 
ATOM     28  C   UNL     1      -7.319  13.665  24.090  0.00  0.00    +0.000 C 
ATOM     29  C   UNL     1      -4.979  12.833  24.560  0.00  0.00    +0.000 C 
ATOM     30  C   UNL     1      -3.736  12.134  23.994  0.00  0.00    +0.000 C 
ENDBRANCH  22  24
ENDBRANCH  21  22
ENDBRANCH  20  21
ENDBRANCH   7  20
TORSDOF 6
ENDMDL
MODEL 9
REMARK VINA RESULT:      -6.7      2.067      3.481
REMARK  Name = 
REMARK  8 active torsions:
REMARK  status: ('A' for Active; 'I' for Inactive)
REMARK    1  A    between atoms: C_1  and  O_2
REMARK    2  A    between atoms: O_2  and  C_3
REMARK    3  A    between atoms: C_6  and  N_7
REMARK    4  A    between atoms: C_13  and  C_14
REMARK    5  A    between atoms: C_14  and  S_15
REMARK    6  A    between atoms: S_15  and  C_16
REMARK    7  A    between atoms: C_16  and  N_18
REMARK    8  A    between atoms: C_21  and  C_22
REMARK                            x       y       z     vdW  Elec       q    Type
REMARK                         _______ _______ _______ _____ _____    ______ ____
ROOT
ATOM      1  N   UNL     1      -0.579  10.644  18.674  0.00  0.00    +0.000 N 
ATOM      2  C   UNL     1       0.006   9.773  19.602  0.00  0.00    +0.000 A 
ATOM      3  N   UNL     1      -0.411   9.800  20.865  0.00  0.00    +0.000 NA
ATOM      4  C   UNL     1       0.233   9.019  21.706  0.00  0.00    +0.000 A 
ATOM      5  N   UNL     1      -0.165   9.038  23.026  0.00  0.00    +0.000 N 
ATOM      6  N   UNL     1       1.207   8.194  21.368  0.00  0.00    +0.000 NA
ATOM      7  C   UNL     1       1.541   8.188  20.075  0.00  0.00    +0.000 A 
ATOM      8  N   UNL     1       0.980   8.983  19.157  0.00  0.00    +0.000 NA
ATOM      9  H   UNL     1      -0.207  10.450  17.754  0.00  0.00    +0.000 HD
ATOM     10  H   UNL     1      -1.111   9.384  23.104  0.00  0.00    +0.000 HD
ATOM     11  H   UNL     1       0.057   8.164  23.481  0.00  0.00    +0.000 HD
ENDROOT
BRANCH   1  15
ATOM     12  C   UNL     1      -4.612  11.909  18.652  0.00  0.00    +0.000 A 
ATOM     13  C   UNL     1      -4.175  10.900  17.791  0.00  0.00    +0.000 A 
ATOM     14  C   UNL     1      -2.841  10.473  17.820  0.00  0.00    +0.000 A 
ATOM     15  C   UNL     1      -1.914  11.085  18.667  0.00  0.00    +0.000 A 
ATOM     16  C   UNL     1      -2.367  12.098  19.523  0.00  0.00    +0.000 A 
ATOM     17  C   UNL     1      -3.701  12.510  19.513  0.00  0.00    +0.000 A 
BRANCH  12  19
ATOM     18  C   UNL     1      -6.329  12.694  17.240  0.00  0.00    +0.000 C 
ATOM     19  O   UNL     1      -5.931  12.257  18.536  0.00  0.00    +0.000 OA
ENDBRANCH  12  19
ENDBRANCH   1  15
BRANCH   7  20
ATOM     20  C   UNL     1       2.671   7.280  19.621  0.00  0.00    +0.000 C 
BRANCH  20  21
ATOM     21  S   UNL     1       2.410   5.545  20.086  0.00  0.00    +0.000 S 
BRANCH  21  22
ATOM     22  C   UNL     1       2.758   4.573  18.653  0.00  0.00    +0.000 C 
ATOM     23  S   UNL     1       1.598   3.639  17.871  0.00  0.00    +0.000 S 
BRANCH  22  24
ATOM     24  N   UNL     1       4.095   4.682  18.224  0.00  0.00    +0.000 N 
ATOM     25  C   UNL     1       5.258   4.399  19.080  0.00  0.00    +0.000 C 
ATOM     26  C   UNL     1       6.209   5.588  19.117  0.00  0.00    +0.000 C 
ATOM     27  C   UNL     1       6.668   5.953  17.699  0.00  0.00    +0.000 C 
ATOM     28  C   UNL     1       7.562   7.190  17.731  0.00  0.00    +0.000 C 
ATOM     29  C   UNL     1       5.453   6.167  16.783  0.00  0.00    +0.000 C 
ATOM     30  C   UNL     1       4.475   4.986  16.833  0.00  0.00    +0.000 C 
ENDBRANCH  22  24
ENDBRANCH  21  22
ENDBRANCH  20  21
ENDBRANCH   7  20
TORSDOF 6
ENDMDL
