MODEL 1
REMARK VINA RESULT:      -8.3      0.000      0.000
REMARK  Name = 
REMARK  6 active torsions:
REMARK  status: ('A' for Active; 'I' for Inactive)
REMARK    1  A    between atoms: C_1  and  C_2
REMARK    2  A    between atoms: C_2  and  C_3
REMARK    3  A    between atoms: C_2  and  C_7
REMARK    4  A    between atoms: N_5  and  O_6
REMARK    5  A    between atoms: C_10  and  C_11
REMARK    6  A    between atoms: C_14  and  C_15
REMARK                            x       y       z     vdW  Elec       q    Type
REMARK                         _______ _______ _______ _____ _____    ______ ____
ROOT
ATOM      1  C   UNL     1       4.522   5.171  16.665  0.00  0.00    +0.000 A 
ATOM      2  C   UNL     1       4.772   6.548  16.627  0.00  0.00    +0.000 A 
ATOM      3  C   UNL     1       3.975   7.435  17.351  0.00  0.00    +0.000 A 
ATOM      4  C   UNL     1       2.899   6.987  18.137  0.00  0.00    +0.000 A 
ATOM      5  C   UNL     1       2.644   5.604  18.127  0.00  0.00    +0.000 A 
ATOM      6  F   UNL     1       1.616   5.088  18.820  0.00  0.00    +0.000 F 
ATOM      7  C   UNL     1       3.438   4.708  17.413  0.00  0.00    +0.000 A 
ENDROOT
BRANCH   4   8
ATOM      8  C   UNL     1       2.123   7.935  18.970  0.00  0.00    +0.000 A 
ATOM      9  C   UNL     1       1.866   7.677  20.328  0.00  0.00    +0.000 A 
ATOM     10  C   UNL     1       1.062   8.527  21.093  0.00  0.00    +0.000 A 
ATOM     11  C   UNL     1       0.507   9.678  20.525  0.00  0.00    +0.000 A 
ATOM     12  C   UNL     1       0.775   9.964  19.183  0.00  0.00    +0.000 A 
ATOM     13  C   UNL     1       1.567   9.100  18.420  0.00  0.00    +0.000 A 
BRANCH  11  14
ATOM     14  C   UNL     1      -0.375  10.594  21.336  0.00  0.00    +0.000 C 
ATOM     15  F   UNL     1       0.272  11.697  21.805  0.00  0.00    +0.000 F 
ATOM     16  F   UNL     1      -1.437  11.060  20.623  0.00  0.00    +0.000 F 
ATOM     17  F   UNL     1      -0.899   9.977  22.431  0.00  0.00    +0.000 F 
ENDBRANCH  11  14
ENDBRANCH   4   8
BRANCH   1  19
ATOM     18  C   UNL     1       5.322   4.399  14.426  0.00  0.00    +0.000 C 
ATOM     19  C   UNL     1       5.429   4.194  15.938  0.00  0.00    +0.000 C 
BRANCH  19  20
ATOM     20  C   UNL     1       6.874   4.313  16.423  0.00  0.00    +0.000 C 
ATOM     21  O   UNL     1       7.820   4.626  15.702  0.00  0.00    +0.000 OA
ATOM     22  N   UNL     1       7.065   4.018  17.753  0.00  0.00    +0.000 N 
ATOM     23  H   UNL     1       6.346   3.722  18.404  0.00  0.00    +0.000 HD
BRANCH  22  24
ATOM     24  O   UNL     1       8.383   4.128  18.244  0.00  0.00    +0.000 OA
ATOM     25  H   UNL     1       8.881   3.532  17.642  0.00  0.00    +0.000 HD
ENDBRANCH  22  24
ENDBRANCH  19  20
ENDBRANCH   1  19
TORSDOF 5
ENDMDL
MODEL 2
REMARK VINA RESULT:      -8.1      1.408      1.826
REMARK  Name = 
REMARK  6 active torsions:
REMARK  status: ('A' for Active; 'I' for Inactive)
REMARK    1  A    between atoms: C_1  and  C_2
REMARK    2  A    between atoms: C_2  and  C_3
REMARK    3  A    between atoms: C_2  and  C_7
REMARK    4  A    between atoms: N_5  and  O_6
REMARK    5  A    between atoms: C_10  and  C_11
REMARK    6  A    between atoms: C_14  and  C_15
REMARK                            x       y       z     vdW  Elec       q    Type
REMARK                         _______ _______ _______ _____ _____    ______ ____
ROOT
ATOM      1  C   UNL     1       4.908   4.859  16.059  0.00  0.00    +0.000 A 
ATOM      2  C   UNL     1       5.038   6.249  16.173  0.00  0.00    +0.000 A 
ATOM      3  C   UNL     1       4.242   6.966  17.068  0.00  0.00    +0.000 A 
ATOM      4  C   UNL     1       3.287   6.329  17.879  0.00  0.00    +0.000 A 
ATOM      5  C   UNL     1       3.147   4.939  17.716  0.00  0.00    +0.000 A 
ATOM      6  F   UNL     1       2.237   4.251  18.424  0.00  0.00    +0.000 F 
ATOM      7  C   UNL     1       3.941   4.212  16.832  0.00  0.00    +0.000 A 
ENDROOT
BRANCH   4   8
ATOM      8  C   UNL     1       2.518   7.096  18.887  0.00  0.00    +0.000 A 
ATOM      9  C   UNL     1       2.198   6.544  20.139  0.00  0.00    +0.000 A 
ATOM     10  C   UNL     1       1.400   7.232  21.058  0.00  0.00    +0.000 A 
ATOM     11  C   UNL     1       0.914   8.508  20.758  0.00  0.00    +0.000 A 
ATOM     12  C   UNL     1       1.245   9.083  19.527  0.00  0.00    +0.000 A 
ATOM     13  C   UNL     1       2.031   8.382  18.607  0.00  0.00    +0.000 A 
BRANCH  11  14
ATOM     14  C   UNL     1       0.038   9.254  21.733  0.00  0.00    +0.000 C 
ATOM     15  F   UNL     1      -0.663  10.274  21.164  0.00  0.00    +0.000 F 
ATOM     16  F   UNL     1      -0.886   8.449  22.324  0.00  0.00    +0.000 F 
ATOM     17  F   UNL     1       0.753   9.815  22.748  0.00  0.00    +0.000 F 
ENDBRANCH  11  14
ENDBRANCH   4   8
BRANCH   1  19
ATOM     18  C   UNL     1       5.157   3.875  13.774  0.00  0.00    +0.000 C 
ATOM     19  C   UNL     1       5.819   4.064  15.141  0.00  0.00    +0.000 C 
BRANCH  19  20
ATOM     20  C   UNL     1       7.193   4.723  15.017  0.00  0.00    +0.000 C 
ATOM     21  O   UNL     1       8.026   4.756  15.921  0.00  0.00    +0.000 OA
ATOM     22  N   UNL     1       7.444   5.315  13.801  0.00  0.00    +0.000 N 
ATOM     23  H   UNL     1       6.800   5.358  13.018  0.00  0.00    +0.000 HD
BRANCH  22  24
ATOM     24  O   UNL     1       8.706   5.923  13.639  0.00  0.00    +0.000 OA
ATOM     25  H   UNL     1       9.304   5.282  14.083  0.00  0.00    +0.000 HD
ENDBRANCH  22  24
ENDBRANCH  19  20
ENDBRANCH   1  19
TORSDOF 5
ENDMDL
MODEL 3
REMARK VINA RESULT:      -8.1      2.015      2.905
REMARK  Name = 
REMARK  6 active torsions:
REMARK  status: ('A' for Active; 'I' for Inactive)
REMARK    1  A    between atoms: C_1  and  C_2
REMARK    2  A    between atoms: C_2  and  C_3
REMARK    3  A    between atoms: C_2  and  C_7
REMARK    4  A    between atoms: N_5  and  O_6
REMARK    5  A    between atoms: C_10  and  C_11
REMARK    6  A    between atoms: C_14  and  C_15
REMARK                            x       y       z     vdW  Elec       q    Type
REMARK                         _______ _______ _______ _____ _____    ______ ____
ROOT
ATOM      1  C   UNL     1       3.117   5.554  18.728  0.00  0.00    +0.000 A 
ATOM      2  C   UNL     1       2.513   5.364  19.977  0.00  0.00    +0.000 A 
ATOM      3  C   UNL     1       1.860   6.416  20.619  0.00  0.00    +0.000 A 
ATOM      4  C   UNL     1       1.784   7.697  20.044  0.00  0.00    +0.000 A 
ATOM      5  C   UNL     1       2.432   7.873  18.809  0.00  0.00    +0.000 A 
ATOM      6  F   UNL     1       2.442   9.071  18.202  0.00  0.00    +0.000 F 
ATOM      7  C   UNL     1       3.081   6.828  18.156  0.00  0.00    +0.000 A 
ENDROOT
BRANCH   4   8
ATOM      8  C   UNL     1       1.008   8.775  20.699  0.00  0.00    +0.000 A 
ATOM      9  C   UNL     1       0.996   8.924  22.098  0.00  0.00    +0.000 A 
ATOM     10  C   UNL     1       0.197   9.885  22.723  0.00  0.00    +0.000 A 
ATOM     11  C   UNL     1      -0.603  10.745  21.963  0.00  0.00    +0.000 A 
ATOM     12  C   UNL     1      -0.582  10.629  20.570  0.00  0.00    +0.000 A 
ATOM     13  C   UNL     1       0.208   9.654  19.952  0.00  0.00    +0.000 A 
BRANCH  11  14
ATOM     14  C   UNL     1      -1.482  11.775  22.626  0.00  0.00    +0.000 C 
ATOM     15  F   UNL     1      -0.784  12.759  23.259  0.00  0.00    +0.000 F 
ATOM     16  F   UNL     1      -2.301  12.408  21.742  0.00  0.00    +0.000 F 
ATOM     17  F   UNL     1      -2.297  11.231  23.572  0.00  0.00    +0.000 F 
ENDBRANCH  11  14
ENDBRANCH   4   8
BRANCH   1  19
ATOM     18  C   UNL     1       4.474   4.902  16.732  0.00  0.00    +0.000 C 
ATOM     19  C   UNL     1       3.766   4.397  17.991  0.00  0.00    +0.000 C 
BRANCH  19  20
ATOM     20  C   UNL     1       4.720   3.625  18.903  0.00  0.00    +0.000 C 
ATOM     21  O   UNL     1       5.765   4.086  19.358  0.00  0.00    +0.000 OA
ATOM     22  N   UNL     1       4.339   2.331  19.177  0.00  0.00    +0.000 N 
ATOM     23  H   UNL     1       3.512   1.868  18.817  0.00  0.00    +0.000 HD
BRANCH  22  24
ATOM     24  O   UNL     1       5.185   1.587  20.026  0.00  0.00    +0.000 OA
ATOM     25  H   UNL     1       4.767   1.721  20.906  0.00  0.00    +0.000 HD
ENDBRANCH  22  24
ENDBRANCH  19  20
ENDBRANCH   1  19
TORSDOF 5
ENDMDL
MODEL 4
REMARK VINA RESULT:      -8.1      1.429      2.080
REMARK  Name = 
REMARK  6 active torsions:
REMARK  status: ('A' for Active; 'I' for Inactive)
REMARK    1  A    between atoms: C_1  and  C_2
REMARK    2  A    between atoms: C_2  and  C_3
REMARK    3  A    between atoms: C_2  and  C_7
REMARK    4  A    between atoms: N_5  and  O_6
REMARK    5  A    between atoms: C_10  and  C_11
REMARK    6  A    between atoms: C_14  and  C_15
REMARK                            x       y       z     vdW  Elec       q    Type
REMARK                         _______ _______ _______ _____ _____    ______ ____
ROOT
ATOM      1  C   UNL     1       4.853   4.833  16.076  0.00  0.00    +0.000 A 
ATOM      2  C   UNL     1       5.043   6.204  16.290  0.00  0.00    +0.000 A 
ATOM      3  C   UNL     1       4.235   6.903  17.187  0.00  0.00    +0.000 A 
ATOM      4  C   UNL     1       3.205   6.266  17.902  0.00  0.00    +0.000 A 
ATOM      5  C   UNL     1       3.008   4.899  17.640  0.00  0.00    +0.000 A 
ATOM      6  F   UNL     1       2.026   4.215  18.250  0.00  0.00    +0.000 F 
ATOM      7  C   UNL     1       3.814   4.189  16.752  0.00  0.00    +0.000 A 
ENDROOT
BRANCH   4   8
ATOM      8  C   UNL     1       2.419   7.006  18.916  0.00  0.00    +0.000 A 
ATOM      9  C   UNL     1       1.997   8.328  18.694  0.00  0.00    +0.000 A 
ATOM     10  C   UNL     1       1.330   9.058  19.683  0.00  0.00    +0.000 A 
ATOM     11  C   UNL     1       1.046   8.476  20.922  0.00  0.00    +0.000 A 
ATOM     12  C   UNL     1       1.435   7.153  21.150  0.00  0.00    +0.000 A 
ATOM     13  C   UNL     1       2.116   6.434  20.162  0.00  0.00    +0.000 A 
BRANCH  11  14
ATOM     14  C   UNL     1       0.342   9.257  22.003  0.00  0.00    +0.000 C 
ATOM     15  F   UNL     1      -0.020  10.513  21.618  0.00  0.00    +0.000 F 
ATOM     16  F   UNL     1      -0.802   8.652  22.423  0.00  0.00    +0.000 F 
ATOM     17  F   UNL     1       1.113   9.417  23.114  0.00  0.00    +0.000 F 
ENDBRANCH  11  14
ENDBRANCH   4   8
BRANCH   1  19
ATOM     18  C   UNL     1       5.121   3.868  13.786  0.00  0.00    +0.000 C 
ATOM     19  C   UNL     1       5.774   4.052  15.157  0.00  0.00    +0.000 C 
BRANCH  19  20
ATOM     20  C   UNL     1       7.143   4.722  15.045  0.00  0.00    +0.000 C 
ATOM     21  O   UNL     1       7.959   4.783  15.963  0.00  0.00    +0.000 OA
ATOM     22  N   UNL     1       7.412   5.291  13.821  0.00  0.00    +0.000 N 
ATOM     23  H   UNL     1       6.782   5.311  13.026  0.00  0.00    +0.000 HD
BRANCH  22  24
ATOM     24  O   UNL     1       8.671   5.908  13.670  0.00  0.00    +0.000 OA
ATOM     25  H   UNL     1       8.868   6.206  14.585  0.00  0.00    +0.000 HD
ENDBRANCH  22  24
ENDBRANCH  19  20
ENDBRANCH   1  19
TORSDOF 5
ENDMDL
MODEL 5
REMARK VINA RESULT:      -8.0      1.239      1.851
REMARK  Name = 
REMARK  6 active torsions:
REMARK  status: ('A' for Active; 'I' for Inactive)
REMARK    1  A    between atoms: C_1  and  C_2
REMARK    2  A    between atoms: C_2  and  C_3
REMARK    3  A    between atoms: C_2  and  C_7
REMARK    4  A    between atoms: N_5  and  O_6
REMARK    5  A    between atoms: C_10  and  C_11
REMARK    6  A    between atoms: C_14  and  C_15
REMARK                            x       y       z     vdW  Elec       q    Type
REMARK                         _______ _______ _______ _____ _____    ______ ____
ROOT
ATOM      1  C   UNL     1       3.766   5.478  18.078  0.00  0.00    +0.000 A 
ATOM      2  C   UNL     1       3.793   6.821  17.681  0.00  0.00    +0.000 A 
ATOM      3  C   UNL     1       3.010   7.772  18.334  0.00  0.00    +0.000 A 
ATOM      4  C   UNL     1       2.168   7.424  19.405  0.00  0.00    +0.000 A 
ATOM      5  C   UNL     1       2.127   6.064  19.759  0.00  0.00    +0.000 A 
ATOM      6  F   UNL     1       1.326   5.633  20.747  0.00  0.00    +0.000 F 
ATOM      7  C   UNL     1       2.911   5.107  19.118  0.00  0.00    +0.000 A 
ENDROOT
BRANCH   4   8
ATOM      8  C   UNL     1       1.414   8.464  20.143  0.00  0.00    +0.000 A 
ATOM      9  C   UNL     1       1.298   8.428  21.544  0.00  0.00    +0.000 A 
ATOM     10  C   UNL     1       0.517   9.359  22.236  0.00  0.00    +0.000 A 
ATOM     11  C   UNL     1      -0.158  10.371  21.545  0.00  0.00    +0.000 A 
ATOM     12  C   UNL     1      -0.031  10.437  20.154  0.00  0.00    +0.000 A 
ATOM     13  C   UNL     1       0.740   9.493  19.468  0.00  0.00    +0.000 A 
BRANCH  11  14
ATOM     14  C   UNL     1      -1.017  11.370  22.278  0.00  0.00    +0.000 C 
ATOM     15  F   UNL     1      -2.056  11.842  21.534  0.00  0.00    +0.000 F 
ATOM     16  F   UNL     1      -1.572  10.852  23.407  0.00  0.00    +0.000 F 
ATOM     17  F   UNL     1      -0.314  12.468  22.674  0.00  0.00    +0.000 F 
ENDBRANCH  11  14
ENDBRANCH   4   8
BRANCH   1  19
ATOM     18  C   UNL     1       4.772   4.723  15.918  0.00  0.00    +0.000 C 
ATOM     19  C   UNL     1       4.669   4.452  17.420  0.00  0.00    +0.000 C 
BRANCH  19  20
ATOM     20  C   UNL     1       6.046   4.418  18.083  0.00  0.00    +0.000 C 
ATOM     21  O   UNL     1       6.241   4.620  19.280  0.00  0.00    +0.000 OA
ATOM     22  N   UNL     1       7.094   4.162  17.229  0.00  0.00    +0.000 N 
ATOM     23  H   UNL     1       7.021   4.016  16.228  0.00  0.00    +0.000 HD
BRANCH  22  24
ATOM     24  O   UNL     1       8.382   4.108  17.802  0.00  0.00    +0.000 OA
ATOM     25  H   UNL     1       8.248   4.570  18.659  0.00  0.00    +0.000 HD
ENDBRANCH  22  24
ENDBRANCH  19  20
ENDBRANCH   1  19
TORSDOF 5
ENDMDL
MODEL 6
REMARK VINA RESULT:      -8.0      0.765      1.255
REMARK  Name = 
REMARK  6 active torsions:
REMARK  status: ('A' for Active; 'I' for Inactive)
REMARK    1  A    between atoms: C_1  and  C_2
REMARK    2  A    between atoms: C_2  and  C_3
REMARK    3  A    between atoms: C_2  and  C_7
REMARK    4  A    between atoms: N_5  and  O_6
REMARK    5  A    between atoms: C_10  and  C_11
REMARK    6  A    between atoms: C_14  and  C_15
REMARK                            x       y       z     vdW  Elec       q    Type
REMARK                         _______ _______ _______ _____ _____    ______ ____
ROOT
ATOM      1  C   UNL     1       4.666   5.240  17.219  0.00  0.00    +0.000 A 
ATOM      2  C   UNL     1       4.745   6.604  16.912  0.00  0.00    +0.000 A 
ATOM      3  C   UNL     1       3.829   7.508  17.449  0.00  0.00    +0.000 A 
ATOM      4  C   UNL     1       2.798   7.090  18.309  0.00  0.00    +0.000 A 
ATOM      5  C   UNL     1       2.715   5.711  18.570  0.00  0.00    +0.000 A 
ATOM      6  F   UNL     1       1.742   5.216  19.353  0.00  0.00    +0.000 F 
ATOM      7  C   UNL     1       3.629   4.800  18.045  0.00  0.00    +0.000 A 
ENDROOT
BRANCH   4   8
ATOM      8  C   UNL     1       1.893   8.079  18.941  0.00  0.00    +0.000 A 
ATOM      9  C   UNL     1       1.294   9.107  18.192  0.00  0.00    +0.000 A 
ATOM     10  C   UNL     1       0.509  10.091  18.800  0.00  0.00    +0.000 A 
ATOM     11  C   UNL     1       0.282  10.063  20.180  0.00  0.00    +0.000 A 
ATOM     12  C   UNL     1       0.848   9.032  20.935  0.00  0.00    +0.000 A 
ATOM     13  C   UNL     1       1.645   8.060  20.322  0.00  0.00    +0.000 A 
BRANCH  11  14
ATOM     14  C   UNL     1      -0.549  11.128  20.850  0.00  0.00    +0.000 C 
ATOM     15  F   UNL     1       0.122  12.297  21.048  0.00  0.00    +0.000 F 
ATOM     16  F   UNL     1      -1.659  11.452  20.132  0.00  0.00    +0.000 F 
ATOM     17  F   UNL     1      -0.995  10.743  22.078  0.00  0.00    +0.000 F 
ENDBRANCH  11  14
ENDBRANCH   4   8
BRANCH   1  19
ATOM     18  C   UNL     1       5.849   4.407  15.181  0.00  0.00    +0.000 C 
ATOM     19  C   UNL     1       5.701   4.261  16.697  0.00  0.00    +0.000 C 
BRANCH  19  20
ATOM     20  C   UNL     1       7.041   4.436  17.414  0.00  0.00    +0.000 C 
ATOM     21  O   UNL     1       8.134   4.222  16.894  0.00  0.00    +0.000 OA
ATOM     22  N   UNL     1       6.948   4.838  18.726  0.00  0.00    +0.000 N 
ATOM     23  H   UNL     1       6.086   5.004  19.235  0.00  0.00    +0.000 HD
BRANCH  22  24
ATOM     24  O   UNL     1       8.161   5.025  19.420  0.00  0.00    +0.000 OA
ATOM     25  H   UNL     1       8.645   5.645  18.832  0.00  0.00    +0.000 HD
ENDBRANCH  22  24
ENDBRANCH  19  20
ENDBRANCH   1  19
TORSDOF 5
ENDMDL
MODEL 7
REMARK VINA RESULT:      -7.9      1.141      1.937
REMARK  Name = 
REMARK  6 active torsions:
REMARK  status: ('A' for Active; 'I' for Inactive)
REMARK    1  A    between atoms: C_1  and  C_2
REMARK    2  A    between atoms: C_2  and  C_3
REMARK    3  A    between atoms: C_2  and  C_7
REMARK    4  A    between atoms: N_5  and  O_6
REMARK    5  A    between atoms: C_10  and  C_11
REMARK    6  A    between atoms: C_14  and  C_15
REMARK                            x       y       z     vdW  Elec       q    Type
REMARK                         _______ _______ _______ _____ _____    ______ ____
ROOT
ATOM      1  C   UNL     1       3.932   5.669  17.732  0.00  0.00    +0.000 A 
ATOM      2  C   UNL     1       3.899   7.026  17.388  0.00  0.00    +0.000 A 
ATOM      3  C   UNL     1       3.064   7.912  18.069  0.00  0.00    +0.000 A 
ATOM      4  C   UNL     1       2.229   7.482  19.115  0.00  0.00    +0.000 A 
ATOM      5  C   UNL     1       2.250   6.109  19.415  0.00  0.00    +0.000 A 
ATOM      6  F   UNL     1       1.461   5.601  20.376  0.00  0.00    +0.000 F 
ATOM      7  C   UNL     1       3.085   5.216  18.747  0.00  0.00    +0.000 A 
ENDROOT
BRANCH   4   8
ATOM      8  C   UNL     1       1.419   8.455  19.885  0.00  0.00    +0.000 A 
ATOM      9  C   UNL     1       0.737   9.506  19.249  0.00  0.00    +0.000 A 
ATOM     10  C   UNL     1       0.043  10.476  19.980  0.00  0.00    +0.000 A 
ATOM     11  C   UNL     1      -0.006  10.409  21.376  0.00  0.00    +0.000 A 
ATOM     12  C   UNL     1       0.645   9.355  22.023  0.00  0.00    +0.000 A 
ATOM     13  C   UNL     1       1.350   8.398  21.286  0.00  0.00    +0.000 A 
BRANCH  11  14
ATOM     14  C   UNL     1      -0.737  11.457  22.177  0.00  0.00    +0.000 C 
ATOM     15  F   UNL     1      -1.065  11.049  23.435  0.00  0.00    +0.000 F 
ATOM     16  F   UNL     1      -0.008  12.596  22.332  0.00  0.00    +0.000 F 
ATOM     17  F   UNL     1      -1.907  11.836  21.592  0.00  0.00    +0.000 F 
ENDBRANCH  11  14
ENDBRANCH   4   8
BRANCH   1  19
ATOM     18  C   UNL     1       5.229   5.223  15.643  0.00  0.00    +0.000 C 
ATOM     19  C   UNL     1       4.889   4.713  17.045  0.00  0.00    +0.000 C 
BRANCH  19  20
ATOM     20  C   UNL     1       6.148   4.490  17.884  0.00  0.00    +0.000 C 
ATOM     21  O   UNL     1       6.169   4.506  19.114  0.00  0.00    +0.000 OA
ATOM     22  N   UNL     1       7.299   4.284  17.159  0.00  0.00    +0.000 N 
ATOM     23  H   UNL     1       7.371   4.287  16.147  0.00  0.00    +0.000 HD
BRANCH  22  24
ATOM     24  O   UNL     1       8.481   4.059  17.895  0.00  0.00    +0.000 OA
ATOM     25  H   UNL     1       8.791   3.200  17.534  0.00  0.00    +0.000 HD
ENDBRANCH  22  24
ENDBRANCH  19  20
ENDBRANCH   1  19
TORSDOF 5
ENDMDL
MODEL 8
REMARK VINA RESULT:      -7.9      1.290      1.686
REMARK  Name = 
REMARK  6 active torsions:
REMARK  status: ('A' for Active; 'I' for Inactive)
REMARK    1  A    between atoms: C_1  and  C_2
REMARK    2  A    between atoms: C_2  and  C_3
REMARK    3  A    between atoms: C_2  and  C_7
REMARK    4  A    between atoms: N_5  and  O_6
REMARK    5  A    between atoms: C_10  and  C_11
REMARK    6  A    between atoms: C_14  and  C_15
REMARK                            x       y       z     vdW  Elec       q    Type
REMARK                         _______ _______ _______ _____ _____    ______ ____
ROOT
ATOM      1  C   UNL     1       4.399   5.376  17.906  0.00  0.00    +0.000 A 
ATOM      2  C   UNL     1       4.397   6.608  17.240  0.00  0.00    +0.000 A 
ATOM      3  C   UNL     1       3.489   7.606  17.594  0.00  0.00    +0.000 A 
ATOM      4  C   UNL     1       2.549   7.416  18.622  0.00  0.00    +0.000 A 
ATOM      5  C   UNL     1       2.544   6.157  19.248  0.00  0.00    +0.000 A 
ATOM      6  F   UNL     1       1.658   5.873  20.216  0.00  0.00    +0.000 F 
ATOM      7  C   UNL     1       3.451   5.155  18.907  0.00  0.00    +0.000 A 
ENDROOT
BRANCH   4   8
ATOM      8  C   UNL     1       1.656   8.521  19.044  0.00  0.00    +0.000 A 
ATOM      9  C   UNL     1       1.333   8.725  20.397  0.00  0.00    +0.000 A 
ATOM     10  C   UNL     1       0.424   9.712  20.789  0.00  0.00    +0.000 A 
ATOM     11  C   UNL     1      -0.175  10.542  19.836  0.00  0.00    +0.000 A 
ATOM     12  C   UNL     1       0.155  10.370  18.489  0.00  0.00    +0.000 A 
ATOM     13  C   UNL     1       1.054   9.370  18.103  0.00  0.00    +0.000 A 
BRANCH  11  14
ATOM     14  C   UNL     1      -1.170  11.599  20.245  0.00  0.00    +0.000 C 
ATOM     15  F   UNL     1      -2.290  11.621  19.470  0.00  0.00    +0.000 F 
ATOM     16  F   UNL     1      -1.605  11.439  21.525  0.00  0.00    +0.000 F 
ATOM     17  F   UNL     1      -0.649  12.856  20.180  0.00  0.00    +0.000 F 
ENDBRANCH  11  14
ENDBRANCH   4   8
BRANCH   1  19
ATOM     18  C   UNL     1       5.424   4.019  16.073  0.00  0.00    +0.000 C 
ATOM     19  C   UNL     1       5.430   4.312  17.575  0.00  0.00    +0.000 C 
BRANCH  19  20
ATOM     20  C   UNL     1       6.821   4.716  18.065  0.00  0.00    +0.000 C 
ATOM     21  O   UNL     1       7.828   4.718  17.359  0.00  0.00    +0.000 OA
ATOM     22  N   UNL     1       6.887   5.069  19.393  0.00  0.00    +0.000 N 
ATOM     23  H   UNL     1       6.112   5.064  20.048  0.00  0.00    +0.000 HD
BRANCH  22  24
ATOM     24  O   UNL     1       8.150   5.461  19.883  0.00  0.00    +0.000 OA
ATOM     25  H   UNL     1       7.980   5.554  20.847  0.00  0.00    +0.000 HD
ENDBRANCH  22  24
ENDBRANCH  19  20
ENDBRANCH   1  19
TORSDOF 5
ENDMDL
MODEL 9
REMARK VINA RESULT:      -7.9      1.753      2.496
REMARK  Name = 
REMARK  6 active torsions:
REMARK  status: ('A' for Active; 'I' for Inactive)
REMARK    1  A    between atoms: C_1  and  C_2
REMARK    2  A    between atoms: C_2  and  C_3
REMARK    3  A    between atoms: C_2  and  C_7
REMARK    4  A    between atoms: N_5  and  O_6
REMARK    5  A    between atoms: C_10  and  C_11
REMARK    6  A    between atoms: C_14  and  C_15
REMARK                            x       y       z     vdW  Elec       q    Type
REMARK                         _______ _______ _______ _____ _____    ______ ____
ROOT
ATOM      1  C   UNL     1       3.466   5.868  18.248  0.00  0.00    +0.000 A 
ATOM      2  C   UNL     1       3.323   7.168  17.747  0.00  0.00    +0.000 A 
ATOM      3  C   UNL     1       2.528   8.102  18.412  0.00  0.00    +0.000 A 
ATOM      4  C   UNL     1       1.843   7.777  19.596  0.00  0.00    +0.000 A 
ATOM      5  C   UNL     1       1.970   6.455  20.056  0.00  0.00    +0.000 A 
ATOM      6  F   UNL     1       1.324   6.045  21.159  0.00  0.00    +0.000 F 
ATOM      7  C   UNL     1       2.767   5.516  19.404  0.00  0.00    +0.000 A 
ENDROOT
BRANCH   4   8
ATOM      8  C   UNL     1       1.079   8.809  20.334  0.00  0.00    +0.000 A 
ATOM      9  C   UNL     1       1.029   8.818  21.739  0.00  0.00    +0.000 A 
ATOM     10  C   UNL     1       0.239   9.738  22.436  0.00  0.00    +0.000 A 
ATOM     11  C   UNL     1      -0.511  10.695  21.745  0.00  0.00    +0.000 A 
ATOM     12  C   UNL     1      -0.451  10.717  20.348  0.00  0.00    +0.000 A 
ATOM     13  C   UNL     1       0.329   9.783  19.658  0.00  0.00    +0.000 A 
BRANCH  11  14
ATOM     14  C   UNL     1      -1.379  11.681  22.483  0.00  0.00    +0.000 C 
ATOM     15  F   UNL     1      -1.988  11.154  23.582  0.00  0.00    +0.000 F 
ATOM     16  F   UNL     1      -0.680  12.762  22.926  0.00  0.00    +0.000 F 
ATOM     17  F   UNL     1      -2.382  12.176  21.705  0.00  0.00    +0.000 F 
ENDBRANCH  11  14
ENDBRANCH   4   8
BRANCH   1  19
ATOM     18  C   UNL     1       5.388   5.597  16.672  0.00  0.00    +0.000 C 
ATOM     19  C   UNL     1       4.386   4.868  17.570  0.00  0.00    +0.000 C 
BRANCH  19  20
ATOM     20  C   UNL     1       5.090   3.979  18.595  0.00  0.00    +0.000 C 
ATOM     21  O   UNL     1       6.084   4.318  19.236  0.00  0.00    +0.000 OA
ATOM     22  N   UNL     1       4.542   2.727  18.750  0.00  0.00    +0.000 N 
ATOM     23  H   UNL     1       3.745   2.361  18.239  0.00  0.00    +0.000 HD
BRANCH  22  24
ATOM     24  O   UNL     1       5.153   1.878  19.697  0.00  0.00    +0.000 OA
ATOM     25  H   UNL     1       5.675   2.511  20.237  0.00  0.00    +0.000 HD
ENDBRANCH  22  24
ENDBRANCH  19  20
ENDBRANCH   1  19
TORSDOF 5
ENDMDL
