MODEL 1
REMARK VINA RESULT:      -7.9      0.000      0.000
REMARK  Name = 
REMARK  11 active torsions:
REMARK  status: ('A' for Active; 'I' for Inactive)
REMARK    1  A    between atoms: C_1  and  C_2
REMARK    2  A    between atoms: C_2  and  N_3
REMARK    3  A    between atoms: N_3  and  C_4
REMARK    4  A    between atoms: N_3  and  C_6
REMARK    5  A    between atoms: C_4  and  C_5
REMARK    6  A    between atoms: C_6  and  C_7
REMARK    7  A    between atoms: C_7  and  O_8
REMARK    8  A    between atoms: O_8  and  C_9
REMARK    9  A    between atoms: C_12  and  C_13
REMARK   10  A    between atoms: C_17  and  O_18
REMARK   11  A    between atoms: C_26  and  O_27
REMARK                            x       y       z     vdW  Elec       q    Type
REMARK                         _______ _______ _______ _____ _____    ______ ____
ROOT
ATOM      1  C   UNL     1       2.126   6.324  17.878  0.00  0.00    +0.000 C 
ATOM      2  O   UNL     1       2.164   7.745  18.266  0.00  0.00    +0.000 OA
ATOM      3  C   UNL     1       1.755   8.126  19.525  0.00  0.00    +0.000 A 
ATOM      4  C   UNL     1       1.653   9.495  19.772  0.00  0.00    +0.000 A 
ATOM      5  C   UNL     1       1.046   9.927  20.950  0.00  0.00    +0.000 A 
ATOM      6  C   UNL     1       0.514   9.019  21.861  0.00  0.00    +0.000 A 
ATOM      7  C   UNL     1       0.732   7.653  21.674  0.00  0.00    +0.000 A 
ATOM      8  C   UNL     1       1.431   7.222  20.544  0.00  0.00    +0.000 A 
ATOM      9  C   UNL     1       1.779   5.851  20.290  0.00  0.00    +0.000 A 
ATOM     10  S   UNL     1       2.738   4.846  21.290  0.00  0.00    +0.000 S 
ATOM     11  C   UNL     1       2.805   3.639  20.037  0.00  0.00    +0.000 A 
ATOM     12  C   UNL     1       3.622   2.511  19.879  0.00  0.00    +0.000 A 
ATOM     13  C   UNL     1       3.240   1.591  18.901  0.00  0.00    +0.000 A 
ATOM     14  C   UNL     1       2.057   1.720  18.189  0.00  0.00    +0.000 A 
ATOM     15  C   UNL     1       1.364   2.930  18.230  0.00  0.00    +0.000 A 
ATOM     16  C   UNL     1       1.824   3.950  19.088  0.00  0.00    +0.000 A 
ATOM     17  C   UNL     1       1.873   5.371  19.011  0.00  0.00    +0.000 A 
ENDROOT
BRANCH   1  21
ATOM     18  C   UNL     1       6.071   5.273  16.198  0.00  0.00    +0.000 A 
ATOM     19  C   UNL     1       5.075   4.304  16.387  0.00  0.00    +0.000 A 
ATOM     20  C   UNL     1       3.843   4.638  16.950  0.00  0.00    +0.000 A 
ATOM     21  C   UNL     1       3.539   5.943  17.370  0.00  0.00    +0.000 A 
ATOM     22  C   UNL     1       4.577   6.893  17.246  0.00  0.00    +0.000 A 
ATOM     23  C   UNL     1       5.800   6.576  16.633  0.00  0.00    +0.000 A 
BRANCH  18  24
ATOM     24  O   UNL     1       7.283   5.065  15.603  0.00  0.00    +0.000 OA
BRANCH  24  25
ATOM     25  C   UNL     1       7.227   4.911  14.177  0.00  0.00    +0.000 C 
BRANCH  25  26
ATOM     26  C   UNL     1       6.084   3.973  13.764  0.00  0.00    +0.000 C 
BRANCH  26  27
ATOM     27  N   UNL     1       6.011   3.719  12.302  0.00  0.00    +0.000 NA
BRANCH  27  29
ATOM     28  C   UNL     1       7.309   1.932  11.068  0.00  0.00    +0.000 C 
ATOM     29  C   UNL     1       7.317   3.276  11.801  0.00  0.00    +0.000 C 
ENDBRANCH  27  29
BRANCH  27  30
ATOM     30  C   UNL     1       4.894   2.848  11.904  0.00  0.00    +0.000 C 
ATOM     31  C   UNL     1       3.816   3.489  11.037  0.00  0.00    +0.000 C 
ENDBRANCH  27  30
ENDBRANCH  26  27
ENDBRANCH  25  26
ENDBRANCH  24  25
ENDBRANCH  18  24
ENDBRANCH   1  21
BRANCH   5  32
ATOM     32  O   UNL     1       0.934  11.255  21.245  0.00  0.00    +0.000 OA
ATOM     33  H   UNL     1       0.461  11.691  20.518  0.00  0.00    +0.000 HD
ENDBRANCH   5  32
BRANCH  13  34
ATOM     34  O   UNL     1       4.046   0.535  18.589  0.00  0.00    +0.000 OA
ATOM     35  H   UNL     1       4.443   0.224  19.422  0.00  0.00    +0.000 HD
ENDBRANCH  13  34
TORSDOF 9
ENDMDL
MODEL 2
REMARK VINA RESULT:      -7.9      0.438      1.142
REMARK  Name = 
REMARK  11 active torsions:
REMARK  status: ('A' for Active; 'I' for Inactive)
REMARK    1  A    between atoms: C_1  and  C_2
REMARK    2  A    between atoms: C_2  and  N_3
REMARK    3  A    between atoms: N_3  and  C_4
REMARK    4  A    between atoms: N_3  and  C_6
REMARK    5  A    between atoms: C_4  and  C_5
REMARK    6  A    between atoms: C_6  and  C_7
REMARK    7  A    between atoms: C_7  and  O_8
REMARK    8  A    between atoms: O_8  and  C_9
REMARK    9  A    between atoms: C_12  and  C_13
REMARK   10  A    between atoms: C_17  and  O_18
REMARK   11  A    between atoms: C_26  and  O_27
REMARK                            x       y       z     vdW  Elec       q    Type
REMARK                         _______ _______ _______ _____ _____    ______ ____
ROOT
ATOM      1  C   UNL     1       2.095   6.569  17.964  0.00  0.00    +0.000 C 
ATOM      2  O   UNL     1       2.086   7.972  18.414  0.00  0.00    +0.000 OA
ATOM      3  C   UNL     1       1.639   8.287  19.679  0.00  0.00    +0.000 A 
ATOM      4  C   UNL     1       1.496   9.640  19.983  0.00  0.00    +0.000 A 
ATOM      5  C   UNL     1       0.851  10.004  21.164  0.00  0.00    +0.000 A 
ATOM      6  C   UNL     1       0.323   9.043  22.022  0.00  0.00    +0.000 A 
ATOM      7  C   UNL     1       0.582   7.693  21.781  0.00  0.00    +0.000 A 
ATOM      8  C   UNL     1       1.317   7.330  20.650  0.00  0.00    +0.000 A 
ATOM      9  C   UNL     1       1.707   5.981  20.345  0.00  0.00    +0.000 A 
ATOM     10  S   UNL     1       2.669   4.957  21.322  0.00  0.00    +0.000 S 
ATOM     11  C   UNL     1       2.797   3.809  20.020  0.00  0.00    +0.000 A 
ATOM     12  C   UNL     1       3.647   2.711  19.832  0.00  0.00    +0.000 A 
ATOM     13  C   UNL     1       3.311   1.826  18.806  0.00  0.00    +0.000 A 
ATOM     14  C   UNL     1       2.141   1.955  18.072  0.00  0.00    +0.000 A 
ATOM     15  C   UNL     1       1.416   3.144  18.150  0.00  0.00    +0.000 A 
ATOM     16  C   UNL     1       1.829   4.136  19.062  0.00  0.00    +0.000 A 
ATOM     17  C   UNL     1       1.843   5.561  19.049  0.00  0.00    +0.000 A 
ENDROOT
BRANCH   1  21
ATOM     18  C   UNL     1       6.109   5.716  16.337  0.00  0.00    +0.000 A 
ATOM     19  C   UNL     1       5.106   4.736  16.359  0.00  0.00    +0.000 A 
ATOM     20  C   UNL     1       3.851   5.004  16.906  0.00  0.00    +0.000 A 
ATOM     21  C   UNL     1       3.529   6.247  17.474  0.00  0.00    +0.000 A 
ATOM     22  C   UNL     1       4.571   7.199  17.514  0.00  0.00    +0.000 A 
ATOM     23  C   UNL     1       5.819   6.955  16.919  0.00  0.00    +0.000 A 
BRANCH  18  24
ATOM     24  O   UNL     1       7.345   5.577  15.772  0.00  0.00    +0.000 OA
BRANCH  24  25
ATOM     25  C   UNL     1       7.485   4.432  14.918  0.00  0.00    +0.000 C 
BRANCH  25  26
ATOM     26  C   UNL     1       6.952   4.722  13.509  0.00  0.00    +0.000 C 
BRANCH  26  27
ATOM     27  N   UNL     1       6.390   3.533  12.820  0.00  0.00    +0.000 NA
BRANCH  27  29
ATOM     28  C   UNL     1       4.279   3.362  11.434  0.00  0.00    +0.000 C 
ATOM     29  C   UNL     1       4.923   3.607  12.801  0.00  0.00    +0.000 C 
ENDBRANCH  27  29
BRANCH  27  30
ATOM     30  C   UNL     1       6.989   3.268  11.502  0.00  0.00    +0.000 C 
ATOM     31  C   UNL     1       7.300   1.810  11.184  0.00  0.00    +0.000 C 
ENDBRANCH  27  30
ENDBRANCH  26  27
ENDBRANCH  25  26
ENDBRANCH  24  25
ENDBRANCH  18  24
ENDBRANCH   1  21
BRANCH   5  32
ATOM     32  O   UNL     1       0.698  11.314  21.514  0.00  0.00    +0.000 OA
ATOM     33  H   UNL     1       1.371  11.836  21.048  0.00  0.00    +0.000 HD
ENDBRANCH   5  32
BRANCH  13  34
ATOM     34  O   UNL     1       4.151   0.805  18.467  0.00  0.00    +0.000 OA
ATOM     35  H   UNL     1       4.384   0.926  17.529  0.00  0.00    +0.000 HD
ENDBRANCH  13  34
TORSDOF 9
ENDMDL
MODEL 3
REMARK VINA RESULT:      -7.6      3.238      7.924
REMARK  Name = 
REMARK  11 active torsions:
REMARK  status: ('A' for Active; 'I' for Inactive)
REMARK    1  A    between atoms: C_1  and  C_2
REMARK    2  A    between atoms: C_2  and  N_3
REMARK    3  A    between atoms: N_3  and  C_4
REMARK    4  A    between atoms: N_3  and  C_6
REMARK    5  A    between atoms: C_4  and  C_5
REMARK    6  A    between atoms: C_6  and  C_7
REMARK    7  A    between atoms: C_7  and  O_8
REMARK    8  A    between atoms: O_8  and  C_9
REMARK    9  A    between atoms: C_12  and  C_13
REMARK   10  A    between atoms: C_17  and  O_18
REMARK   11  A    between atoms: C_26  and  O_27
REMARK                            x       y       z     vdW  Elec       q    Type
REMARK                         _______ _______ _______ _____ _____    ______ ____
ROOT
ATOM      1  C   UNL     1       5.049   5.606  18.325  0.00  0.00    +0.000 C 
ATOM      2  O   UNL     1       5.635   6.197  17.109  0.00  0.00    +0.000 OA
ATOM      3  C   UNL     1       5.860   5.411  16.000  0.00  0.00    +0.000 A 
ATOM      4  C   UNL     1       6.570   5.986  14.947  0.00  0.00    +0.000 A 
ATOM      5  C   UNL     1       7.005   5.176  13.900  0.00  0.00    +0.000 A 
ATOM      6  C   UNL     1       6.772   3.803  13.908  0.00  0.00    +0.000 A 
ATOM      7  C   UNL     1       5.952   3.253  14.894  0.00  0.00    +0.000 A 
ATOM      8  C   UNL     1       5.430   4.083  15.889  0.00  0.00    +0.000 A 
ATOM      9  C   UNL     1       4.515   3.640  16.905  0.00  0.00    +0.000 A 
ATOM     10  S   UNL     1       2.973   2.944  16.649  0.00  0.00    +0.000 S 
ATOM     11  C   UNL     1       2.616   3.073  18.349  0.00  0.00    +0.000 A 
ATOM     12  C   UNL     1       1.411   2.957  19.055  0.00  0.00    +0.000 A 
ATOM     13  C   UNL     1       1.505   2.842  20.443  0.00  0.00    +0.000 A 
ATOM     14  C   UNL     1       2.726   2.736  21.094  0.00  0.00    +0.000 A 
ATOM     15  C   UNL     1       3.897   3.038  20.399  0.00  0.00    +0.000 A 
ATOM     16  C   UNL     1       3.817   3.328  19.022  0.00  0.00    +0.000 A 
ATOM     17  C   UNL     1       4.507   4.216  18.147  0.00  0.00    +0.000 A 
ENDROOT
BRANCH   1  21
ATOM     18  C   UNL     1       1.662   8.175  19.516  0.00  0.00    +0.000 A 
ATOM     19  C   UNL     1       2.117   7.137  20.341  0.00  0.00    +0.000 A 
ATOM     20  C   UNL     1       3.166   6.308  19.942  0.00  0.00    +0.000 A 
ATOM     21  C   UNL     1       3.807   6.452  18.700  0.00  0.00    +0.000 A 
ATOM     22  C   UNL     1       3.289   7.452  17.848  0.00  0.00    +0.000 A 
ATOM     23  C   UNL     1       2.269   8.323  18.263  0.00  0.00    +0.000 A 
BRANCH  18  24
ATOM     24  O   UNL     1       0.688   9.078  19.836  0.00  0.00    +0.000 OA
BRANCH  24  25
ATOM     25  C   UNL     1       0.824  10.354  19.193  0.00  0.00    +0.000 C 
BRANCH  25  26
ATOM     26  C   UNL     1      -0.436  11.209  19.385  0.00  0.00    +0.000 C 
BRANCH  26  27
ATOM     27  N   UNL     1      -1.649  10.650  18.736  0.00  0.00    +0.000 NA
BRANCH  27  29
ATOM     28  C   UNL     1      -2.764  12.565  19.958  0.00  0.00    +0.000 C 
ATOM     29  C   UNL     1      -2.725  11.649  18.732  0.00  0.00    +0.000 C 
ENDBRANCH  27  29
BRANCH  27  30
ATOM     30  C   UNL     1      -1.395  10.045  17.419  0.00  0.00    +0.000 C 
ATOM     31  C   UNL     1      -2.586   9.975  16.469  0.00  0.00    +0.000 C 
ENDBRANCH  27  30
ENDBRANCH  26  27
ENDBRANCH  25  26
ENDBRANCH  24  25
ENDBRANCH  18  24
ENDBRANCH   1  21
BRANCH   5  32
ATOM     32  O   UNL     1       7.691   5.692  12.840  0.00  0.00    +0.000 OA
ATOM     33  H   UNL     1       8.632   5.481  12.952  0.00  0.00    +0.000 HD
ENDBRANCH   5  32
BRANCH  13  34
ATOM     34  O   UNL     1       0.383   2.857  21.219  0.00  0.00    +0.000 OA
ATOM     35  H   UNL     1       0.046   1.944  21.251  0.00  0.00    +0.000 HD
ENDBRANCH  13  34
TORSDOF 9
ENDMDL
MODEL 4
REMARK VINA RESULT:      -7.6      3.162      8.259
REMARK  Name = 
REMARK  11 active torsions:
REMARK  status: ('A' for Active; 'I' for Inactive)
REMARK    1  A    between atoms: C_1  and  C_2
REMARK    2  A    between atoms: C_2  and  N_3
REMARK    3  A    between atoms: N_3  and  C_4
REMARK    4  A    between atoms: N_3  and  C_6
REMARK    5  A    between atoms: C_4  and  C_5
REMARK    6  A    between atoms: C_6  and  C_7
REMARK    7  A    between atoms: C_7  and  O_8
REMARK    8  A    between atoms: O_8  and  C_9
REMARK    9  A    between atoms: C_12  and  C_13
REMARK   10  A    between atoms: C_17  and  O_18
REMARK   11  A    between atoms: C_26  and  O_27
REMARK                            x       y       z     vdW  Elec       q    Type
REMARK                         _______ _______ _______ _____ _____    ______ ____
ROOT
ATOM      1  C   UNL     1       5.045   5.676  18.278  0.00  0.00    +0.000 C 
ATOM      2  O   UNL     1       5.643   6.272  17.070  0.00  0.00    +0.000 OA
ATOM      3  C   UNL     1       5.886   5.488  15.963  0.00  0.00    +0.000 A 
ATOM      4  C   UNL     1       6.606   6.069  14.920  0.00  0.00    +0.000 A 
ATOM      5  C   UNL     1       7.059   5.262  13.878  0.00  0.00    +0.000 A 
ATOM      6  C   UNL     1       6.833   3.888  13.881  0.00  0.00    +0.000 A 
ATOM      7  C   UNL     1       6.004   3.332  14.856  0.00  0.00    +0.000 A 
ATOM      8  C   UNL     1       5.465   4.158  15.845  0.00  0.00    +0.000 A 
ATOM      9  C   UNL     1       4.541   3.709  16.850  0.00  0.00    +0.000 A 
ATOM     10  S   UNL     1       3.005   3.004  16.574  0.00  0.00    +0.000 S 
ATOM     11  C   UNL     1       2.627   3.129  18.269  0.00  0.00    +0.000 A 
ATOM     12  C   UNL     1       1.414   3.006  18.960  0.00  0.00    +0.000 A 
ATOM     13  C   UNL     1       1.492   2.889  20.349  0.00  0.00    +0.000 A 
ATOM     14  C   UNL     1       2.704   2.790  21.015  0.00  0.00    +0.000 A 
ATOM     15  C   UNL     1       3.883   3.099  20.335  0.00  0.00    +0.000 A 
ATOM     16  C   UNL     1       3.818   3.390  18.957  0.00  0.00    +0.000 A 
ATOM     17  C   UNL     1       4.513   4.284  18.092  0.00  0.00    +0.000 A 
ENDROOT
BRANCH   1  21
ATOM     18  C   UNL     1       1.629   8.225  19.429  0.00  0.00    +0.000 A 
ATOM     19  C   UNL     1       2.082   7.190  20.260  0.00  0.00    +0.000 A 
ATOM     20  C   UNL     1       3.140   6.367  19.874  0.00  0.00    +0.000 A 
ATOM     21  C   UNL     1       3.794   6.515  18.639  0.00  0.00    +0.000 A 
ATOM     22  C   UNL     1       3.279   7.510  17.780  0.00  0.00    +0.000 A 
ATOM     23  C   UNL     1       2.249   8.375  18.183  0.00  0.00    +0.000 A 
BRANCH  18  24
ATOM     24  O   UNL     1       0.646   9.121  19.738  0.00  0.00    +0.000 OA
BRANCH  24  25
ATOM     25  C   UNL     1       1.001  10.494  19.516  0.00  0.00    +0.000 C 
BRANCH  25  26
ATOM     26  C   UNL     1       0.589  11.373  20.706  0.00  0.00    +0.000 C 
BRANCH  26  27
ATOM     27  N   UNL     1      -0.749  11.047  21.260  0.00  0.00    +0.000 NA
BRANCH  27  29
ATOM     28  C   UNL     1      -0.067   9.462  23.111  0.00  0.00    +0.000 C 
ATOM     29  C   UNL     1      -0.653  10.817  22.707  0.00  0.00    +0.000 C 
ENDBRANCH  27  29
BRANCH  27  30
ATOM     30  C   UNL     1      -1.801  12.003  20.879  0.00  0.00    +0.000 C 
ATOM     31  C   UNL     1      -2.146  12.068  19.395  0.00  0.00    +0.000 C 
ENDBRANCH  27  30
ENDBRANCH  26  27
ENDBRANCH  25  26
ENDBRANCH  24  25
ENDBRANCH  18  24
ENDBRANCH   1  21
BRANCH   5  32
ATOM     32  O   UNL     1       7.755   5.784  12.827  0.00  0.00    +0.000 OA
ATOM     33  H   UNL     1       7.335   6.620  12.566  0.00  0.00    +0.000 HD
ENDBRANCH   5  32
BRANCH  13  34
ATOM     34  O   UNL     1       0.359   2.897  21.111  0.00  0.00    +0.000 OA
ATOM     35  H   UNL     1      -0.393   3.006  20.502  0.00  0.00    +0.000 HD
ENDBRANCH  13  34
TORSDOF 9
ENDMDL
MODEL 5
REMARK VINA RESULT:      -7.6      3.303      8.039
REMARK  Name = 
REMARK  11 active torsions:
REMARK  status: ('A' for Active; 'I' for Inactive)
REMARK    1  A    between atoms: C_1  and  C_2
REMARK    2  A    between atoms: C_2  and  N_3
REMARK    3  A    between atoms: N_3  and  C_4
REMARK    4  A    between atoms: N_3  and  C_6
REMARK    5  A    between atoms: C_4  and  C_5
REMARK    6  A    between atoms: C_6  and  C_7
REMARK    7  A    between atoms: C_7  and  O_8
REMARK    8  A    between atoms: O_8  and  C_9
REMARK    9  A    between atoms: C_12  and  C_13
REMARK   10  A    between atoms: C_17  and  O_18
REMARK   11  A    between atoms: C_26  and  O_27
REMARK                            x       y       z     vdW  Elec       q    Type
REMARK                         _______ _______ _______ _____ _____    ______ ____
ROOT
ATOM      1  C   UNL     1       5.060   5.575  18.289  0.00  0.00    +0.000 C 
ATOM      2  O   UNL     1       5.664   6.162  17.080  0.00  0.00    +0.000 OA
ATOM      3  C   UNL     1       5.888   5.375  15.971  0.00  0.00    +0.000 A 
ATOM      4  C   UNL     1       6.614   5.944  14.925  0.00  0.00    +0.000 A 
ATOM      5  C   UNL     1       7.047   5.131  13.880  0.00  0.00    +0.000 A 
ATOM      6  C   UNL     1       6.795   3.761  13.882  0.00  0.00    +0.000 A 
ATOM      7  C   UNL     1       5.960   3.220  14.859  0.00  0.00    +0.000 A 
ATOM      8  C   UNL     1       5.441   4.053  15.852  0.00  0.00    +0.000 A 
ATOM      9  C   UNL     1       4.512   3.621  16.860  0.00  0.00    +0.000 A 
ATOM     10  S   UNL     1       2.963   2.945  16.589  0.00  0.00    +0.000 S 
ATOM     11  C   UNL     1       2.594   3.075  18.286  0.00  0.00    +0.000 A 
ATOM     12  C   UNL     1       1.382   2.974  18.981  0.00  0.00    +0.000 A 
ATOM     13  C   UNL     1       1.462   2.853  20.370  0.00  0.00    +0.000 A 
ATOM     14  C   UNL     1       2.676   2.729  21.031  0.00  0.00    +0.000 A 
ATOM     15  C   UNL     1       3.857   3.017  20.347  0.00  0.00    +0.000 A 
ATOM     16  C   UNL     1       3.792   3.312  18.969  0.00  0.00    +0.000 A 
ATOM     17  C   UNL     1       4.501   4.193  18.104  0.00  0.00    +0.000 A 
ENDROOT
BRANCH   1  21
ATOM     18  C   UNL     1       1.699   8.186  19.460  0.00  0.00    +0.000 A 
ATOM     19  C   UNL     1       2.133   7.140  20.286  0.00  0.00    +0.000 A 
ATOM     20  C   UNL     1       3.174   6.298  19.893  0.00  0.00    +0.000 A 
ATOM     21  C   UNL     1       3.827   6.437  18.657  0.00  0.00    +0.000 A 
ATOM     22  C   UNL     1       3.329   7.445  17.803  0.00  0.00    +0.000 A 
ATOM     23  C   UNL     1       2.317   8.329  18.212  0.00  0.00    +0.000 A 
BRANCH  18  24
ATOM     24  O   UNL     1       0.734   9.101  19.774  0.00  0.00    +0.000 OA
BRANCH  24  25
ATOM     25  C   UNL     1       0.631  10.198  18.854  0.00  0.00    +0.000 C 
BRANCH  25  26
ATOM     26  C   UNL     1      -0.741  10.217  18.166  0.00  0.00    +0.000 C 
BRANCH  26  27
ATOM     27  N   UNL     1      -1.514  11.463  18.396  0.00  0.00    +0.000 NA
BRANCH  27  29
ATOM     28  C   UNL     1      -3.364  10.016  17.454  0.00  0.00    +0.000 C 
ATOM     29  C   UNL     1      -2.781  11.416  17.655  0.00  0.00    +0.000 C 
ENDBRANCH  27  29
BRANCH  27  30
ATOM     30  C   UNL     1      -1.670  11.814  19.817  0.00  0.00    +0.000 C 
ATOM     31  C   UNL     1      -2.906  12.632  20.177  0.00  0.00    +0.000 C 
ENDBRANCH  27  30
ENDBRANCH  26  27
ENDBRANCH  25  26
ENDBRANCH  24  25
ENDBRANCH  18  24
ENDBRANCH   1  21
BRANCH   5  32
ATOM     32  O   UNL     1       7.749   5.641  12.827  0.00  0.00    +0.000 OA
ATOM     33  H   UNL     1       8.155   6.478  13.106  0.00  0.00    +0.000 HD
ENDBRANCH   5  32
BRANCH  13  34
ATOM     34  O   UNL     1       0.333   2.881  21.137  0.00  0.00    +0.000 OA
ATOM     35  H   UNL     1       0.621   2.964  22.064  0.00  0.00    +0.000 HD
ENDBRANCH  13  34
TORSDOF 9
ENDMDL
MODEL 6
REMARK VINA RESULT:      -7.6      3.208      8.481
REMARK  Name = 
REMARK  11 active torsions:
REMARK  status: ('A' for Active; 'I' for Inactive)
REMARK    1  A    between atoms: C_1  and  C_2
REMARK    2  A    between atoms: C_2  and  N_3
REMARK    3  A    between atoms: N_3  and  C_4
REMARK    4  A    between atoms: N_3  and  C_6
REMARK    5  A    between atoms: C_4  and  C_5
REMARK    6  A    between atoms: C_6  and  C_7
REMARK    7  A    between atoms: C_7  and  O_8
REMARK    8  A    between atoms: O_8  and  C_9
REMARK    9  A    between atoms: C_12  and  C_13
REMARK   10  A    between atoms: C_17  and  O_18
REMARK   11  A    between atoms: C_26  and  O_27
REMARK                            x       y       z     vdW  Elec       q    Type
REMARK                         _______ _______ _______ _____ _____    ______ ____
ROOT
ATOM      1  C   UNL     1       5.013   5.633  18.343  0.00  0.00    +0.000 C 
ATOM      2  O   UNL     1       5.587   6.227  17.123  0.00  0.00    +0.000 OA
ATOM      3  C   UNL     1       5.828   5.438  16.020  0.00  0.00    +0.000 A 
ATOM      4  C   UNL     1       6.527   6.020  14.963  0.00  0.00    +0.000 A 
ATOM      5  C   UNL     1       6.979   5.212  13.922  0.00  0.00    +0.000 A 
ATOM      6  C   UNL     1       6.773   3.835  13.939  0.00  0.00    +0.000 A 
ATOM      7  C   UNL     1       5.963   3.275  14.928  0.00  0.00    +0.000 A 
ATOM      8  C   UNL     1       5.424   4.101  15.917  0.00  0.00    +0.000 A 
ATOM      9  C   UNL     1       4.519   3.647  16.936  0.00  0.00    +0.000 A 
ATOM     10  S   UNL     1       2.990   2.918  16.685  0.00  0.00    +0.000 S 
ATOM     11  C   UNL     1       2.631   3.052  18.383  0.00  0.00    +0.000 A 
ATOM     12  C   UNL     1       1.428   2.917  19.089  0.00  0.00    +0.000 A 
ATOM     13  C   UNL     1       1.524   2.812  20.479  0.00  0.00    +0.000 A 
ATOM     14  C   UNL     1       2.746   2.736  21.130  0.00  0.00    +0.000 A 
ATOM     15  C   UNL     1       3.911   3.056  20.434  0.00  0.00    +0.000 A 
ATOM     16  C   UNL     1       3.826   3.335  19.055  0.00  0.00    +0.000 A 
ATOM     17  C   UNL     1       4.498   4.231  18.175  0.00  0.00    +0.000 A 
ENDROOT
BRANCH   1  21
ATOM     18  C   UNL     1       1.575   8.140  19.518  0.00  0.00    +0.000 A 
ATOM     19  C   UNL     1       2.043   7.108  20.344  0.00  0.00    +0.000 A 
ATOM     20  C   UNL     1       3.108   6.298  19.950  0.00  0.00    +0.000 A 
ATOM     21  C   UNL     1       3.754   6.457  18.712  0.00  0.00    +0.000 A 
ATOM     22  C   UNL     1       3.224   7.448  17.859  0.00  0.00    +0.000 A 
ATOM     23  C   UNL     1       2.186   8.301  18.270  0.00  0.00    +0.000 A 
BRANCH  18  24
ATOM     24  O   UNL     1       0.584   9.025  19.834  0.00  0.00    +0.000 OA
BRANCH  24  25
ATOM     25  C   UNL     1       1.009  10.394  19.911  0.00  0.00    +0.000 C 
BRANCH  25  26
ATOM     26  C   UNL     1      -0.120  11.298  20.425  0.00  0.00    +0.000 C 
BRANCH  26  27
ATOM     27  N   UNL     1      -0.004  11.649  21.863  0.00  0.00    +0.000 NA
BRANCH  27  29
ATOM     28  C   UNL     1      -1.515  13.615  21.356  0.00  0.00    +0.000 C 
ATOM     29  C   UNL     1      -0.262  13.082  22.055  0.00  0.00    +0.000 C 
ENDBRANCH  27  29
BRANCH  27  30
ATOM     30  C   UNL     1      -0.788  10.779  22.754  0.00  0.00    +0.000 C 
ATOM     31  C   UNL     1      -0.069   9.549  23.298  0.00  0.00    +0.000 C 
ENDBRANCH  27  30
ENDBRANCH  26  27
ENDBRANCH  25  26
ENDBRANCH  24  25
ENDBRANCH  18  24
ENDBRANCH   1  21
BRANCH   5  32
ATOM     32  O   UNL     1       7.655   5.735  12.858  0.00  0.00    +0.000 OA
ATOM     33  H   UNL     1       7.475   6.689  12.821  0.00  0.00    +0.000 HD
ENDBRANCH   5  32
BRANCH  13  34
ATOM     34  O   UNL     1       0.401   2.811  21.254  0.00  0.00    +0.000 OA
ATOM     35  H   UNL     1       0.695   2.796  22.182  0.00  0.00    +0.000 HD
ENDBRANCH  13  34
TORSDOF 9
ENDMDL
MODEL 7
REMARK VINA RESULT:      -7.5      3.161      7.897
REMARK  Name = 
REMARK  11 active torsions:
REMARK  status: ('A' for Active; 'I' for Inactive)
REMARK    1  A    between atoms: C_1  and  C_2
REMARK    2  A    between atoms: C_2  and  N_3
REMARK    3  A    between atoms: N_3  and  C_4
REMARK    4  A    between atoms: N_3  and  C_6
REMARK    5  A    between atoms: C_4  and  C_5
REMARK    6  A    between atoms: C_6  and  C_7
REMARK    7  A    between atoms: C_7  and  O_8
REMARK    8  A    between atoms: O_8  and  C_9
REMARK    9  A    between atoms: C_12  and  C_13
REMARK   10  A    between atoms: C_17  and  O_18
REMARK   11  A    between atoms: C_26  and  O_27
REMARK                            x       y       z     vdW  Elec       q    Type
REMARK                         _______ _______ _______ _____ _____    ______ ____
ROOT
ATOM      1  C   UNL     1       5.017   5.631  18.361  0.00  0.00    +0.000 C 
ATOM      2  O   UNL     1       5.595   6.231  17.146  0.00  0.00    +0.000 OA
ATOM      3  C   UNL     1       5.841   5.446  16.040  0.00  0.00    +0.000 A 
ATOM      4  C   UNL     1       6.542   6.033  14.988  0.00  0.00    +0.000 A 
ATOM      5  C   UNL     1       6.999   5.229  13.946  0.00  0.00    +0.000 A 
ATOM      6  C   UNL     1       6.796   3.852  13.957  0.00  0.00    +0.000 A 
ATOM      7  C   UNL     1       5.985   3.287  14.942  0.00  0.00    +0.000 A 
ATOM      8  C   UNL     1       5.441   4.108  15.932  0.00  0.00    +0.000 A 
ATOM      9  C   UNL     1       4.533   3.649  16.947  0.00  0.00    +0.000 A 
ATOM     10  S   UNL     1       3.007   2.918  16.687  0.00  0.00    +0.000 S 
ATOM     11  C   UNL     1       2.641   3.045  18.385  0.00  0.00    +0.000 A 
ATOM     12  C   UNL     1       1.436   2.905  19.087  0.00  0.00    +0.000 A 
ATOM     13  C   UNL     1       1.528   2.796  20.476  0.00  0.00    +0.000 A 
ATOM     14  C   UNL     1       2.748   2.720  21.131  0.00  0.00    +0.000 A 
ATOM     15  C   UNL     1       3.915   3.045  20.440  0.00  0.00    +0.000 A 
ATOM     16  C   UNL     1       3.834   3.328  19.061  0.00  0.00    +0.000 A 
ATOM     17  C   UNL     1       4.506   4.229  18.187  0.00  0.00    +0.000 A 
ENDROOT
BRANCH   1  21
ATOM     18  C   UNL     1       1.570   8.128  19.532  0.00  0.00    +0.000 A 
ATOM     19  C   UNL     1       2.043   7.101  20.360  0.00  0.00    +0.000 A 
ATOM     20  C   UNL     1       3.111   6.294  19.968  0.00  0.00    +0.000 A 
ATOM     21  C   UNL     1       3.755   6.451  18.729  0.00  0.00    +0.000 A 
ATOM     22  C   UNL     1       3.220   7.438  17.873  0.00  0.00    +0.000 A 
ATOM     23  C   UNL     1       2.180   8.288  18.282  0.00  0.00    +0.000 A 
BRANCH  18  24
ATOM     24  O   UNL     1       0.575   9.010  19.846  0.00  0.00    +0.000 OA
BRANCH  24  25
ATOM     25  C   UNL     1       1.017  10.362  20.038  0.00  0.00    +0.000 C 
BRANCH  25  26
ATOM     26  C   UNL     1      -0.162  11.343  19.984  0.00  0.00    +0.000 C 
BRANCH  26  27
ATOM     27  N   UNL     1      -0.478  11.832  18.618  0.00  0.00    +0.000 NA
BRANCH  27  29
ATOM     28  C   UNL     1      -1.701  10.046  17.307  0.00  0.00    +0.000 C 
ATOM     29  C   UNL     1      -1.775  11.301  18.179  0.00  0.00    +0.000 C 
ENDBRANCH  27  29
BRANCH  27  30
ATOM     30  C   UNL     1      -0.350  13.290  18.462  0.00  0.00    +0.000 C 
ATOM     31  C   UNL     1       1.060  13.858  18.584  0.00  0.00    +0.000 C 
ENDBRANCH  27  30
ENDBRANCH  26  27
ENDBRANCH  25  26
ENDBRANCH  24  25
ENDBRANCH  18  24
ENDBRANCH   1  21
BRANCH   5  32
ATOM     32  O   UNL     1       7.678   5.757  12.886  0.00  0.00    +0.000 OA
ATOM     33  H   UNL     1       7.468   6.704  12.830  0.00  0.00    +0.000 HD
ENDBRANCH   5  32
BRANCH  13  34
ATOM     34  O   UNL     1       0.402   2.789  21.247  0.00  0.00    +0.000 OA
ATOM     35  H   UNL     1      -0.357   2.700  20.643  0.00  0.00    +0.000 HD
ENDBRANCH  13  34
TORSDOF 9
ENDMDL
MODEL 8
REMARK VINA RESULT:      -7.4      6.778      9.483
REMARK  Name = 
REMARK  11 active torsions:
REMARK  status: ('A' for Active; 'I' for Inactive)
REMARK    1  A    between atoms: C_1  and  C_2
REMARK    2  A    between atoms: C_2  and  N_3
REMARK    3  A    between atoms: N_3  and  C_4
REMARK    4  A    between atoms: N_3  and  C_6
REMARK    5  A    between atoms: C_4  and  C_5
REMARK    6  A    between atoms: C_6  and  C_7
REMARK    7  A    between atoms: C_7  and  O_8
REMARK    8  A    between atoms: O_8  and  C_9
REMARK    9  A    between atoms: C_12  and  C_13
REMARK   10  A    between atoms: C_17  and  O_18
REMARK   11  A    between atoms: C_26  and  O_27
REMARK                            x       y       z     vdW  Elec       q    Type
REMARK                         _______ _______ _______ _____ _____    ______ ____
ROOT
ATOM      1  C   UNL     1      -0.976  13.555  20.188  0.00  0.00    +0.000 C 
ATOM      2  O   UNL     1      -1.364  14.468  21.279  0.00  0.00    +0.000 OA
ATOM      3  C   UNL     1      -2.023  13.978  22.385  0.00  0.00    +0.000 A 
ATOM      4  C   UNL     1      -2.511  14.913  23.298  0.00  0.00    +0.000 A 
ATOM      5  C   UNL     1      -3.362  14.485  24.316  0.00  0.00    +0.000 A 
ATOM      6  C   UNL     1      -3.755  13.153  24.413  0.00  0.00    +0.000 A 
ATOM      7  C   UNL     1      -3.165  12.202  23.580  0.00  0.00    +0.000 A 
ATOM      8  C   UNL     1      -2.233  12.615  22.625  0.00  0.00    +0.000 A 
ATOM      9  C   UNL     1      -1.508  11.716  21.770  0.00  0.00    +0.000 A 
ATOM     10  S   UNL     1      -0.463  10.457  22.273  0.00  0.00    +0.000 S 
ATOM     11  C   UNL     1       0.085  10.237  20.635  0.00  0.00    +0.000 A 
ATOM     12  C   UNL     1       1.182   9.540  20.111  0.00  0.00    +0.000 A 
ATOM     13  C   UNL     1       1.188   9.327  18.731  0.00  0.00    +0.000 A 
ATOM     14  C   UNL     1       0.119   9.686  17.923  0.00  0.00    +0.000 A 
ATOM     15  C   UNL     1      -0.865  10.534  18.432  0.00  0.00    +0.000 A 
ATOM     16  C   UNL     1      -0.806  10.908  19.790  0.00  0.00    +0.000 A 
ATOM     17  C   UNL     1      -1.121  12.095  20.512  0.00  0.00    +0.000 A 
ENDROOT
BRANCH   1  21
ATOM     18  C   UNL     1       3.309  14.330  19.465  0.00  0.00    +0.000 A 
ATOM     19  C   UNL     1       2.423  14.079  18.408  0.00  0.00    +0.000 A 
ATOM     20  C   UNL     1       1.077  13.802  18.647  0.00  0.00    +0.000 A 
ATOM     21  C   UNL     1       0.542  13.741  19.945  0.00  0.00    +0.000 A 
ATOM     22  C   UNL     1       1.460  13.919  21.003  0.00  0.00    +0.000 A 
ATOM     23  C   UNL     1       2.804  14.250  20.768  0.00  0.00    +0.000 A 
BRANCH  18  24
ATOM     24  O   UNL     1       4.625  14.670  19.337  0.00  0.00    +0.000 OA
BRANCH  24  25
ATOM     25  C   UNL     1       5.042  14.946  17.991  0.00  0.00    +0.000 C 
BRANCH  25  26
ATOM     26  C   UNL     1       6.557  14.759  17.830  0.00  0.00    +0.000 C 
BRANCH  26  27
ATOM     27  N   UNL     1       7.313  14.830  19.106  0.00  0.00    +0.000 NA
BRANCH  27  29
ATOM     28  C   UNL     1       8.611  13.088  17.809  0.00  0.00    +0.000 C 
ATOM     29  C   UNL     1       8.332  13.774  19.148  0.00  0.00    +0.000 C 
ENDBRANCH  27  29
BRANCH  27  30
ATOM     30  C   UNL     1       7.833  16.171  19.416  0.00  0.00    +0.000 C 
ATOM     31  C   UNL     1       8.426  16.951  18.247  0.00  0.00    +0.000 C 
ENDBRANCH  27  30
ENDBRANCH  26  27
ENDBRANCH  25  26
ENDBRANCH  24  25
ENDBRANCH  18  24
ENDBRANCH   1  21
BRANCH   5  32
ATOM     32  O   UNL     1      -3.855  15.357  25.242  0.00  0.00    +0.000 OA
ATOM     33  H   UNL     1      -3.808  16.255  24.873  0.00  0.00    +0.000 HD
ENDBRANCH   5  32
BRANCH  13  34
ATOM     34  O   UNL     1       2.276   8.776  18.118  0.00  0.00    +0.000 OA
ATOM     35  H   UNL     1       2.821   8.370  18.816  0.00  0.00    +0.000 HD
ENDBRANCH  13  34
TORSDOF 9
ENDMDL
MODEL 9
REMARK VINA RESULT:      -7.3      3.066      8.003
REMARK  Name = 
REMARK  11 active torsions:
REMARK  status: ('A' for Active; 'I' for Inactive)
REMARK    1  A    between atoms: C_1  and  C_2
REMARK    2  A    between atoms: C_2  and  N_3
REMARK    3  A    between atoms: N_3  and  C_4
REMARK    4  A    between atoms: N_3  and  C_6
REMARK    5  A    between atoms: C_4  and  C_5
REMARK    6  A    between atoms: C_6  and  C_7
REMARK    7  A    between atoms: C_7  and  O_8
REMARK    8  A    between atoms: O_8  and  C_9
REMARK    9  A    between atoms: C_12  and  C_13
REMARK   10  A    between atoms: C_17  and  O_18
REMARK   11  A    between atoms: C_26  and  O_27
REMARK                            x       y       z     vdW  Elec       q    Type
REMARK                         _______ _______ _______ _____ _____    ______ ____
ROOT
ATOM      1  C   UNL     1       5.127   5.632  18.183  0.00  0.00    +0.000 C 
ATOM      2  O   UNL     1       5.730   6.219  16.974  0.00  0.00    +0.000 OA
ATOM      3  C   UNL     1       5.957   5.432  15.866  0.00  0.00    +0.000 A 
ATOM      4  C   UNL     1       6.682   6.002  14.820  0.00  0.00    +0.000 A 
ATOM      5  C   UNL     1       7.118   5.189  13.776  0.00  0.00    +0.000 A 
ATOM      6  C   UNL     1       6.871   3.819  13.779  0.00  0.00    +0.000 A 
ATOM      7  C   UNL     1       6.036   3.275  14.757  0.00  0.00    +0.000 A 
ATOM      8  C   UNL     1       5.514   4.108  15.748  0.00  0.00    +0.000 A 
ATOM      9  C   UNL     1       4.586   3.674  16.756  0.00  0.00    +0.000 A 
ATOM     10  S   UNL     1       3.039   2.993  16.485  0.00  0.00    +0.000 S 
ATOM     11  C   UNL     1       2.668   3.124  18.181  0.00  0.00    +0.000 A 
ATOM     12  C   UNL     1       1.456   3.019  18.876  0.00  0.00    +0.000 A 
ATOM     13  C   UNL     1       1.536   2.900  20.265  0.00  0.00    +0.000 A 
ATOM     14  C   UNL     1       2.750   2.781  20.926  0.00  0.00    +0.000 A 
ATOM     15  C   UNL     1       3.930   3.072  20.243  0.00  0.00    +0.000 A 
ATOM     16  C   UNL     1       3.866   3.365  18.865  0.00  0.00    +0.000 A 
ATOM     17  C   UNL     1       4.572   4.248  17.999  0.00  0.00    +0.000 A 
ENDROOT
BRANCH   1  21
ATOM     18  C   UNL     1       1.756   8.232  19.351  0.00  0.00    +0.000 A 
ATOM     19  C   UNL     1       2.188   7.182  20.173  0.00  0.00    +0.000 A 
ATOM     20  C   UNL     1       3.232   6.343  19.781  0.00  0.00    +0.000 A 
ATOM     21  C   UNL     1       3.890   6.490  18.549  0.00  0.00    +0.000 A 
ATOM     22  C   UNL     1       3.395   7.502  17.698  0.00  0.00    +0.000 A 
ATOM     23  C   UNL     1       2.380   8.382  18.107  0.00  0.00    +0.000 A 
BRANCH  18  24
ATOM     24  O   UNL     1       0.789   9.144  19.665  0.00  0.00    +0.000 OA
BRANCH  24  25
ATOM     25  C   UNL     1       0.415  10.012  18.585  0.00  0.00    +0.000 C 
BRANCH  25  26
ATOM     26  C   UNL     1      -0.183  11.325  19.110  0.00  0.00    +0.000 C 
BRANCH  26  27
ATOM     27  N   UNL     1       0.816  12.405  19.313  0.00  0.00    +0.000 NA
BRANCH  27  29
ATOM     28  C   UNL     1      -0.143  12.554  21.650  0.00  0.00    +0.000 C 
ATOM     29  C   UNL     1       1.091  12.575  20.745  0.00  0.00    +0.000 C 
ENDBRANCH  27  29
BRANCH  27  30
ATOM     30  C   UNL     1       2.026  12.260  18.488  0.00  0.00    +0.000 C 
ATOM     31  C   UNL     1       2.890  13.507  18.335  0.00  0.00    +0.000 C 
ENDBRANCH  27  30
ENDBRANCH  26  27
ENDBRANCH  25  26
ENDBRANCH  24  25
ENDBRANCH  18  24
ENDBRANCH   1  21
BRANCH   5  32
ATOM     32  O   UNL     1       7.819   5.700  12.723  0.00  0.00    +0.000 OA
ATOM     33  H   UNL     1       7.249   6.332  12.254  0.00  0.00    +0.000 HD
ENDBRANCH   5  32
BRANCH  13  34
ATOM     34  O   UNL     1       0.407   2.925  21.031  0.00  0.00    +0.000 OA
ATOM     35  H   UNL     1       0.047   3.829  20.978  0.00  0.00    +0.000 HD
ENDBRANCH  13  34
TORSDOF 9
ENDMDL
