MODEL 1
REMARK VINA RESULT:      -8.5      0.000      0.000
REMARK  Name = 
REMARK  2 active torsions:
REMARK  status: ('A' for Active; 'I' for Inactive)
REMARK    1  A    between atoms: C_1  and  C_2
REMARK    2  A    between atoms: C_4  and  C_5
REMARK                            x       y       z     vdW  Elec       q    Type
REMARK                         _______ _______ _______ _____ _____    ______ ____
ROOT
ATOM      1  C   UNL     1       4.925   4.895  18.338  0.00  0.00    +0.000 A 
ATOM      2  C   UNL     1       5.881   5.298  19.244  0.00  0.00    +0.000 A 
ATOM      3  S   UNL     1       7.241   5.936  18.407  0.00  0.00    +0.000 S 
ATOM      4  C   UNL     1       6.480   5.585  16.897  0.00  0.00    +0.000 A 
ATOM      5  N   UNL     1       7.123   5.806  15.728  0.00  0.00    +0.000 N 
ATOM      6  C   UNL     1       6.825   5.166  14.520  0.00  0.00    +0.000 A 
ATOM      7  C   UNL     1       5.555   4.690  14.193  0.00  0.00    +0.000 A 
ATOM      8  C   UNL     1       5.363   3.945  13.034  0.00  0.00    +0.000 A 
ATOM      9  C   UNL     1       6.440   3.730  12.191  0.00  0.00    +0.000 A 
ATOM     10  C   UNL     1       7.655   4.290  12.542  0.00  0.00    +0.000 A 
ATOM     11  N   UNL     1       7.869   4.998  13.678  0.00  0.00    +0.000 NA
ATOM     12  N   UNL     1       5.278   5.073  17.021  0.00  0.00    +0.000 NA
ATOM     13  H   UNL     1       8.110   6.030  15.752  0.00  0.00    +0.000 HD
ENDROOT
BRANCH   1  17
ATOM     14  C   UNL     1       1.901   2.822  21.742  0.00  0.00    +0.000 C 
ATOM     15  C   UNL     1       2.175   3.269  20.340  0.00  0.00    +0.000 A 
ATOM     16  C   UNL     1       3.389   3.872  19.984  0.00  0.00    +0.000 A 
ATOM     17  C   UNL     1       3.634   4.295  18.663  0.00  0.00    +0.000 A 
ATOM     18  C   UNL     1       2.649   4.093  17.690  0.00  0.00    +0.000 A 
ATOM     19  C   UNL     1       1.440   3.488  18.034  0.00  0.00    +0.000 A 
ATOM     20  C   UNL     1       1.211   3.085  19.345  0.00  0.00    +0.000 A 
ATOM     21  F   UNL     1       0.042   2.506  19.652  0.00  0.00    +0.000 F 
ENDBRANCH   1  17
TORSDOF 1
ENDMDL
MODEL 2
REMARK VINA RESULT:      -8.2      1.063      1.313
REMARK  Name = 
REMARK  2 active torsions:
REMARK  status: ('A' for Active; 'I' for Inactive)
REMARK    1  A    between atoms: C_1  and  C_2
REMARK    2  A    between atoms: C_4  and  C_5
REMARK                            x       y       z     vdW  Elec       q    Type
REMARK                         _______ _______ _______ _____ _____    ______ ____
ROOT
ATOM      1  C   UNL     1       5.604   4.914  18.672  0.00  0.00    +0.000 A 
ATOM      2  C   UNL     1       6.605   5.501  19.413  0.00  0.00    +0.000 A 
ATOM      3  S   UNL     1       7.719   6.287  18.364  0.00  0.00    +0.000 S 
ATOM      4  C   UNL     1       6.815   5.747  16.996  0.00  0.00    +0.000 A 
ATOM      5  N   UNL     1       7.245   5.997  15.738  0.00  0.00    +0.000 N 
ATOM      6  C   UNL     1       6.881   5.256  14.608  0.00  0.00    +0.000 A 
ATOM      7  C   UNL     1       5.666   4.581  14.487  0.00  0.00    +0.000 A 
ATOM      8  C   UNL     1       5.429   3.755  13.394  0.00  0.00    +0.000 A 
ATOM      9  C   UNL     1       6.397   3.656  12.409  0.00  0.00    +0.000 A 
ATOM     10  C   UNL     1       7.548   4.407  12.557  0.00  0.00    +0.000 A 
ATOM     11  N   UNL     1       7.810   5.199  13.626  0.00  0.00    +0.000 NA
ATOM     12  N   UNL     1       5.736   5.070  17.311  0.00  0.00    +0.000 NA
ATOM     13  H   UNL     1       8.179   6.365  15.609  0.00  0.00    +0.000 HD
ENDROOT
BRANCH   1  17
ATOM     14  C   UNL     1       0.986   4.860  20.594  0.00  0.00    +0.000 C 
ATOM     15  C   UNL     1       2.225   4.144  20.156  0.00  0.00    +0.000 A 
ATOM     16  C   UNL     1       3.321   4.832  19.618  0.00  0.00    +0.000 A 
ATOM     17  C   UNL     1       4.480   4.148  19.203  0.00  0.00    +0.000 A 
ATOM     18  C   UNL     1       4.538   2.757  19.346  0.00  0.00    +0.000 A 
ATOM     19  C   UNL     1       3.454   2.065  19.886  0.00  0.00    +0.000 A 
ATOM     20  C   UNL     1       2.314   2.755  20.282  0.00  0.00    +0.000 A 
ATOM     21  F   UNL     1       1.285   2.068  20.799  0.00  0.00    +0.000 F 
ENDBRANCH   1  17
TORSDOF 1
ENDMDL
MODEL 3
REMARK VINA RESULT:      -7.9      0.917      1.345
REMARK  Name = 
REMARK  2 active torsions:
REMARK  status: ('A' for Active; 'I' for Inactive)
REMARK    1  A    between atoms: C_1  and  C_2
REMARK    2  A    between atoms: C_4  and  C_5
REMARK                            x       y       z     vdW  Elec       q    Type
REMARK                         _______ _______ _______ _____ _____    ______ ____
ROOT
ATOM      1  C   UNL     1       5.273   5.203  18.516  0.00  0.00    +0.000 A 
ATOM      2  C   UNL     1       6.370   5.550  19.273  0.00  0.00    +0.000 A 
ATOM      3  S   UNL     1       7.682   5.961  18.239  0.00  0.00    +0.000 S 
ATOM      4  C   UNL     1       6.711   5.600  16.858  0.00  0.00    +0.000 A 
ATOM      5  N   UNL     1       7.229   5.660  15.610  0.00  0.00    +0.000 N 
ATOM      6  C   UNL     1       6.719   4.979  14.500  0.00  0.00    +0.000 A 
ATOM      7  C   UNL     1       5.374   4.636  14.357  0.00  0.00    +0.000 A 
ATOM      8  C   UNL     1       4.963   3.842  13.292  0.00  0.00    +0.000 A 
ATOM      9  C   UNL     1       5.900   3.441  12.356  0.00  0.00    +0.000 A 
ATOM     10  C   UNL     1       7.202   3.875  12.521  0.00  0.00    +0.000 A 
ATOM     11  N   UNL     1       7.629   4.629  13.564  0.00  0.00    +0.000 NA
ATOM     12  N   UNL     1       5.483   5.245  17.157  0.00  0.00    +0.000 NA
ATOM     13  H   UNL     1       8.230   5.766  15.506  0.00  0.00    +0.000 HD
ENDROOT
BRANCH   1  17
ATOM     14  C   UNL     1       1.591   1.818  18.612  0.00  0.00    +0.000 C 
ATOM     15  C   UNL     1       2.175   3.124  19.053  0.00  0.00    +0.000 A 
ATOM     16  C   UNL     1       3.430   3.558  18.605  0.00  0.00    +0.000 A 
ATOM     17  C   UNL     1       3.973   4.785  19.031  0.00  0.00    +0.000 A 
ATOM     18  C   UNL     1       3.234   5.589  19.906  0.00  0.00    +0.000 A 
ATOM     19  C   UNL     1       1.981   5.168  20.353  0.00  0.00    +0.000 A 
ATOM     20  C   UNL     1       1.464   3.948  19.930  0.00  0.00    +0.000 A 
ATOM     21  F   UNL     1       0.258   3.565  20.372  0.00  0.00    +0.000 F 
ENDBRANCH   1  17
TORSDOF 1
ENDMDL
MODEL 4
REMARK VINA RESULT:      -7.8      2.956      6.774
REMARK  Name = 
REMARK  2 active torsions:
REMARK  status: ('A' for Active; 'I' for Inactive)
REMARK    1  A    between atoms: C_1  and  C_2
REMARK    2  A    between atoms: C_4  and  C_5
REMARK                            x       y       z     vdW  Elec       q    Type
REMARK                         _______ _______ _______ _____ _____    ______ ____
ROOT
ATOM      1  C   UNL     1       6.803   4.982  16.508  0.00  0.00    +0.000 A 
ATOM      2  C   UNL     1       7.503   5.878  17.286  0.00  0.00    +0.000 A 
ATOM      3  S   UNL     1       7.053   5.689  18.936  0.00  0.00    +0.000 S 
ATOM      4  C   UNL     1       5.923   4.462  18.489  0.00  0.00    +0.000 A 
ATOM      5  N   UNL     1       5.113   3.896  19.413  0.00  0.00    +0.000 N 
ATOM      6  C   UNL     1       3.897   3.265  19.128  0.00  0.00    +0.000 A 
ATOM      7  C   UNL     1       3.621   2.633  17.915  0.00  0.00    +0.000 A 
ATOM      8  C   UNL     1       2.345   2.146  17.653  0.00  0.00    +0.000 A 
ATOM      9  C   UNL     1       1.374   2.254  18.633  0.00  0.00    +0.000 A 
ATOM     10  C   UNL     1       1.735   2.829  19.838  0.00  0.00    +0.000 A 
ATOM     11  N   UNL     1       2.965   3.332  20.105  0.00  0.00    +0.000 NA
ATOM     12  N   UNL     1       5.924   4.187  17.206  0.00  0.00    +0.000 NA
ATOM     13  H   UNL     1       5.067   4.309  20.335  0.00  0.00    +0.000 HD
ENDROOT
BRANCH   1  17
ATOM     14  C   UNL     1       5.104   2.934  12.272  0.00  0.00    +0.000 C 
ATOM     15  C   UNL     1       6.068   3.820  12.998  0.00  0.00    +0.000 A 
ATOM     16  C   UNL     1       5.997   4.003  14.386  0.00  0.00    +0.000 A 
ATOM     17  C   UNL     1       6.905   4.843  15.058  0.00  0.00    +0.000 A 
ATOM     18  C   UNL     1       7.905   5.491  14.324  0.00  0.00    +0.000 A 
ATOM     19  C   UNL     1       7.987   5.309  12.943  0.00  0.00    +0.000 A 
ATOM     20  C   UNL     1       7.075   4.484  12.294  0.00  0.00    +0.000 A 
ATOM     21  F   UNL     1       7.175   4.324  10.967  0.00  0.00    +0.000 F 
ENDBRANCH   1  17
TORSDOF 1
ENDMDL
MODEL 5
REMARK VINA RESULT:      -7.6      3.981      4.509
REMARK  Name = 
REMARK  2 active torsions:
REMARK  status: ('A' for Active; 'I' for Inactive)
REMARK    1  A    between atoms: C_1  and  C_2
REMARK    2  A    between atoms: C_4  and  C_5
REMARK                            x       y       z     vdW  Elec       q    Type
REMARK                         _______ _______ _______ _____ _____    ______ ____
ROOT
ATOM      1  C   UNL     1       2.660   5.836  19.808  0.00  0.00    +0.000 A 
ATOM      2  C   UNL     1       2.293   4.752  20.576  0.00  0.00    +0.000 A 
ATOM      3  S   UNL     1       3.284   3.402  20.183  0.00  0.00    +0.000 S 
ATOM      4  C   UNL     1       4.097   4.342  18.985  0.00  0.00    +0.000 A 
ATOM      5  N   UNL     1       5.039   3.788  18.189  0.00  0.00    +0.000 N 
ATOM      6  C   UNL     1       5.418   4.283  16.937  0.00  0.00    +0.000 A 
ATOM      7  C   UNL     1       5.344   5.632  16.587  0.00  0.00    +0.000 A 
ATOM      8  C   UNL     1       5.611   6.033  15.282  0.00  0.00    +0.000 A 
ATOM      9  C   UNL     1       5.997   5.080  14.356  0.00  0.00    +0.000 A 
ATOM     10  C   UNL     1       6.117   3.772  14.787  0.00  0.00    +0.000 A 
ATOM     11  N   UNL     1       5.839   3.356  16.047  0.00  0.00    +0.000 NA
ATOM     12  N   UNL     1       3.684   5.587  18.924  0.00  0.00    +0.000 NA
ATOM     13  H   UNL     1       5.149   2.782  18.197  0.00  0.00    +0.000 HD
ENDROOT
BRANCH   1  17
ATOM     14  C   UNL     1       0.040   9.271  22.329  0.00  0.00    +0.000 C 
ATOM     15  C   UNL     1       0.752   8.823  21.091  0.00  0.00    +0.000 A 
ATOM     16  C   UNL     1       1.375   7.570  21.014  0.00  0.00    +0.000 A 
ATOM     17  C   UNL     1       2.048   7.161  19.847  0.00  0.00    +0.000 A 
ATOM     18  C   UNL     1       2.078   8.019  18.742  0.00  0.00    +0.000 A 
ATOM     19  C   UNL     1       1.455   9.265  18.808  0.00  0.00    +0.000 A 
ATOM     20  C   UNL     1       0.803   9.657  19.972  0.00  0.00    +0.000 A 
ATOM     21  F   UNL     1       0.211  10.860  20.011  0.00  0.00    +0.000 F 
ENDBRANCH   1  17
TORSDOF 1
ENDMDL
MODEL 6
REMARK VINA RESULT:      -7.5      3.811      4.632
REMARK  Name = 
REMARK  2 active torsions:
REMARK  status: ('A' for Active; 'I' for Inactive)
REMARK    1  A    between atoms: C_1  and  C_2
REMARK    2  A    between atoms: C_4  and  C_5
REMARK                            x       y       z     vdW  Elec       q    Type
REMARK                         _______ _______ _______ _____ _____    ______ ____
ROOT
ATOM      1  C   UNL     1       2.678   5.534  19.896  0.00  0.00    +0.000 A 
ATOM      2  C   UNL     1       2.355   4.407  20.619  0.00  0.00    +0.000 A 
ATOM      3  S   UNL     1       3.373   3.103  20.147  0.00  0.00    +0.000 S 
ATOM      4  C   UNL     1       4.138   4.119  18.980  0.00  0.00    +0.000 A 
ATOM      5  N   UNL     1       5.079   3.627  18.141  0.00  0.00    +0.000 N 
ATOM      6  C   UNL     1       5.421   4.190  16.907  0.00  0.00    +0.000 A 
ATOM      7  C   UNL     1       5.305   5.551  16.621  0.00  0.00    +0.000 A 
ATOM      8  C   UNL     1       5.536   6.018  15.332  0.00  0.00    +0.000 A 
ATOM      9  C   UNL     1       5.929   5.119  14.356  0.00  0.00    +0.000 A 
ATOM     10  C   UNL     1       6.093   3.797  14.724  0.00  0.00    +0.000 A 
ATOM     11  N   UNL     1       5.850   3.316  15.969  0.00  0.00    +0.000 NA
ATOM     12  N   UNL     1       3.691   5.354  18.983  0.00  0.00    +0.000 NA
ATOM     13  H   UNL     1       5.216   2.626  18.101  0.00  0.00    +0.000 HD
ENDROOT
BRANCH   1  17
ATOM     14  C   UNL     1       1.768  10.043  17.929  0.00  0.00    +0.000 C 
ATOM     15  C   UNL     1       1.610   9.045  19.034  0.00  0.00    +0.000 A 
ATOM     16  C   UNL     1       2.192   7.772  18.964  0.00  0.00    +0.000 A 
ATOM     17  C   UNL     1       2.032   6.838  20.006  0.00  0.00    +0.000 A 
ATOM     18  C   UNL     1       1.291   7.200  21.137  0.00  0.00    +0.000 A 
ATOM     19  C   UNL     1       0.714   8.467  21.217  0.00  0.00    +0.000 A 
ATOM     20  C   UNL     1       0.873   9.373  20.175  0.00  0.00    +0.000 A 
ATOM     21  F   UNL     1       0.309  10.585  20.275  0.00  0.00    +0.000 F 
ENDBRANCH   1  17
TORSDOF 1
ENDMDL
MODEL 7
REMARK VINA RESULT:      -7.5      1.075      1.120
REMARK  Name = 
REMARK  2 active torsions:
REMARK  status: ('A' for Active; 'I' for Inactive)
REMARK    1  A    between atoms: C_1  and  C_2
REMARK    2  A    between atoms: C_4  and  C_5
REMARK                            x       y       z     vdW  Elec       q    Type
REMARK                         _______ _______ _______ _____ _____    ______ ____
ROOT
ATOM      1  C   UNL     1       4.888   4.756  17.544  0.00  0.00    +0.000 A 
ATOM      2  C   UNL     1       5.862   5.326  18.334  0.00  0.00    +0.000 A 
ATOM      3  S   UNL     1       7.131   5.932  17.344  0.00  0.00    +0.000 S 
ATOM      4  C   UNL     1       6.317   5.348  15.938  0.00  0.00    +0.000 A 
ATOM      5  N   UNL     1       6.882   5.455  14.714  0.00  0.00    +0.000 N 
ATOM      6  C   UNL     1       6.564   4.650  13.615  0.00  0.00    +0.000 A 
ATOM      7  C   UNL     1       5.313   4.062  13.426  0.00  0.00    +0.000 A 
ATOM      8  C   UNL     1       5.111   3.166  12.381  0.00  0.00    +0.000 A 
ATOM      9  C   UNL     1       6.154   2.910  11.509  0.00  0.00    +0.000 A 
ATOM     10  C   UNL     1       7.346   3.580  11.713  0.00  0.00    +0.000 A 
ATOM     11  N   UNL     1       7.572   4.438  12.738  0.00  0.00    +0.000 NA
ATOM     12  N   UNL     1       5.160   4.785  16.196  0.00  0.00    +0.000 NA
ATOM     13  H   UNL     1       7.852   5.738  14.651  0.00  0.00    +0.000 HD
ENDROOT
BRANCH   1  17
ATOM     14  C   UNL     1       1.047   4.735  20.750  0.00  0.00    +0.000 C 
ATOM     15  C   UNL     1       1.795   4.125  19.605  0.00  0.00    +0.000 A 
ATOM     16  C   UNL     1       2.967   4.705  19.099  0.00  0.00    +0.000 A 
ATOM     17  C   UNL     1       3.659   4.126  18.018  0.00  0.00    +0.000 A 
ATOM     18  C   UNL     1       3.172   2.943  17.452  0.00  0.00    +0.000 A 
ATOM     19  C   UNL     1       2.009   2.356  17.954  0.00  0.00    +0.000 A 
ATOM     20  C   UNL     1       1.333   2.946  19.015  0.00  0.00    +0.000 A 
ATOM     21  F   UNL     1       0.219   2.363  19.480  0.00  0.00    +0.000 F 
ENDBRANCH   1  17
TORSDOF 1
ENDMDL
MODEL 8
REMARK VINA RESULT:      -7.4      2.918      6.911
REMARK  Name = 
REMARK  2 active torsions:
REMARK  status: ('A' for Active; 'I' for Inactive)
REMARK    1  A    between atoms: C_1  and  C_2
REMARK    2  A    between atoms: C_4  and  C_5
REMARK                            x       y       z     vdW  Elec       q    Type
REMARK                         _______ _______ _______ _____ _____    ______ ____
ROOT
ATOM      1  C   UNL     1       6.490   4.775  16.871  0.00  0.00    +0.000 A 
ATOM      2  C   UNL     1       7.255   5.635  17.627  0.00  0.00    +0.000 A 
ATOM      3  S   UNL     1       6.770   5.547  19.275  0.00  0.00    +0.000 S 
ATOM      4  C   UNL     1       5.542   4.408  18.856  0.00  0.00    +0.000 A 
ATOM      5  N   UNL     1       4.674   3.949  19.786  0.00  0.00    +0.000 N 
ATOM      6  C   UNL     1       3.411   3.416  19.505  0.00  0.00    +0.000 A 
ATOM      7  C   UNL     1       3.097   2.766  18.311  0.00  0.00    +0.000 A 
ATOM      8  C   UNL     1       1.786   2.382  18.047  0.00  0.00    +0.000 A 
ATOM      9  C   UNL     1       0.816   2.611  19.007  0.00  0.00    +0.000 A 
ATOM     10  C   UNL     1       1.210   3.196  20.196  0.00  0.00    +0.000 A 
ATOM     11  N   UNL     1       2.476   3.600  20.464  0.00  0.00    +0.000 NA
ATOM     12  N   UNL     1       5.535   4.087  17.583  0.00  0.00    +0.000 NA
ATOM     13  H   UNL     1       4.653   4.398  20.692  0.00  0.00    +0.000 HD
ENDROOT
BRANCH   1  17
ATOM     14  C   UNL     1       8.666   5.976  12.529  0.00  0.00    +0.000 C 
ATOM     15  C   UNL     1       7.664   5.186  13.312  0.00  0.00    +0.000 A 
ATOM     16  C   UNL     1       7.539   5.327  14.701  0.00  0.00    +0.000 A 
ATOM     17  C   UNL     1       6.597   4.574  15.429  0.00  0.00    +0.000 A 
ATOM     18  C   UNL     1       5.763   3.683  14.745  0.00  0.00    +0.000 A 
ATOM     19  C   UNL     1       5.876   3.541  13.362  0.00  0.00    +0.000 A 
ATOM     20  C   UNL     1       6.819   4.285  12.660  0.00  0.00    +0.000 A 
ATOM     21  F   UNL     1       6.908   4.132  11.331  0.00  0.00    +0.000 F 
ENDBRANCH   1  17
TORSDOF 1
ENDMDL
MODEL 9
REMARK VINA RESULT:      -7.0      4.799      6.741
REMARK  Name = 
REMARK  2 active torsions:
REMARK  status: ('A' for Active; 'I' for Inactive)
REMARK    1  A    between atoms: C_1  and  C_2
REMARK    2  A    between atoms: C_4  and  C_5
REMARK                            x       y       z     vdW  Elec       q    Type
REMARK                         _______ _______ _______ _____ _____    ______ ____
ROOT
ATOM      1  C   UNL     1       2.389   7.942  18.349  0.00  0.00    +0.000 A 
ATOM      2  C   UNL     1       3.454   8.276  17.542  0.00  0.00    +0.000 A 
ATOM      3  S   UNL     1       4.369   6.866  17.175  0.00  0.00    +0.000 S 
ATOM      4  C   UNL     1       3.309   5.920  18.157  0.00  0.00    +0.000 A 
ATOM      5  N   UNL     1       3.544   4.604  18.364  0.00  0.00    +0.000 N 
ATOM      6  C   UNL     1       3.062   3.869  19.452  0.00  0.00    +0.000 A 
ATOM      7  C   UNL     1       1.877   4.172  20.124  0.00  0.00    +0.000 A 
ATOM      8  C   UNL     1       1.530   3.481  21.279  0.00  0.00    +0.000 A 
ATOM      9  C   UNL     1       2.352   2.458  21.719  0.00  0.00    +0.000 A 
ATOM     10  C   UNL     1       3.474   2.164  20.966  0.00  0.00    +0.000 A 
ATOM     11  N   UNL     1       3.844   2.841  19.852  0.00  0.00    +0.000 NA
ATOM     12  N   UNL     1       2.320   6.608  18.678  0.00  0.00    +0.000 NA
ATOM     13  H   UNL     1       4.431   4.218  18.067  0.00  0.00    +0.000 HD
ENDROOT
BRANCH   1  17
ATOM     14  C   UNL     1      -0.145   9.722  22.278  0.00  0.00    +0.000 C 
ATOM     15  C   UNL     1       0.150   9.714  20.810  0.00  0.00    +0.000 A 
ATOM     16  C   UNL     1       1.116   8.861  20.259  0.00  0.00    +0.000 A 
ATOM     17  C   UNL     1       1.391   8.867  18.877  0.00  0.00    +0.000 A 
ATOM     18  C   UNL     1       0.672   9.731  18.044  0.00  0.00    +0.000 A 
ATOM     19  C   UNL     1      -0.295  10.579  18.584  0.00  0.00    +0.000 A 
ATOM     20  C   UNL     1      -0.547  10.568  19.951  0.00  0.00    +0.000 A 
ATOM     21  F   UNL     1      -1.482  11.391  20.447  0.00  0.00    +0.000 F 
ENDBRANCH   1  17
TORSDOF 1
ENDMDL
