MODEL 1
REMARK VINA RESULT:      -7.5      0.000      0.000
REMARK  Name = 
REMARK  6 active torsions:
REMARK  status: ('A' for Active; 'I' for Inactive)
REMARK    1  A    between atoms: C_1  and  C_2
REMARK    2  A    between atoms: C_2  and  C_3
REMARK    3  A    between atoms: C_3  and  C_4
REMARK    4  A    between atoms: C_9  and  N_10
REMARK    5  A    between atoms: N_10  and  C_11
REMARK    6  A    between atoms: C_19  and  N_20
REMARK                            x       y       z     vdW  Elec       q    Type
REMARK                         _______ _______ _______ _____ _____    ______ ____
ROOT
ATOM      1  C   UNL     1       5.931   4.649  15.803  0.00  0.00    +0.000 A 
ATOM      2  N   UNL     1       6.992   5.506  15.937  0.00  0.00    +0.000 NA
ATOM      3  C   UNL     1       7.003   6.413  16.938  0.00  0.00    +0.000 A 
ATOM      4  C   UNL     1       5.984   6.584  17.861  0.00  0.00    +0.000 A 
ATOM      5  C   UNL     1       4.867   5.748  17.721  0.00  0.00    +0.000 A 
ATOM      6  C   UNL     1       3.634   5.564  18.409  0.00  0.00    +0.000 A 
ATOM      7  C   UNL     1       3.012   4.486  17.813  0.00  0.00    +0.000 A 
ATOM      8  O   UNL     1       3.747   4.028  16.768  0.00  0.00    +0.000 OA
ATOM      9  C   UNL     1       4.881   4.790  16.711  0.00  0.00    +0.000 A 
ENDROOT
BRANCH   7  10
ATOM     10  N   UNL     1       1.851   3.850  18.043  0.00  0.00    +0.000 N 
ATOM     11  H   UNL     1       1.476   3.828  18.984  0.00  0.00    +0.000 HD
ATOM     12  H   UNL     1       1.133   3.939  17.329  0.00  0.00    +0.000 HD
ENDBRANCH   7  10
BRANCH   6  13
ATOM     13  N   UNL     1       3.176   6.245  19.492  0.00  0.00    +0.000 N 
ATOM     14  H   UNL     1       3.193   5.760  20.387  0.00  0.00    +0.000 HD
BRANCH  13  15
ATOM     15  C   UNL     1       2.349   7.390  19.535  0.00  0.00    +0.000 A 
ATOM     16  C   UNL     1       2.208   8.167  18.375  0.00  0.00    +0.000 A 
ATOM     17  C   UNL     1       1.369   9.284  18.357  0.00  0.00    +0.000 A 
ATOM     18  C   UNL     1       0.661   9.631  19.503  0.00  0.00    +0.000 A 
ATOM     19  F   UNL     1      -0.131  10.712  19.469  0.00  0.00    +0.000 F 
ATOM     20  C   UNL     1       0.775   8.865  20.659  0.00  0.00    +0.000 A 
ATOM     21 CL   UNL     1      -0.103   9.286  22.079  0.00  0.00    +0.000 Cl
ATOM     22  C   UNL     1       1.608   7.744  20.673  0.00  0.00    +0.000 A 
ENDBRANCH  13  15
ENDBRANCH   6  13
BRANCH   1  23
ATOM     23  C   UNL     1       5.988   3.631  14.700  0.00  0.00    +0.000 C 
BRANCH  23  25
ATOM     24  C   UNL     1       6.234   3.390  12.200  0.00  0.00    +0.000 C 
ATOM     25  C   UNL     1       6.570   4.232  13.420  0.00  0.00    +0.000 C 
ENDBRANCH  23  25
ENDBRANCH   1  23
TORSDOF 5
ENDMDL
MODEL 2
REMARK VINA RESULT:      -7.3      1.259      1.638
REMARK  Name = 
REMARK  6 active torsions:
REMARK  status: ('A' for Active; 'I' for Inactive)
REMARK    1  A    between atoms: C_1  and  C_2
REMARK    2  A    between atoms: C_2  and  C_3
REMARK    3  A    between atoms: C_3  and  C_4
REMARK    4  A    between atoms: C_9  and  N_10
REMARK    5  A    between atoms: N_10  and  C_11
REMARK    6  A    between atoms: C_19  and  N_20
REMARK                            x       y       z     vdW  Elec       q    Type
REMARK                         _______ _______ _______ _____ _____    ______ ____
ROOT
ATOM      1  C   UNL     1       6.437   4.846  15.640  0.00  0.00    +0.000 A 
ATOM      2  N   UNL     1       7.355   5.808  15.975  0.00  0.00    +0.000 NA
ATOM      3  C   UNL     1       7.188   6.536  17.101  0.00  0.00    +0.000 A 
ATOM      4  C   UNL     1       6.113   6.415  17.968  0.00  0.00    +0.000 A 
ATOM      5  C   UNL     1       5.137   5.468  17.626  0.00  0.00    +0.000 A 
ATOM      6  C   UNL     1       3.914   5.010  18.192  0.00  0.00    +0.000 A 
ATOM      7  C   UNL     1       3.483   3.966  17.397  0.00  0.00    +0.000 A 
ATOM      8  O   UNL     1       4.325   3.787  16.348  0.00  0.00    +0.000 OA
ATOM      9  C   UNL     1       5.337   4.695  16.485  0.00  0.00    +0.000 A 
ENDROOT
BRANCH   7  10
ATOM     10  N   UNL     1       2.418   3.150  17.448  0.00  0.00    +0.000 N 
ATOM     11  H   UNL     1       1.601   3.365  16.888  0.00  0.00    +0.000 HD
ATOM     12  H   UNL     1       2.610   2.154  17.509  0.00  0.00    +0.000 HD
ENDBRANCH   7  10
BRANCH   6  13
ATOM     13  N   UNL     1       3.313   5.439  19.332  0.00  0.00    +0.000 N 
ATOM     14  H   UNL     1       3.152   4.748  20.062  0.00  0.00    +0.000 HD
BRANCH  13  15
ATOM     15  C   UNL     1       2.548   6.609  19.545  0.00  0.00    +0.000 A 
ATOM     16  C   UNL     1       1.873   6.763  20.766  0.00  0.00    +0.000 A 
ATOM     17  C   UNL     1       1.139   7.920  21.039  0.00  0.00    +0.000 A 
ATOM     18  C   UNL     1       1.078   8.935  20.090  0.00  0.00    +0.000 A 
ATOM     19  F   UNL     1       0.360  10.033  20.367  0.00  0.00    +0.000 F 
ATOM     20  C   UNL     1       1.752   8.809  18.881  0.00  0.00    +0.000 A 
ATOM     21 CL   UNL     1       1.685  10.066  17.705  0.00  0.00    +0.000 Cl
ATOM     22  C   UNL     1       2.492   7.655  18.612  0.00  0.00    +0.000 A 
ENDBRANCH  13  15
ENDBRANCH   6  13
BRANCH   1  23
ATOM     23  C   UNL     1       6.693   4.037  14.402  0.00  0.00    +0.000 C 
BRANCH  23  25
ATOM     24  C   UNL     1       5.741   3.261  12.197  0.00  0.00    +0.000 C 
ATOM     25  C   UNL     1       5.480   4.049  13.470  0.00  0.00    +0.000 C 
ENDBRANCH  23  25
ENDBRANCH   1  23
TORSDOF 5
ENDMDL
MODEL 3
REMARK VINA RESULT:      -7.3      4.153      7.579
REMARK  Name = 
REMARK  6 active torsions:
REMARK  status: ('A' for Active; 'I' for Inactive)
REMARK    1  A    between atoms: C_1  and  C_2
REMARK    2  A    between atoms: C_2  and  C_3
REMARK    3  A    between atoms: C_3  and  C_4
REMARK    4  A    between atoms: C_9  and  N_10
REMARK    5  A    between atoms: N_10  and  C_11
REMARK    6  A    between atoms: C_19  and  N_20
REMARK                            x       y       z     vdW  Elec       q    Type
REMARK                         _______ _______ _______ _____ _____    ______ ____
ROOT
ATOM      1  C   UNL     1       2.230   5.169  19.515  0.00  0.00    +0.000 A 
ATOM      2  N   UNL     1       1.235   4.494  18.857  0.00  0.00    +0.000 NA
ATOM      3  C   UNL     1       1.543   3.673  17.829  0.00  0.00    +0.000 A 
ATOM      4  C   UNL     1       2.822   3.466  17.339  0.00  0.00    +0.000 A 
ATOM      5  C   UNL     1       3.855   4.178  17.966  0.00  0.00    +0.000 A 
ATOM      6  C   UNL     1       5.266   4.278  17.815  0.00  0.00    +0.000 A 
ATOM      7  C   UNL     1       5.712   5.093  18.837  0.00  0.00    +0.000 A 
ATOM      8  O   UNL     1       4.666   5.551  19.572  0.00  0.00    +0.000 OA
ATOM      9  C   UNL     1       3.533   4.992  19.049  0.00  0.00    +0.000 A 
ENDROOT
BRANCH   7  10
ATOM     10  N   UNL     1       6.929   5.525  19.206  0.00  0.00    +0.000 N 
ATOM     11  H   UNL     1       7.010   6.194  19.963  0.00  0.00    +0.000 HD
ATOM     12  H   UNL     1       7.677   4.838  19.199  0.00  0.00    +0.000 HD
ENDBRANCH   7  10
BRANCH   6  13
ATOM     13  N   UNL     1       6.054   3.642  16.909  0.00  0.00    +0.000 N 
ATOM     14  H   UNL     1       6.729   2.971  17.269  0.00  0.00    +0.000 HD
BRANCH  13  15
ATOM     15  C   UNL     1       6.343   4.007  15.574  0.00  0.00    +0.000 A 
ATOM     16  C   UNL     1       7.349   4.957  15.336  0.00  0.00    +0.000 A 
ATOM     17  C   UNL     1       7.699   5.319  14.033  0.00  0.00    +0.000 A 
ATOM     18  C   UNL     1       7.045   4.729  12.956  0.00  0.00    +0.000 A 
ATOM     19  F   UNL     1       7.389   5.098  11.713  0.00  0.00    +0.000 F 
ATOM     20  C   UNL     1       6.057   3.775  13.170  0.00  0.00    +0.000 A 
ATOM     21 CL   UNL     1       5.248   3.037  11.841  0.00  0.00    +0.000 Cl
ATOM     22  C   UNL     1       5.713   3.408  14.474  0.00  0.00    +0.000 A 
ENDBRANCH  13  15
ENDBRANCH   6  13
BRANCH   1  23
ATOM     23  C   UNL     1       1.838   6.035  20.677  0.00  0.00    +0.000 C 
BRANCH  23  25
ATOM     24  C   UNL     1       0.950   8.340  21.192  0.00  0.00    +0.000 C 
ATOM     25  C   UNL     1       1.864   7.517  20.300  0.00  0.00    +0.000 C 
ENDBRANCH  23  25
ENDBRANCH   1  23
TORSDOF 5
ENDMDL
MODEL 4
REMARK VINA RESULT:      -7.2      4.011      7.244
REMARK  Name = 
REMARK  6 active torsions:
REMARK  status: ('A' for Active; 'I' for Inactive)
REMARK    1  A    between atoms: C_1  and  C_2
REMARK    2  A    between atoms: C_2  and  C_3
REMARK    3  A    between atoms: C_3  and  C_4
REMARK    4  A    between atoms: C_9  and  N_10
REMARK    5  A    between atoms: N_10  and  C_11
REMARK    6  A    between atoms: C_19  and  N_20
REMARK                            x       y       z     vdW  Elec       q    Type
REMARK                         _______ _______ _______ _____ _____    ______ ____
ROOT
ATOM      1  C   UNL     1       2.339   6.819  19.691  0.00  0.00    +0.000 A 
ATOM      2  N   UNL     1       2.514   7.850  18.805  0.00  0.00    +0.000 NA
ATOM      3  C   UNL     1       3.347   7.700  17.752  0.00  0.00    +0.000 A 
ATOM      4  C   UNL     1       4.096   6.563  17.493  0.00  0.00    +0.000 A 
ATOM      5  C   UNL     1       3.969   5.508  18.408  0.00  0.00    +0.000 A 
ATOM      6  C   UNL     1       4.514   4.201  18.544  0.00  0.00    +0.000 A 
ATOM      7  C   UNL     1       3.888   3.627  19.633  0.00  0.00    +0.000 A 
ATOM      8  O   UNL     1       3.038   4.511  20.214  0.00  0.00    +0.000 OA
ATOM      9  C   UNL     1       3.079   5.657  19.468  0.00  0.00    +0.000 A 
ENDROOT
BRANCH   7  10
ATOM     10  N   UNL     1       3.980   2.422  20.219  0.00  0.00    +0.000 N 
ATOM     11  H   UNL     1       3.576   2.285  21.139  0.00  0.00    +0.000 HD
ATOM     12  H   UNL     1       3.879   1.612  19.614  0.00  0.00    +0.000 HD
ENDBRANCH   7  10
BRANCH   6  13
ATOM     13  N   UNL     1       5.410   3.584  17.730  0.00  0.00    +0.000 N 
ATOM     14  H   UNL     1       5.987   2.853  18.142  0.00  0.00    +0.000 HD
BRANCH  13  15
ATOM     15  C   UNL     1       5.929   4.020  16.490  0.00  0.00    +0.000 A 
ATOM     16  C   UNL     1       7.072   4.836  16.485  0.00  0.00    +0.000 A 
ATOM     17  C   UNL     1       7.646   5.259  15.283  0.00  0.00    +0.000 A 
ATOM     18  C   UNL     1       7.080   4.865  14.075  0.00  0.00    +0.000 A 
ATOM     19  F   UNL     1       7.640   5.289  12.932  0.00  0.00    +0.000 F 
ATOM     20  C   UNL     1       5.957   4.045  14.058  0.00  0.00    +0.000 A 
ATOM     21 CL   UNL     1       5.256   3.549  12.565  0.00  0.00    +0.000 Cl
ATOM     22  C   UNL     1       5.389   3.616  15.260  0.00  0.00    +0.000 A 
ENDBRANCH  13  15
ENDBRANCH   6  13
BRANCH   1  23
ATOM     23  C   UNL     1       1.369   7.023  20.819  0.00  0.00    +0.000 C 
BRANCH  23  25
ATOM     24  C   UNL     1      -0.116   8.773  21.868  0.00  0.00    +0.000 C 
ATOM     25  C   UNL     1       1.190   8.508  21.137  0.00  0.00    +0.000 C 
ENDBRANCH  23  25
ENDBRANCH   1  23
TORSDOF 5
ENDMDL
MODEL 5
REMARK VINA RESULT:      -7.2      4.547      7.805
REMARK  Name = 
REMARK  6 active torsions:
REMARK  status: ('A' for Active; 'I' for Inactive)
REMARK    1  A    between atoms: C_1  and  C_2
REMARK    2  A    between atoms: C_2  and  C_3
REMARK    3  A    between atoms: C_3  and  C_4
REMARK    4  A    between atoms: C_9  and  N_10
REMARK    5  A    between atoms: N_10  and  C_11
REMARK    6  A    between atoms: C_19  and  N_20
REMARK                            x       y       z     vdW  Elec       q    Type
REMARK                         _______ _______ _______ _____ _____    ______ ____
ROOT
ATOM      1  C   UNL     1      -0.349  11.008  20.344  0.00  0.00    +0.000 A 
ATOM      2  N   UNL     1      -0.769  10.960  21.647  0.00  0.00    +0.000 NA
ATOM      3  C   UNL     1      -0.337   9.971  22.460  0.00  0.00    +0.000 A 
ATOM      4  C   UNL     1       0.503   8.940  22.071  0.00  0.00    +0.000 A 
ATOM      5  C   UNL     1       0.914   8.940  20.730  0.00  0.00    +0.000 A 
ATOM      6  C   UNL     1       1.744   8.120  19.916  0.00  0.00    +0.000 A 
ATOM      7  C   UNL     1       1.817   8.740  18.684  0.00  0.00    +0.000 A 
ATOM      8  O   UNL     1       1.043   9.855  18.665  0.00  0.00    +0.000 OA
ATOM      9  C   UNL     1       0.495   9.984  19.911  0.00  0.00    +0.000 A 
ENDROOT
BRANCH   7  10
ATOM     10  N   UNL     1       2.459   8.445  17.541  0.00  0.00    +0.000 N 
ATOM     11  H   UNL     1       1.919   8.205  16.718  0.00  0.00    +0.000 HD
ATOM     12  H   UNL     1       3.288   8.993  17.330  0.00  0.00    +0.000 HD
ENDBRANCH   7  10
BRANCH   6  13
ATOM     13  N   UNL     1       2.411   6.993  20.276  0.00  0.00    +0.000 N 
ATOM     14  H   UNL     1       3.358   7.106  20.631  0.00  0.00    +0.000 HD
BRANCH  13  15
ATOM     15  C   UNL     1       2.149   5.652  19.913  0.00  0.00    +0.000 A 
ATOM     16  C   UNL     1       1.373   4.858  20.772  0.00  0.00    +0.000 A 
ATOM     17  C   UNL     1       1.052   3.540  20.436  0.00  0.00    +0.000 A 
ATOM     18  C   UNL     1       1.505   3.007  19.234  0.00  0.00    +0.000 A 
ATOM     19  F   UNL     1       1.195   1.737  18.935  0.00  0.00    +0.000 F 
ATOM     20  C   UNL     1       2.262   3.782  18.362  0.00  0.00    +0.000 A 
ATOM     21 CL   UNL     1       2.821   3.129  16.869  0.00  0.00    +0.000 Cl
ATOM     22  C   UNL     1       2.576   5.102  18.695  0.00  0.00    +0.000 A 
ENDBRANCH  13  15
ENDBRANCH   6  13
BRANCH   1  23
ATOM     23  C   UNL     1      -0.825  12.152  19.496  0.00  0.00    +0.000 C 
BRANCH  23  25
ATOM     24  C   UNL     1      -2.190  11.254  17.572  0.00  0.00    +0.000 C 
ATOM     25  C   UNL     1      -2.230  11.892  18.951  0.00  0.00    +0.000 C 
ENDBRANCH  23  25
ENDBRANCH   1  23
TORSDOF 5
ENDMDL
MODEL 6
REMARK VINA RESULT:      -7.1      3.683      7.536
REMARK  Name = 
REMARK  6 active torsions:
REMARK  status: ('A' for Active; 'I' for Inactive)
REMARK    1  A    between atoms: C_1  and  C_2
REMARK    2  A    between atoms: C_2  and  C_3
REMARK    3  A    between atoms: C_3  and  C_4
REMARK    4  A    between atoms: C_9  and  N_10
REMARK    5  A    between atoms: N_10  and  C_11
REMARK    6  A    between atoms: C_19  and  N_20
REMARK                            x       y       z     vdW  Elec       q    Type
REMARK                         _______ _______ _______ _____ _____    ______ ____
ROOT
ATOM      1  C   UNL     1       1.120   9.382  20.480  0.00  0.00    +0.000 A 
ATOM      2  N   UNL     1       1.032  10.299  19.466  0.00  0.00    +0.000 NA
ATOM      3  C   UNL     1       1.351   9.941  18.203  0.00  0.00    +0.000 A 
ATOM      4  C   UNL     1       1.807   8.687  17.829  0.00  0.00    +0.000 A 
ATOM      5  C   UNL     1       1.947   7.741  18.855  0.00  0.00    +0.000 A 
ATOM      6  C   UNL     1       2.359   6.381  18.943  0.00  0.00    +0.000 A 
ATOM      7  C   UNL     1       2.166   5.999  20.255  0.00  0.00    +0.000 A 
ATOM      8  O   UNL     1       1.720   7.045  20.996  0.00  0.00    +0.000 OA
ATOM      9  C   UNL     1       1.579   8.107  20.147  0.00  0.00    +0.000 A 
ENDROOT
BRANCH   7  10
ATOM     10  N   UNL     1       2.357   4.845  20.916  0.00  0.00    +0.000 N 
ATOM     11  H   UNL     1       2.967   4.140  20.517  0.00  0.00    +0.000 HD
ATOM     12  H   UNL     1       2.424   4.905  21.928  0.00  0.00    +0.000 HD
ENDBRANCH   7  10
BRANCH   6  13
ATOM     13  N   UNL     1       2.781   5.572  17.936  0.00  0.00    +0.000 N 
ATOM     14  H   UNL     1       2.147   4.835  17.635  0.00  0.00    +0.000 HD
BRANCH  13  15
ATOM     15  C   UNL     1       4.096   5.353  17.466  0.00  0.00    +0.000 A 
ATOM     16  C   UNL     1       4.370   4.180  16.745  0.00  0.00    +0.000 A 
ATOM     17  C   UNL     1       5.644   3.939  16.225  0.00  0.00    +0.000 A 
ATOM     18  C   UNL     1       6.655   4.873  16.423  0.00  0.00    +0.000 A 
ATOM     19  F   UNL     1       7.874   4.619  15.924  0.00  0.00    +0.000 F 
ATOM     20  C   UNL     1       6.401   6.048  17.122  0.00  0.00    +0.000 A 
ATOM     21 CL   UNL     1       7.648   7.212  17.363  0.00  0.00    +0.000 Cl
ATOM     22  C   UNL     1       5.124   6.292  17.634  0.00  0.00    +0.000 A 
ENDBRANCH  13  15
ENDBRANCH   6  13
BRANCH   1  23
ATOM     23  C   UNL     1       0.712   9.820  21.858  0.00  0.00    +0.000 C 
BRANCH  23  25
ATOM     24  C   UNL     1      -1.194  11.006  23.009  0.00  0.00    +0.000 C 
ATOM     25  C   UNL     1      -0.273  10.988  21.800  0.00  0.00    +0.000 C 
ENDBRANCH  23  25
ENDBRANCH   1  23
TORSDOF 5
ENDMDL
MODEL 7
REMARK VINA RESULT:      -7.1      3.918      7.295
REMARK  Name = 
REMARK  6 active torsions:
REMARK  status: ('A' for Active; 'I' for Inactive)
REMARK    1  A    between atoms: C_1  and  C_2
REMARK    2  A    between atoms: C_2  and  C_3
REMARK    3  A    between atoms: C_3  and  C_4
REMARK    4  A    between atoms: C_9  and  N_10
REMARK    5  A    between atoms: N_10  and  C_11
REMARK    6  A    between atoms: C_19  and  N_20
REMARK                            x       y       z     vdW  Elec       q    Type
REMARK                         _______ _______ _______ _____ _____    ______ ____
ROOT
ATOM      1  C   UNL     1       1.603   7.575  20.315  0.00  0.00    +0.000 A 
ATOM      2  N   UNL     1       1.838   8.486  19.319  0.00  0.00    +0.000 NA
ATOM      3  C   UNL     1       2.559   8.128  18.234  0.00  0.00    +0.000 A 
ATOM      4  C   UNL     1       3.133   6.881  18.043  0.00  0.00    +0.000 A 
ATOM      5  C   UNL     1       2.944   5.942  19.067  0.00  0.00    +0.000 A 
ATOM      6  C   UNL     1       3.326   4.591  19.299  0.00  0.00    +0.000 A 
ATOM      7  C   UNL     1       2.719   4.211  20.480  0.00  0.00    +0.000 A 
ATOM      8  O   UNL     1       2.038   5.252  21.023  0.00  0.00    +0.000 OA
ATOM      9  C   UNL     1       2.167   6.308  20.163  0.00  0.00    +0.000 A 
ENDROOT
BRANCH   7  10
ATOM     10  N   UNL     1       2.702   3.064  21.179  0.00  0.00    +0.000 N 
ATOM     11  H   UNL     1       2.422   3.080  22.153  0.00  0.00    +0.000 HD
ATOM     12  H   UNL     1       2.382   2.235  20.686  0.00  0.00    +0.000 HD
ENDBRANCH   7  10
BRANCH   6  13
ATOM     13  N   UNL     1       4.067   3.786  18.495  0.00  0.00    +0.000 N 
ATOM     14  H   UNL     1       4.207   2.824  18.800  0.00  0.00    +0.000 HD
BRANCH  13  15
ATOM     15  C   UNL     1       4.978   4.146  17.476  0.00  0.00    +0.000 A 
ATOM     16  C   UNL     1       6.213   4.705  17.838  0.00  0.00    +0.000 A 
ATOM     17  C   UNL     1       7.162   5.039  16.868  0.00  0.00    +0.000 A 
ATOM     18  C   UNL     1       6.881   4.812  15.525  0.00  0.00    +0.000 A 
ATOM     19  F   UNL     1       7.801   5.148  14.608  0.00  0.00    +0.000 F 
ATOM     20  C   UNL     1       5.669   4.245  15.146  0.00  0.00    +0.000 A 
ATOM     21 CL   UNL     1       5.319   3.956  13.484  0.00  0.00    +0.000 Cl
ATOM     22  C   UNL     1       4.724   3.904  16.117  0.00  0.00    +0.000 A 
ENDBRANCH  13  15
ENDBRANCH   6  13
BRANCH   1  23
ATOM     23  C   UNL     1       0.760   8.011  21.478  0.00  0.00    +0.000 C 
BRANCH  23  25
ATOM     24  C   UNL     1      -0.225  10.091  22.514  0.00  0.00    +0.000 C 
ATOM     25  C   UNL     1       0.118   9.375  21.218  0.00  0.00    +0.000 C 
ENDBRANCH  23  25
ENDBRANCH   1  23
TORSDOF 5
ENDMDL
MODEL 8
REMARK VINA RESULT:      -7.1      4.548      7.906
REMARK  Name = 
REMARK  6 active torsions:
REMARK  status: ('A' for Active; 'I' for Inactive)
REMARK    1  A    between atoms: C_1  and  C_2
REMARK    2  A    between atoms: C_2  and  C_3
REMARK    3  A    between atoms: C_3  and  C_4
REMARK    4  A    between atoms: C_9  and  N_10
REMARK    5  A    between atoms: N_10  and  C_11
REMARK    6  A    between atoms: C_19  and  N_20
REMARK                            x       y       z     vdW  Elec       q    Type
REMARK                         _______ _______ _______ _____ _____    ______ ____
ROOT
ATOM      1  C   UNL     1      -0.654  10.992  20.942  0.00  0.00    +0.000 A 
ATOM      2  N   UNL     1      -0.881  10.793  22.279  0.00  0.00    +0.000 NA
ATOM      3  C   UNL     1      -0.251   9.788  22.927  0.00  0.00    +0.000 A 
ATOM      4  C   UNL     1       0.615   8.885  22.332  0.00  0.00    +0.000 A 
ATOM      5  C   UNL     1       0.832   9.040  20.955  0.00  0.00    +0.000 A 
ATOM      6  C   UNL     1       1.609   8.381  19.962  0.00  0.00    +0.000 A 
ATOM      7  C   UNL     1       1.453   9.107  18.798  0.00  0.00    +0.000 A 
ATOM      8  O   UNL     1       0.587  10.134  18.990  0.00  0.00    +0.000 OA
ATOM      9  C   UNL     1       0.210  10.102  20.304  0.00  0.00    +0.000 A 
ENDROOT
BRANCH   7  10
ATOM     10  N   UNL     1       1.952   8.977  17.558  0.00  0.00    +0.000 N 
ATOM     11  H   UNL     1       1.990   8.058  17.132  0.00  0.00    +0.000 HD
ATOM     12  H   UNL     1       1.725   9.714  16.896  0.00  0.00    +0.000 HD
ENDBRANCH   7  10
BRANCH   6  13
ATOM     13  N   UNL     1       2.420   7.302  20.119  0.00  0.00    +0.000 N 
ATOM     14  H   UNL     1       3.418   7.479  20.210  0.00  0.00    +0.000 HD
BRANCH  13  15
ATOM     15  C   UNL     1       2.156   5.945  19.827  0.00  0.00    +0.000 A 
ATOM     16  C   UNL     1       2.208   5.518  18.491  0.00  0.00    +0.000 A 
ATOM     17  C   UNL     1       1.996   4.178  18.157  0.00  0.00    +0.000 A 
ATOM     18  C   UNL     1       1.731   3.252  19.161  0.00  0.00    +0.000 A 
ATOM     19  F   UNL     1       1.520   1.973  18.820  0.00  0.00    +0.000 F 
ATOM     20  C   UNL     1       1.690   3.652  20.493  0.00  0.00    +0.000 A 
ATOM     21 CL   UNL     1       1.369   2.510  21.741  0.00  0.00    +0.000 Cl
ATOM     22  C   UNL     1       1.911   4.991  20.826  0.00  0.00    +0.000 A 
ENDBRANCH  13  15
ENDBRANCH   6  13
BRANCH   1  23
ATOM     23  C   UNL     1      -1.345  12.149  20.280  0.00  0.00    +0.000 C 
BRANCH  23  25
ATOM     24  C   UNL     1      -0.220  13.627  18.571  0.00  0.00    +0.000 C 
ATOM     25  C   UNL     1      -0.382  13.315  20.050  0.00  0.00    +0.000 C 
ENDBRANCH  23  25
ENDBRANCH   1  23
TORSDOF 5
ENDMDL
MODEL 9
REMARK VINA RESULT:      -7.1      4.574      8.117
REMARK  Name = 
REMARK  6 active torsions:
REMARK  status: ('A' for Active; 'I' for Inactive)
REMARK    1  A    between atoms: C_1  and  C_2
REMARK    2  A    between atoms: C_2  and  C_3
REMARK    3  A    between atoms: C_3  and  C_4
REMARK    4  A    between atoms: C_9  and  N_10
REMARK    5  A    between atoms: N_10  and  C_11
REMARK    6  A    between atoms: C_19  and  N_20
REMARK                            x       y       z     vdW  Elec       q    Type
REMARK                         _______ _______ _______ _____ _____    ______ ____
ROOT
ATOM      1  C   UNL     1      -0.623  11.152  21.046  0.00  0.00    +0.000 A 
ATOM      2  N   UNL     1      -0.885  10.899  22.367  0.00  0.00    +0.000 NA
ATOM      3  C   UNL     1      -0.298   9.849  22.982  0.00  0.00    +0.000 A 
ATOM      4  C   UNL     1       0.556   8.948  22.366  0.00  0.00    +0.000 A 
ATOM      5  C   UNL     1       0.808   9.159  21.002  0.00  0.00    +0.000 A 
ATOM      6  C   UNL     1       1.589   8.523  19.997  0.00  0.00    +0.000 A 
ATOM      7  C   UNL     1       1.479   9.305  18.864  0.00  0.00    +0.000 A 
ATOM      8  O   UNL     1       0.637  10.347  19.084  0.00  0.00    +0.000 OA
ATOM      9  C   UNL     1       0.230  10.266  20.387  0.00  0.00    +0.000 A 
ENDROOT
BRANCH   7  10
ATOM     10  N   UNL     1       2.001   9.217  17.630  0.00  0.00    +0.000 N 
ATOM     11  H   UNL     1       2.761   9.833  17.367  0.00  0.00    +0.000 HD
ATOM     12  H   UNL     1       2.091   8.283  17.239  0.00  0.00    +0.000 HD
ENDBRANCH   7  10
BRANCH   6  13
ATOM     13  N   UNL     1       2.365   7.415  20.122  0.00  0.00    +0.000 N 
ATOM     14  H   UNL     1       3.367   7.559  20.231  0.00  0.00    +0.000 HD
BRANCH  13  15
ATOM     15  C   UNL     1       2.066   6.079  19.773  0.00  0.00    +0.000 A 
ATOM     16  C   UNL     1       2.092   5.710  18.419  0.00  0.00    +0.000 A 
ATOM     17  C   UNL     1       1.843   4.391  18.030  0.00  0.00    +0.000 A 
ATOM     18  C   UNL     1       1.569   3.429  18.996  0.00  0.00    +0.000 A 
ATOM     19  F   UNL     1       1.324   2.171  18.601  0.00  0.00    +0.000 F 
ATOM     20  C   UNL     1       1.554   3.770  20.344  0.00  0.00    +0.000 A 
ATOM     21 CL   UNL     1       1.222   2.581  21.545  0.00  0.00    +0.000 Cl
ATOM     22  C   UNL     1       1.811   5.087  20.733  0.00  0.00    +0.000 A 
ENDBRANCH  13  15
ENDBRANCH   6  13
BRANCH   1  23
ATOM     23  C   UNL     1      -1.267  12.357  20.423  0.00  0.00    +0.000 C 
BRANCH  23  25
ATOM     24  C   UNL     1      -3.749  12.602  20.037  0.00  0.00    +0.000 C 
ATOM     25  C   UNL     1      -2.459  11.960  19.551  0.00  0.00    +0.000 C 
ENDBRANCH  23  25
ENDBRANCH   1  23
TORSDOF 5
ENDMDL
