MODEL 1
REMARK VINA RESULT:      -7.8      0.000      0.000
REMARK  Name = 
REMARK  10 active torsions:
REMARK  status: ('A' for Active; 'I' for Inactive)
REMARK    1  A    between atoms: C_1  and  O_2
REMARK    2  A    between atoms: O_2  and  C_3
REMARK    3  A    between atoms: C_6  and  C_7
REMARK    4  A    between atoms: N_11  and  C_12
REMARK    5  A    between atoms: C_12  and  C_13
REMARK    6  A    between atoms: C_12  and  C_14
REMARK    7  A    between atoms: C_15  and  C_16
REMARK    8  A    between atoms: N_23  and  C_24
REMARK    9  A    between atoms: C_32  and  O_33
REMARK   10  A    between atoms: O_33  and  C_34
REMARK                            x       y       z     vdW  Elec       q    Type
REMARK                         _______ _______ _______ _____ _____    ______ ____
ROOT
ATOM      1  C   UNL     1       1.629   8.077  20.159  0.00  0.00    +0.000 A 
ATOM      2  C   UNL     1       1.449   8.238  21.542  0.00  0.00    +0.000 A 
ATOM      3  C   UNL     1       0.606   9.327  21.749  0.00  0.00    +0.000 A 
ATOM      4  C   UNL     1       0.338   9.888  20.534  0.00  0.00    +0.000 A 
ATOM      5  N   UNL     1       0.920   9.147  19.537  0.00  0.00    +0.000 N 
ATOM      6  C   UNL     1      -0.512  11.113  20.653  0.00  0.00    +0.000 C 
ATOM      7  N   UNL     1      -0.784  11.071  22.123  0.00  0.00    +0.000 N 
ATOM      8  C   UNL     1      -0.065  10.063  22.787  0.00  0.00    +0.000 C 
ATOM      9  O   UNL     1      -0.022   9.838  23.985  0.00  0.00    +0.000 OA
ENDROOT
BRANCH   6  10
ATOM     10  C   UNL     1       0.206  12.380  20.233  0.00  0.00    +0.000 A 
ATOM     11  C   UNL     1      -0.456  13.352  19.464  0.00  0.00    +0.000 A 
ATOM     12  C   UNL     1       0.203  14.513  19.058  0.00  0.00    +0.000 A 
ATOM     13  C   UNL     1       1.522  14.730  19.441  0.00  0.00    +0.000 A 
ATOM     14 CL   UNL     1       2.328  16.170  18.956  0.00  0.00    +0.000 Cl
ATOM     15  C   UNL     1       2.195  13.792  20.219  0.00  0.00    +0.000 A 
ATOM     16  C   UNL     1       1.545  12.617  20.600  0.00  0.00    +0.000 A 
ENDBRANCH   6  10
BRANCH   1  20
ATOM     17  C   UNL     1       3.809   5.035  18.141  0.00  0.00    +0.000 A 
ATOM     18  N   UNL     1       4.083   6.299  17.848  0.00  0.00    +0.000 NA
ATOM     19  C   UNL     1       3.382   7.225  18.541  0.00  0.00    +0.000 A 
ATOM     20  C   UNL     1       2.395   6.984  19.478  0.00  0.00    +0.000 A 
ATOM     21  C   UNL     1       2.239   5.613  19.715  0.00  0.00    +0.000 A 
ATOM     22  N   UNL     1       2.921   4.640  19.056  0.00  0.00    +0.000 NA
BRANCH  17  24
ATOM     23  C   UNL     1       4.993   4.622  16.178  0.00  0.00    +0.000 C 
ATOM     24  O   UNL     1       4.523   4.110  17.416  0.00  0.00    +0.000 OA
ENDBRANCH  17  24
BRANCH  21  25
ATOM     25  O   UNL     1       1.341   5.192  20.677  0.00  0.00    +0.000 OA
ATOM     26  C   UNL     1       1.141   3.779  20.686  0.00  0.00    +0.000 C 
ENDBRANCH  21  25
ENDBRANCH   1  20
BRANCH   7  27
ATOM     27  C   UNL     1      -1.644  12.027  22.853  0.00  0.00    +0.000 C 
ATOM     28  C   UNL     1      -2.985  12.316  22.170  0.00  0.00    +0.000 C 
ATOM     29  C   UNL     1      -3.775  13.368  22.939  0.00  0.00    +0.000 C 
ATOM     30  O   UNL     1      -3.000  14.552  23.109  0.00  0.00    +0.000 OA
ATOM     31  C   UNL     1      -1.831  14.317  23.892  0.00  0.00    +0.000 C 
ATOM     32  C   UNL     1      -0.908  13.332  23.189  0.00  0.00    +0.000 C 
ENDBRANCH   7  27
BRANCH   5  33
ATOM     33  C   UNL     1       0.805   9.399  18.095  0.00  0.00    +0.000 C 
ATOM     34  C   UNL     1      -0.587   9.800  17.590  0.00  0.00    +0.000 C 
ATOM     35  C   UNL     1       1.840  10.414  17.601  0.00  0.00    +0.000 C 
ENDBRANCH   5  33
TORSDOF 6
ENDMDL
MODEL 2
REMARK VINA RESULT:      -7.0      0.540      1.235
REMARK  Name = 
REMARK  10 active torsions:
REMARK  status: ('A' for Active; 'I' for Inactive)
REMARK    1  A    between atoms: C_1  and  O_2
REMARK    2  A    between atoms: O_2  and  C_3
REMARK    3  A    between atoms: C_6  and  C_7
REMARK    4  A    between atoms: N_11  and  C_12
REMARK    5  A    between atoms: C_12  and  C_13
REMARK    6  A    between atoms: C_12  and  C_14
REMARK    7  A    between atoms: C_15  and  C_16
REMARK    8  A    between atoms: N_23  and  C_24
REMARK    9  A    between atoms: C_32  and  O_33
REMARK   10  A    between atoms: O_33  and  C_34
REMARK                            x       y       z     vdW  Elec       q    Type
REMARK                         _______ _______ _______ _____ _____    ______ ____
ROOT
ATOM      1  C   UNL     1       1.671   8.090  20.186  0.00  0.00    +0.000 A 
ATOM      2  C   UNL     1       1.404   8.326  21.545  0.00  0.00    +0.000 A 
ATOM      3  C   UNL     1       0.575   9.442  21.640  0.00  0.00    +0.000 A 
ATOM      4  C   UNL     1       0.402   9.945  20.383  0.00  0.00    +0.000 A 
ATOM      5  N   UNL     1       1.030   9.142  19.466  0.00  0.00    +0.000 N 
ATOM      6  C   UNL     1      -0.424  11.191  20.384  0.00  0.00    +0.000 C 
ATOM      7  N   UNL     1      -0.794  11.231  21.833  0.00  0.00    +0.000 N 
ATOM      8  C   UNL     1      -0.144  10.244  22.593  0.00  0.00    +0.000 C 
ATOM      9  O   UNL     1      -0.185  10.079  23.801  0.00  0.00    +0.000 OA
ENDROOT
BRANCH   6  10
ATOM     10  C   UNL     1       0.351  12.420  19.951  0.00  0.00    +0.000 A 
ATOM     11  C   UNL     1       1.664  12.629  20.404  0.00  0.00    +0.000 A 
ATOM     12  C   UNL     1       2.378  13.767  20.025  0.00  0.00    +0.000 A 
ATOM     13  C   UNL     1       1.799  14.694  19.165  0.00  0.00    +0.000 A 
ATOM     14 CL   UNL     1       2.686  16.085  18.683  0.00  0.00    +0.000 Cl
ATOM     15  C   UNL     1       0.505  14.499  18.686  0.00  0.00    +0.000 A 
ATOM     16  C   UNL     1      -0.219  13.377  19.089  0.00  0.00    +0.000 A 
ENDBRANCH   6  10
BRANCH   1  20
ATOM     17  C   UNL     1       3.905   4.904  18.474  0.00  0.00    +0.000 A 
ATOM     18  N   UNL     1       4.234   6.146  18.145  0.00  0.00    +0.000 NA
ATOM     19  C   UNL     1       3.512   7.120  18.742  0.00  0.00    +0.000 A 
ATOM     20  C   UNL     1       2.453   6.948  19.614  0.00  0.00    +0.000 A 
ATOM     21  C   UNL     1       2.242   5.594  19.901  0.00  0.00    +0.000 A 
ATOM     22  N   UNL     1       2.943   4.575  19.338  0.00  0.00    +0.000 NA
BRANCH  17  24
ATOM     23  C   UNL     1       4.993   4.272  16.513  0.00  0.00    +0.000 C 
ATOM     24  O   UNL     1       4.644   3.929  17.846  0.00  0.00    +0.000 OA
ENDBRANCH  17  24
BRANCH  21  25
ATOM     25  O   UNL     1       1.265   5.241  20.812  0.00  0.00    +0.000 OA
ATOM     26  C   UNL     1       1.159   3.831  21.011  0.00  0.00    +0.000 C 
ENDBRANCH  21  25
ENDBRANCH   1  20
BRANCH   7  27
ATOM     27  C   UNL     1      -1.676  12.241  22.455  0.00  0.00    +0.000 C 
ATOM     28  C   UNL     1      -0.933  13.389  23.146  0.00  0.00    +0.000 C 
ATOM     29  C   UNL     1      -1.907  14.340  23.829  0.00  0.00    +0.000 C 
ATOM     30  O   UNL     1      -2.747  13.629  24.736  0.00  0.00    +0.000 OA
ATOM     31  C   UNL     1      -3.567  12.672  24.066  0.00  0.00    +0.000 C 
ATOM     32  C   UNL     1      -2.707  11.608  23.400  0.00  0.00    +0.000 C 
ENDBRANCH   7  27
BRANCH   5  33
ATOM     33  C   UNL     1       1.016   9.321  18.009  0.00  0.00    +0.000 C 
ATOM     34  C   UNL     1      -0.338   9.690  17.388  0.00  0.00    +0.000 C 
ATOM     35  C   UNL     1       2.083  10.316  17.538  0.00  0.00    +0.000 C 
ENDBRANCH   5  33
TORSDOF 6
ENDMDL
MODEL 3
REMARK VINA RESULT:      -6.0      1.078      1.718
REMARK  Name = 
REMARK  10 active torsions:
REMARK  status: ('A' for Active; 'I' for Inactive)
REMARK    1  A    between atoms: C_1  and  O_2
REMARK    2  A    between atoms: O_2  and  C_3
REMARK    3  A    between atoms: C_6  and  C_7
REMARK    4  A    between atoms: N_11  and  C_12
REMARK    5  A    between atoms: C_12  and  C_13
REMARK    6  A    between atoms: C_12  and  C_14
REMARK    7  A    between atoms: C_15  and  C_16
REMARK    8  A    between atoms: N_23  and  C_24
REMARK    9  A    between atoms: C_32  and  O_33
REMARK   10  A    between atoms: O_33  and  C_34
REMARK                            x       y       z     vdW  Elec       q    Type
REMARK                         _______ _______ _______ _____ _____    ______ ____
ROOT
ATOM      1  C   UNL     1       1.498   7.807  20.297  0.00  0.00    +0.000 A 
ATOM      2  C   UNL     1       1.295   8.084  21.659  0.00  0.00    +0.000 A 
ATOM      3  C   UNL     1       0.554   9.259  21.759  0.00  0.00    +0.000 A 
ATOM      4  C   UNL     1       0.376   9.753  20.499  0.00  0.00    +0.000 A 
ATOM      5  N   UNL     1       0.912   8.890  19.578  0.00  0.00    +0.000 N 
ATOM      6  C   UNL     1      -0.356  11.057  20.503  0.00  0.00    +0.000 C 
ATOM      7  N   UNL     1      -0.673  11.148  21.962  0.00  0.00    +0.000 N 
ATOM      8  C   UNL     1      -0.073  10.128  22.720  0.00  0.00    +0.000 C 
ATOM      9  O   UNL     1      -0.085   9.988  23.931  0.00  0.00    +0.000 OA
ENDROOT
BRANCH   6  10
ATOM     10  C   UNL     1       0.491  12.217  20.021  0.00  0.00    +0.000 A 
ATOM     11  C   UNL     1      -0.013  13.119  19.069  0.00  0.00    +0.000 A 
ATOM     12  C   UNL     1       0.768  14.180  18.607  0.00  0.00    +0.000 A 
ATOM     13  C   UNL     1       2.049  14.369  19.113  0.00  0.00    +0.000 A 
ATOM     14 CL   UNL     1       3.003  15.688  18.556  0.00  0.00    +0.000 Cl
ATOM     15  C   UNL     1       2.565  13.501  20.071  0.00  0.00    +0.000 A 
ATOM     16  C   UNL     1       1.795  12.423  20.511  0.00  0.00    +0.000 A 
ENDBRANCH   6  10
BRANCH   1  20
ATOM     17  C   UNL     1       3.406   4.334  18.755  0.00  0.00    +0.000 A 
ATOM     18  N   UNL     1       2.437   4.171  19.646  0.00  0.00    +0.000 NA
ATOM     19  C   UNL     1       1.844   5.306  20.079  0.00  0.00    +0.000 A 
ATOM     20  C   UNL     1       2.175   6.600  19.722  0.00  0.00    +0.000 A 
ATOM     21  C   UNL     1       3.183   6.620  18.750  0.00  0.00    +0.000 A 
ATOM     22  N   UNL     1       3.807   5.513  18.272  0.00  0.00    +0.000 NA
BRANCH  17  24
ATOM     23  C   UNL     1       3.066   2.160  17.990  0.00  0.00    +0.000 C 
ATOM     24  O   UNL     1       4.003   3.168  18.337  0.00  0.00    +0.000 OA
ENDBRANCH  17  24
BRANCH  21  25
ATOM     25  O   UNL     1       3.589   7.832  18.224  0.00  0.00    +0.000 OA
ATOM     26  C   UNL     1       4.465   7.698  17.105  0.00  0.00    +0.000 C 
ENDBRANCH  21  25
ENDBRANCH   1  20
BRANCH   7  27
ATOM     27  C   UNL     1      -1.458  12.231  22.592  0.00  0.00    +0.000 C 
ATOM     28  C   UNL     1      -2.733  12.610  21.831  0.00  0.00    +0.000 C 
ATOM     29  C   UNL     1      -3.440  13.783  22.498  0.00  0.00    +0.000 C 
ATOM     30  O   UNL     1      -2.553  14.891  22.634  0.00  0.00    +0.000 OA
ATOM     31  C   UNL     1      -1.448  14.589  23.485  0.00  0.00    +0.000 C 
ATOM     32  C   UNL     1      -0.604  13.472  22.885  0.00  0.00    +0.000 C 
ENDBRANCH   7  27
BRANCH   5  33
ATOM     33  C   UNL     1       0.863   9.045  18.119  0.00  0.00    +0.000 C 
ATOM     34  C   UNL     1      -0.519   9.338  17.519  0.00  0.00    +0.000 C 
ATOM     35  C   UNL     1       1.870  10.084  17.613  0.00  0.00    +0.000 C 
ENDBRANCH   5  33
TORSDOF 6
ENDMDL
MODEL 4
REMARK VINA RESULT:      -6.0      2.720      8.695
REMARK  Name = 
REMARK  10 active torsions:
REMARK  status: ('A' for Active; 'I' for Inactive)
REMARK    1  A    between atoms: C_1  and  O_2
REMARK    2  A    between atoms: O_2  and  C_3
REMARK    3  A    between atoms: C_6  and  C_7
REMARK    4  A    between atoms: N_11  and  C_12
REMARK    5  A    between atoms: C_12  and  C_13
REMARK    6  A    between atoms: C_12  and  C_14
REMARK    7  A    between atoms: C_15  and  C_16
REMARK    8  A    between atoms: N_23  and  C_24
REMARK    9  A    between atoms: C_32  and  O_33
REMARK   10  A    between atoms: O_33  and  C_34
REMARK                            x       y       z     vdW  Elec       q    Type
REMARK                         _______ _______ _______ _____ _____    ______ ____
ROOT
ATOM      1  C   UNL     1      -2.645  13.436  21.237  0.00  0.00    +0.000 A 
ATOM      2  C   UNL     1      -2.783  12.400  20.300  0.00  0.00    +0.000 A 
ATOM      3  C   UNL     1      -1.548  11.771  20.159  0.00  0.00    +0.000 A 
ATOM      4  C   UNL     1      -0.641  12.452  20.918  0.00  0.00    +0.000 A 
ATOM      5  N   UNL     1      -1.268  13.457  21.609  0.00  0.00    +0.000 N 
ATOM      6  C   UNL     1       0.739  11.893  20.783  0.00  0.00    +0.000 C 
ATOM      7  N   UNL     1       0.433  10.706  19.925  0.00  0.00    +0.000 N 
ATOM      8  C   UNL     1      -0.903  10.672  19.491  0.00  0.00    +0.000 C 
ATOM      9  O   UNL     1      -1.423   9.878  18.725  0.00  0.00    +0.000 OA
ENDROOT
BRANCH   6  10
ATOM     10  C   UNL     1       1.709  12.851  20.120  0.00  0.00    +0.000 A 
ATOM     11  C   UNL     1       1.646  13.080  18.735  0.00  0.00    +0.000 A 
ATOM     12  C   UNL     1       2.547  13.946  18.114  0.00  0.00    +0.000 A 
ATOM     13  C   UNL     1       3.500  14.617  18.872  0.00  0.00    +0.000 A 
ATOM     14 CL   UNL     1       4.596  15.698  18.108  0.00  0.00    +0.000 Cl
ATOM     15  C   UNL     1       3.570  14.421  20.249  0.00  0.00    +0.000 A 
ATOM     16  C   UNL     1       2.689  13.532  20.867  0.00  0.00    +0.000 A 
ENDBRANCH   6  10
BRANCH   1  20
ATOM     17  C   UNL     1      -5.673  16.038  22.700  0.00  0.00    +0.000 A 
ATOM     18  N   UNL     1      -4.824  16.512  21.797  0.00  0.00    +0.000 NA
ATOM     19  C   UNL     1      -3.902  15.633  21.345  0.00  0.00    +0.000 A 
ATOM     20  C   UNL     1      -3.735  14.324  21.756  0.00  0.00    +0.000 A 
ATOM     21  C   UNL     1      -4.720  13.949  22.678  0.00  0.00    +0.000 A 
ATOM     22  N   UNL     1      -5.675  14.785  23.160  0.00  0.00    +0.000 NA
BRANCH  17  24
ATOM     23  C   UNL     1      -7.915  16.671  22.718  0.00  0.00    +0.000 C 
ATOM     24  O   UNL     1      -6.595  16.952  23.155  0.00  0.00    +0.000 OA
ENDBRANCH  17  24
BRANCH  21  25
ATOM     25  O   UNL     1      -4.747  12.648  23.144  0.00  0.00    +0.000 OA
ATOM     26  C   UNL     1      -4.366  12.529  24.514  0.00  0.00    +0.000 C 
ENDBRANCH  21  25
ENDBRANCH   1  20
BRANCH   7  27
ATOM     27  C   UNL     1       1.423   9.700  19.486  0.00  0.00    +0.000 C 
ATOM     28  C   UNL     1       1.446   9.458  17.973  0.00  0.00    +0.000 C 
ATOM     29  C   UNL     1       2.431   8.353  17.610  0.00  0.00    +0.000 C 
ATOM     30  O   UNL     1       2.135   7.162  18.334  0.00  0.00    +0.000 OA
ATOM     31  C   UNL     1       2.280   7.342  19.742  0.00  0.00    +0.000 C 
ATOM     32  C   UNL     1       1.285   8.376  20.251  0.00  0.00    +0.000 C 
ENDBRANCH   7  27
BRANCH   5  33
ATOM     33  C   UNL     1      -0.637  14.364  22.575  0.00  0.00    +0.000 C 
ATOM     34  C   UNL     1      -0.492  15.826  22.131  0.00  0.00    +0.000 C 
ATOM     35  C   UNL     1      -1.317  14.312  23.947  0.00  0.00    +0.000 C 
ENDBRANCH   5  33
TORSDOF 6
ENDMDL
MODEL 5
REMARK VINA RESULT:      -5.9      3.157      8.803
REMARK  Name = 
REMARK  10 active torsions:
REMARK  status: ('A' for Active; 'I' for Inactive)
REMARK    1  A    between atoms: C_1  and  O_2
REMARK    2  A    between atoms: O_2  and  C_3
REMARK    3  A    between atoms: C_6  and  C_7
REMARK    4  A    between atoms: N_11  and  C_12
REMARK    5  A    between atoms: C_12  and  C_13
REMARK    6  A    between atoms: C_12  and  C_14
REMARK    7  A    between atoms: C_15  and  C_16
REMARK    8  A    between atoms: N_23  and  C_24
REMARK    9  A    between atoms: C_32  and  O_33
REMARK   10  A    between atoms: O_33  and  C_34
REMARK                            x       y       z     vdW  Elec       q    Type
REMARK                         _______ _______ _______ _____ _____    ______ ____
ROOT
ATOM      1  C   UNL     1      -3.476  13.366  20.559  0.00  0.00    +0.000 A 
ATOM      2  C   UNL     1      -3.383  12.343  19.602  0.00  0.00    +0.000 A 
ATOM      3  C   UNL     1      -2.102  11.800  19.666  0.00  0.00    +0.000 A 
ATOM      4  C   UNL     1      -1.384  12.522  20.574  0.00  0.00    +0.000 A 
ATOM      5  N   UNL     1      -2.185  13.469  21.159  0.00  0.00    +0.000 N 
ATOM      6  C   UNL     1       0.034  12.058  20.669  0.00  0.00    +0.000 C 
ATOM      7  N   UNL     1      -0.042  10.872  19.760  0.00  0.00    +0.000 N 
ATOM      8  C   UNL     1      -1.281  10.759  19.106  0.00  0.00    +0.000 C 
ATOM      9  O   UNL     1      -1.609   9.949  18.256  0.00  0.00    +0.000 OA
ENDROOT
BRANCH   6  10
ATOM     10  C   UNL     1       1.034  13.091  20.189  0.00  0.00    +0.000 A 
ATOM     11  C   UNL     1       2.159  13.408  20.968  0.00  0.00    +0.000 A 
ATOM     12  C   UNL     1       3.075  14.371  20.542  0.00  0.00    +0.000 A 
ATOM     13  C   UNL     1       2.892  15.008  19.319  0.00  0.00    +0.000 A 
ATOM     14 CL   UNL     1       4.030  16.181  18.787  0.00  0.00    +0.000 Cl
ATOM     15  C   UNL     1       1.795  14.698  18.520  0.00  0.00    +0.000 A 
ATOM     16  C   UNL     1       0.864  13.756  18.960  0.00  0.00    +0.000 A 
ENDBRANCH   6  10
BRANCH   1  20
ATOM     17  C   UNL     1      -6.875  15.729  21.529  0.00  0.00    +0.000 A 
ATOM     18  N   UNL     1      -5.846  16.326  20.941  0.00  0.00    +0.000 NA
ATOM     19  C   UNL     1      -4.805  15.522  20.627  0.00  0.00    +0.000 A 
ATOM     20  C   UNL     1      -4.695  14.170  20.895  0.00  0.00    +0.000 A 
ATOM     21  C   UNL     1      -5.864  13.667  21.479  0.00  0.00    +0.000 A 
ATOM     22  N   UNL     1      -6.942  14.425  21.807  0.00  0.00    +0.000 NA
BRANCH  17  24
ATOM     23  C   UNL     1      -7.625  17.934  21.597  0.00  0.00    +0.000 C 
ATOM     24  O   UNL     1      -7.917  16.568  21.850  0.00  0.00    +0.000 OA
ENDBRANCH  17  24
BRANCH  21  25
ATOM     25  O   UNL     1      -5.956  12.315  21.750  0.00  0.00    +0.000 OA
ATOM     26  C   UNL     1      -6.890  11.632  20.914  0.00  0.00    +0.000 C 
ENDBRANCH  21  25
ENDBRANCH   1  20
BRANCH   7  27
ATOM     27  C   UNL     1       1.074   9.943  19.485  0.00  0.00    +0.000 C 
ATOM     28  C   UNL     1       1.283   9.632  17.999  0.00  0.00    +0.000 C 
ATOM     29  C   UNL     1       2.395   8.608  17.805  0.00  0.00    +0.000 C 
ATOM     30  O   UNL     1       2.127   7.430  18.561  0.00  0.00    +0.000 OA
ATOM     31  C   UNL     1       2.100   7.689  19.964  0.00  0.00    +0.000 C 
ATOM     32  C   UNL     1       0.969   8.649  20.306  0.00  0.00    +0.000 C 
ENDBRANCH   7  27
BRANCH   5  33
ATOM     33  C   UNL     1      -1.789  14.395  22.226  0.00  0.00    +0.000 C 
ATOM     34  C   UNL     1      -1.098  13.766  23.443  0.00  0.00    +0.000 C 
ATOM     35  C   UNL     1      -0.938  15.556  21.699  0.00  0.00    +0.000 C 
ENDBRANCH   5  33
TORSDOF 6
ENDMDL
MODEL 6
REMARK VINA RESULT:      -5.9      7.618     10.530
REMARK  Name = 
REMARK  10 active torsions:
REMARK  status: ('A' for Active; 'I' for Inactive)
REMARK    1  A    between atoms: C_1  and  O_2
REMARK    2  A    between atoms: O_2  and  C_3
REMARK    3  A    between atoms: C_6  and  C_7
REMARK    4  A    between atoms: N_11  and  C_12
REMARK    5  A    between atoms: C_12  and  C_13
REMARK    6  A    between atoms: C_12  and  C_14
REMARK    7  A    between atoms: C_15  and  C_16
REMARK    8  A    between atoms: N_23  and  C_24
REMARK    9  A    between atoms: C_32  and  O_33
REMARK   10  A    between atoms: O_33  and  C_34
REMARK                            x       y       z     vdW  Elec       q    Type
REMARK                         _______ _______ _______ _____ _____    ______ ____
ROOT
ATOM      1  C   UNL     1       7.582  13.089  23.393  0.00  0.00    +0.000 A 
ATOM      2  C   UNL     1       8.684  12.713  22.608  0.00  0.00    +0.000 A 
ATOM      3  C   UNL     1       8.919  13.721  21.675  0.00  0.00    +0.000 A 
ATOM      4  C   UNL     1       7.937  14.659  21.812  0.00  0.00    +0.000 A 
ATOM      5  N   UNL     1       7.117  14.328  22.860  0.00  0.00    +0.000 N 
ATOM      6  C   UNL     1       8.060  15.757  20.805  0.00  0.00    +0.000 C 
ATOM      7  N   UNL     1       9.349  15.348  20.165  0.00  0.00    +0.000 N 
ATOM      8  C   UNL     1       9.821  14.106  20.622  0.00  0.00    +0.000 C 
ATOM      9  O   UNL     1      10.794  13.483  20.232  0.00  0.00    +0.000 OA
ENDROOT
BRANCH   6  10
ATOM     10  C   UNL     1       6.911  15.794  19.819  0.00  0.00    +0.000 A 
ATOM     11  C   UNL     1       6.058  16.910  19.761  0.00  0.00    +0.000 A 
ATOM     12  C   UNL     1       4.986  16.944  18.868  0.00  0.00    +0.000 A 
ATOM     13  C   UNL     1       4.771  15.878  18.002  0.00  0.00    +0.000 A 
ATOM     14 CL   UNL     1       3.461  15.929  16.890  0.00  0.00    +0.000 Cl
ATOM     15  C   UNL     1       5.613  14.769  18.027  0.00  0.00    +0.000 A 
ATOM     16  C   UNL     1       6.667  14.721  18.940  0.00  0.00    +0.000 A 
ENDBRANCH   6  10
BRANCH   1  20
ATOM     17  C   UNL     1       5.912  10.984  26.688  0.00  0.00    +0.000 A 
ATOM     18  N   UNL     1       5.367  10.807  25.491  0.00  0.00    +0.000 NA
ATOM     19  C   UNL     1       5.957  11.476  24.476  0.00  0.00    +0.000 A 
ATOM     20  C   UNL     1       7.027  12.345  24.569  0.00  0.00    +0.000 A 
ATOM     21  C   UNL     1       7.523  12.405  25.877  0.00  0.00    +0.000 A 
ATOM     22  N   UNL     1       6.978  11.749  26.934  0.00  0.00    +0.000 NA
BRANCH  17  24
ATOM     23  C   UNL     1       3.988   9.854  27.359  0.00  0.00    +0.000 C 
ATOM     24  O   UNL     1       5.289  10.303  27.708  0.00  0.00    +0.000 OA
ENDBRANCH  17  24
BRANCH  21  25
ATOM     25  O   UNL     1       8.641  13.175  26.140  0.00  0.00    +0.000 OA
ATOM     26  C   UNL     1       8.492  14.018  27.282  0.00  0.00    +0.000 C 
ENDBRANCH  21  25
ENDBRANCH   1  20
BRANCH   7  27
ATOM     27  C   UNL     1      10.040  16.101  19.096  0.00  0.00    +0.000 C 
ATOM     28  C   UNL     1      10.126  15.360  17.758  0.00  0.00    +0.000 C 
ATOM     29  C   UNL     1      10.921  16.164  16.737  0.00  0.00    +0.000 C 
ATOM     30  O   UNL     1      12.211  16.487  17.248  0.00  0.00    +0.000 OA
ATOM     31  C   UNL     1      12.135  17.322  18.403  0.00  0.00    +0.000 C 
ATOM     32  C   UNL     1      11.424  16.598  19.538  0.00  0.00    +0.000 C 
ENDBRANCH   7  27
BRANCH   5  33
ATOM     33  C   UNL     1       5.986  15.122  23.356  0.00  0.00    +0.000 C 
ATOM     34  C   UNL     1       6.227  16.633  23.482  0.00  0.00    +0.000 C 
ATOM     35  C   UNL     1       4.707  14.875  22.548  0.00  0.00    +0.000 C 
ENDBRANCH   5  33
TORSDOF 6
ENDMDL
MODEL 7
REMARK VINA RESULT:      -5.7      7.377     10.192
REMARK  Name = 
REMARK  10 active torsions:
REMARK  status: ('A' for Active; 'I' for Inactive)
REMARK    1  A    between atoms: C_1  and  O_2
REMARK    2  A    between atoms: O_2  and  C_3
REMARK    3  A    between atoms: C_6  and  C_7
REMARK    4  A    between atoms: N_11  and  C_12
REMARK    5  A    between atoms: C_12  and  C_13
REMARK    6  A    between atoms: C_12  and  C_14
REMARK    7  A    between atoms: C_15  and  C_16
REMARK    8  A    between atoms: N_23  and  C_24
REMARK    9  A    between atoms: C_32  and  O_33
REMARK   10  A    between atoms: O_33  and  C_34
REMARK                            x       y       z     vdW  Elec       q    Type
REMARK                         _______ _______ _______ _____ _____    ______ ____
ROOT
ATOM      1  C   UNL     1       6.927  12.129  24.278  0.00  0.00    +0.000 A 
ATOM      2  C   UNL     1       7.913  11.569  23.449  0.00  0.00    +0.000 A 
ATOM      3  C   UNL     1       8.494  12.595  22.707  0.00  0.00    +0.000 A 
ATOM      4  C   UNL     1       7.828  13.751  22.995  0.00  0.00    +0.000 A 
ATOM      5  N   UNL     1       6.885  13.520  23.962  0.00  0.00    +0.000 N 
ATOM      6  C   UNL     1       8.335  14.908  22.194  0.00  0.00    +0.000 C 
ATOM      7  N   UNL     1       9.480  14.237  21.505  0.00  0.00    +0.000 N 
ATOM      8  C   UNL     1       9.532  12.853  21.745  0.00  0.00    +0.000 C 
ATOM      9  O   UNL     1      10.298  12.036  21.261  0.00  0.00    +0.000 OA
ENDROOT
BRANCH   6  10
ATOM     10  C   UNL     1       7.311  15.452  21.218  0.00  0.00    +0.000 A 
ATOM     11  C   UNL     1       6.615  14.583  20.361  0.00  0.00    +0.000 A 
ATOM     12  C   UNL     1       5.683  15.077  19.446  0.00  0.00    +0.000 A 
ATOM     13  C   UNL     1       5.415  16.441  19.399  0.00  0.00    +0.000 A 
ATOM     14 CL   UNL     1       4.254  17.047  18.285  0.00  0.00    +0.000 Cl
ATOM     15  C   UNL     1       6.077  17.320  20.252  0.00  0.00    +0.000 A 
ATOM     16  C   UNL     1       7.030  16.829  21.145  0.00  0.00    +0.000 A 
ENDBRANCH   6  10
BRANCH   1  20
ATOM     17  C   UNL     1       4.509  10.102  27.127  0.00  0.00    +0.000 A 
ATOM     18  N   UNL     1       4.161  10.032  25.849  0.00  0.00    +0.000 NA
ATOM     19  C   UNL     1       4.982  10.668  24.984  0.00  0.00    +0.000 A 
ATOM     20  C   UNL     1       6.105  11.408  25.302  0.00  0.00    +0.000 A 
ATOM     21  C   UNL     1       6.374  11.364  26.676  0.00  0.00    +0.000 A 
ATOM     22  N   UNL     1       5.590  10.734  27.589  0.00  0.00    +0.000 NA
BRANCH  17  24
ATOM     23  C   UNL     1       2.322   9.392  27.502  0.00  0.00    +0.000 C 
ATOM     24  O   UNL     1       3.653   9.459  27.990  0.00  0.00    +0.000 OA
ENDBRANCH  17  24
BRANCH  21  25
ATOM     25  O   UNL     1       7.503  11.994  27.163  0.00  0.00    +0.000 OA
ATOM     26  C   UNL     1       7.218  13.197  27.876  0.00  0.00    +0.000 C 
ENDBRANCH  21  25
ENDBRANCH   1  20
BRANCH   7  27
ATOM     27  C   UNL     1      10.428  14.906  20.589  0.00  0.00    +0.000 C 
ATOM     28  C   UNL     1      10.742  16.360  20.959  0.00  0.00    +0.000 C 
ATOM     29  C   UNL     1      11.658  17.002  19.925  0.00  0.00    +0.000 C 
ATOM     30  O   UNL     1      11.093  16.897  18.621  0.00  0.00    +0.000 OA
ATOM     31  C   UNL     1      10.957  15.538  18.205  0.00  0.00    +0.000 C 
ATOM     32  C   UNL     1       9.993  14.796  19.121  0.00  0.00    +0.000 C 
ENDBRANCH   7  27
BRANCH   5  33
ATOM     33  C   UNL     1       6.013  14.529  24.577  0.00  0.00    +0.000 C 
ATOM     34  C   UNL     1       6.715  15.772  25.140  0.00  0.00    +0.000 C 
ATOM     35  C   UNL     1       4.879  14.961  23.642  0.00  0.00    +0.000 C 
ENDBRANCH   5  33
TORSDOF 6
ENDMDL
MODEL 8
REMARK VINA RESULT:      -5.6      2.774      4.476
REMARK  Name = 
REMARK  10 active torsions:
REMARK  status: ('A' for Active; 'I' for Inactive)
REMARK    1  A    between atoms: C_1  and  O_2
REMARK    2  A    between atoms: O_2  and  C_3
REMARK    3  A    between atoms: C_6  and  C_7
REMARK    4  A    between atoms: N_11  and  C_12
REMARK    5  A    between atoms: C_12  and  C_13
REMARK    6  A    between atoms: C_12  and  C_14
REMARK    7  A    between atoms: C_15  and  C_16
REMARK    8  A    between atoms: N_23  and  C_24
REMARK    9  A    between atoms: C_32  and  O_33
REMARK   10  A    between atoms: O_33  and  C_34
REMARK                            x       y       z     vdW  Elec       q    Type
REMARK                         _______ _______ _______ _____ _____    ______ ____
ROOT
ATOM      1  C   UNL     1       1.817   8.707  19.310  0.00  0.00    +0.000 A 
ATOM      2  C   UNL     1       2.100   9.675  18.333  0.00  0.00    +0.000 A 
ATOM      3  C   UNL     1       1.804  10.929  18.863  0.00  0.00    +0.000 A 
ATOM      4  C   UNL     1       1.264  10.745  20.103  0.00  0.00    +0.000 A 
ATOM      5  N   UNL     1       1.275   9.413  20.426  0.00  0.00    +0.000 N 
ATOM      6  C   UNL     1       0.848  12.035  20.734  0.00  0.00    +0.000 C 
ATOM      7  N   UNL     1       1.362  12.984  19.698  0.00  0.00    +0.000 N 
ATOM      8  C   UNL     1       1.859  12.334  18.556  0.00  0.00    +0.000 C 
ATOM      9  O   UNL     1       2.268  12.839  17.523  0.00  0.00    +0.000 OA
ENDROOT
BRANCH   6  10
ATOM     10  C   UNL     1      -0.651  12.147  20.928  0.00  0.00    +0.000 A 
ATOM     11  C   UNL     1      -1.517  12.093  19.823  0.00  0.00    +0.000 A 
ATOM     12  C   UNL     1      -2.897  12.214  19.991  0.00  0.00    +0.000 A 
ATOM     13  C   UNL     1      -3.430  12.361  21.267  0.00  0.00    +0.000 A 
ATOM     14 CL   UNL     1      -5.132  12.491  21.475  0.00  0.00    +0.000 Cl
ATOM     15  C   UNL     1      -2.594  12.398  22.380  0.00  0.00    +0.000 A 
ATOM     16  C   UNL     1      -1.212  12.307  22.210  0.00  0.00    +0.000 A 
ENDBRANCH   6  10
BRANCH   1  20
ATOM     17  C   UNL     1       2.490   4.514  19.111  0.00  0.00    +0.000 A 
ATOM     18  N   UNL     1       1.632   4.967  20.016  0.00  0.00    +0.000 NA
ATOM     19  C   UNL     1       1.433   6.304  20.014  0.00  0.00    +0.000 A 
ATOM     20  C   UNL     1       2.059   7.232  19.204  0.00  0.00    +0.000 A 
ATOM     21  C   UNL     1       2.905   6.612  18.276  0.00  0.00    +0.000 A 
ATOM     22  N   UNL     1       3.136   5.275  18.225  0.00  0.00    +0.000 NA
BRANCH  17  24
ATOM     23  C   UNL     1       1.546   2.421  18.717  0.00  0.00    +0.000 C 
ATOM     24  O   UNL     1       2.686   3.153  19.139  0.00  0.00    +0.000 OA
ENDBRANCH  17  24
BRANCH  21  25
ATOM     25  O   UNL     1       3.560   7.387  17.337  0.00  0.00    +0.000 OA
ATOM     26  C   UNL     1       4.731   6.765  16.808  0.00  0.00    +0.000 C 
ENDBRANCH  21  25
ENDBRANCH   1  20
BRANCH   7  27
ATOM     27  C   UNL     1       1.292  14.458  19.790  0.00  0.00    +0.000 C 
ATOM     28  C   UNL     1       0.306  15.104  18.812  0.00  0.00    +0.000 C 
ATOM     29  C   UNL     1       0.353  16.624  18.911  0.00  0.00    +0.000 C 
ATOM     30  O   UNL     1       1.683  17.098  18.715  0.00  0.00    +0.000 OA
ATOM     31  C   UNL     1       2.572  16.630  19.729  0.00  0.00    +0.000 C 
ATOM     32  C   UNL     1       2.677  15.112  19.685  0.00  0.00    +0.000 C 
ENDBRANCH   7  27
BRANCH   5  33
ATOM     33  C   UNL     1       0.836   8.829  21.699  0.00  0.00    +0.000 C 
ATOM     34  C   UNL     1       1.350   9.518  22.970  0.00  0.00    +0.000 C 
ATOM     35  C   UNL     1      -0.689   8.688  21.775  0.00  0.00    +0.000 C 
ENDBRANCH   5  33
TORSDOF 6
ENDMDL
MODEL 9
REMARK VINA RESULT:      -5.6      2.677      4.304
REMARK  Name = 
REMARK  10 active torsions:
REMARK  status: ('A' for Active; 'I' for Inactive)
REMARK    1  A    between atoms: C_1  and  O_2
REMARK    2  A    between atoms: O_2  and  C_3
REMARK    3  A    between atoms: C_6  and  C_7
REMARK    4  A    between atoms: N_11  and  C_12
REMARK    5  A    between atoms: C_12  and  C_13
REMARK    6  A    between atoms: C_12  and  C_14
REMARK    7  A    between atoms: C_15  and  C_16
REMARK    8  A    between atoms: N_23  and  C_24
REMARK    9  A    between atoms: C_32  and  O_33
REMARK   10  A    between atoms: O_33  and  C_34
REMARK                            x       y       z     vdW  Elec       q    Type
REMARK                         _______ _______ _______ _____ _____    ______ ____
ROOT
ATOM      1  C   UNL     1       1.853   8.659  19.422  0.00  0.00    +0.000 A 
ATOM      2  C   UNL     1       2.247   9.592  18.450  0.00  0.00    +0.000 A 
ATOM      3  C   UNL     1       1.860  10.860  18.880  0.00  0.00    +0.000 A 
ATOM      4  C   UNL     1       1.163  10.715  20.044  0.00  0.00    +0.000 A 
ATOM      5  N   UNL     1       1.154   9.397  20.424  0.00  0.00    +0.000 N 
ATOM      6  C   UNL     1       0.643  12.020  20.557  0.00  0.00    +0.000 C 
ATOM      7  N   UNL     1       1.274  12.937  19.557  0.00  0.00    +0.000 N 
ATOM      8  C   UNL     1       1.931  12.252  18.521  0.00  0.00    +0.000 C 
ATOM      9  O   UNL     1       2.466  12.723  17.531  0.00  0.00    +0.000 OA
ENDROOT
BRANCH   6  10
ATOM     10  C   UNL     1      -0.870  12.105  20.545  0.00  0.00    +0.000 A 
ATOM     11  C   UNL     1      -1.593  11.752  19.393  0.00  0.00    +0.000 A 
ATOM     12  C   UNL     1      -2.985  11.846  19.367  0.00  0.00    +0.000 A 
ATOM     13  C   UNL     1      -3.673  12.263  20.501  0.00  0.00    +0.000 A 
ATOM     14 CL   UNL     1      -5.389  12.359  20.474  0.00  0.00    +0.000 Cl
ATOM     15  C   UNL     1      -2.981  12.600  21.662  0.00  0.00    +0.000 A 
ATOM     16  C   UNL     1      -1.587  12.535  21.678  0.00  0.00    +0.000 A 
ENDBRANCH   6  10
BRANCH   1  20
ATOM     17  C   UNL     1       2.644   4.483  19.504  0.00  0.00    +0.000 A 
ATOM     18  N   UNL     1       1.867   4.990  20.452  0.00  0.00    +0.000 NA
ATOM     19  C   UNL     1       1.624   6.317  20.360  0.00  0.00    +0.000 A 
ATOM     20  C   UNL     1       2.133   7.187  19.414  0.00  0.00    +0.000 A 
ATOM     21  C   UNL     1       2.901   6.511  18.458  0.00  0.00    +0.000 A 
ATOM     22  N   UNL     1       3.170   5.181  18.495  0.00  0.00    +0.000 NA
BRANCH  17  24
ATOM     23  C   UNL     1       1.967   2.338  18.894  0.00  0.00    +0.000 C 
ATOM     24  O   UNL     1       2.888   3.134  19.624  0.00  0.00    +0.000 OA
ENDBRANCH  17  24
BRANCH  21  25
ATOM     25  O   UNL     1       3.431   7.218  17.396  0.00  0.00    +0.000 OA
ATOM     26  C   UNL     1       4.696   6.722  16.960  0.00  0.00    +0.000 C 
ENDBRANCH  21  25
ENDBRANCH   1  20
BRANCH   7  27
ATOM     27  C   UNL     1       1.167  14.411  19.574  0.00  0.00    +0.000 C 
ATOM     28  C   UNL     1       1.204  15.030  20.975  0.00  0.00    +0.000 C 
ATOM     29  C   UNL     1       1.007  16.539  20.912  0.00  0.00    +0.000 C 
ATOM     30  O   UNL     1      -0.199  16.858  20.223  0.00  0.00    +0.000 OA
ATOM     31  C   UNL     1      -0.166  16.430  18.862  0.00  0.00    +0.000 C 
ATOM     32  C   UNL     1      -0.050  14.914  18.784  0.00  0.00    +0.000 C 
ENDBRANCH   7  27
BRANCH   5  33
ATOM     33  C   UNL     1       0.558   8.856  21.651  0.00  0.00    +0.000 C 
ATOM     34  C   UNL     1       0.853   9.633  22.942  0.00  0.00    +0.000 C 
ATOM     35  C   UNL     1      -0.954   8.645  21.517  0.00  0.00    +0.000 C 
ENDBRANCH   5  33
TORSDOF 6
ENDMDL
