MODEL 1
REMARK VINA RESULT:      -8.6      0.000      0.000
REMARK  Name = 
REMARK  3 active torsions:
REMARK  status: ('A' for Active; 'I' for Inactive)
REMARK    1  A    between atoms: C_5  and  C_6
REMARK    2  A    between atoms: N_13  and  N_14
REMARK    3  A    between atoms: N_14  and  C_15
REMARK                            x       y       z     vdW  Elec       q    Type
REMARK                         _______ _______ _______ _____ _____    ______ ____
ROOT
ATOM      1  O   UNL     1       0.185   2.075  19.303  0.00  0.00    +0.000 OA
ATOM      2  C   UNL     1       1.188   2.627  18.872  0.00  0.00    +0.000 C 
ATOM      3  N   UNL     1       2.012   2.075  17.927  0.00  0.00    +0.000 N 
ATOM      4  N   UNL     1       3.176   2.572  17.431  0.00  0.00    +0.000 NA
ATOM      5  C   UNL     1       3.642   3.731  17.803  0.00  0.00    +0.000 C 
ATOM      6  C   UNL     1       2.861   4.582  18.780  0.00  0.00    +0.000 C 
ATOM      7  N   UNL     1       3.290   5.785  19.035  0.00  0.00    +0.000 NA
ATOM      8  C   UNL     1       1.613   3.988  19.364  0.00  0.00    +0.000 C 
ATOM      9  O   UNL     1       0.952   4.586  20.202  0.00  0.00    +0.000 OA
ATOM     10  H   UNL     1       1.760   1.139  17.607  0.00  0.00    +0.000 HD
ENDROOT
BRANCH   5  11
ATOM     11  C   UNL     1       4.968   4.163  17.270  0.00  0.00    +0.000 A 
ATOM     12  C   UNL     1       5.135   4.265  15.879  0.00  0.00    +0.000 A 
ATOM     13  C   UNL     1       6.381   4.599  15.341  0.00  0.00    +0.000 A 
ATOM     14  C   UNL     1       7.465   4.831  16.184  0.00  0.00    +0.000 A 
ATOM     15  C   UNL     1       7.309   4.726  17.564  0.00  0.00    +0.000 A 
ATOM     16  C   UNL     1       6.069   4.384  18.105  0.00  0.00    +0.000 A 
ENDBRANCH   5  11
BRANCH   7  17
ATOM     17  N   UNL     1       2.673   6.513  20.000  0.00  0.00    +0.000 N 
ATOM     18  H   UNL     1       2.227   6.047  20.801  0.00  0.00    +0.000 HD
BRANCH  17  19
ATOM     19  C   UNL     1       2.067   7.734  19.646  0.00  0.00    +0.000 A 
ATOM     20  C   UNL     1       1.299   8.482  20.547  0.00  0.00    +0.000 A 
ATOM     21  C   UNL     1       0.685   9.673  20.152  0.00  0.00    +0.000 A 
ATOM     22  C   UNL     1       0.805  10.116  18.837  0.00  0.00    +0.000 A 
ATOM     23  C   UNL     1       1.533   9.364  17.917  0.00  0.00    +0.000 A 
ATOM     24  C   UNL     1       2.152   8.178  18.318  0.00  0.00    +0.000 A 
ENDBRANCH  17  19
ENDBRANCH   7  17
TORSDOF 3
ENDMDL
MODEL 2
REMARK VINA RESULT:      -8.5      0.101      1.030
REMARK  Name = 
REMARK  3 active torsions:
REMARK  status: ('A' for Active; 'I' for Inactive)
REMARK    1  A    between atoms: C_5  and  C_6
REMARK    2  A    between atoms: N_13  and  N_14
REMARK    3  A    between atoms: N_14  and  C_15
REMARK                            x       y       z     vdW  Elec       q    Type
REMARK                         _______ _______ _______ _____ _____    ______ ____
ROOT
ATOM      1  O   UNL     1       0.217   2.042  19.417  0.00  0.00    +0.000 OA
ATOM      2  C   UNL     1       1.203   2.597  18.951  0.00  0.00    +0.000 C 
ATOM      3  N   UNL     1       2.010   2.036  17.996  0.00  0.00    +0.000 N 
ATOM      4  N   UNL     1       3.155   2.536  17.461  0.00  0.00    +0.000 NA
ATOM      5  C   UNL     1       3.616   3.708  17.798  0.00  0.00    +0.000 C 
ATOM      6  C   UNL     1       2.849   4.569  18.777  0.00  0.00    +0.000 C 
ATOM      7  N   UNL     1       3.270   5.782  18.998  0.00  0.00    +0.000 NA
ATOM      8  C   UNL     1       1.623   3.973  19.404  0.00  0.00    +0.000 C 
ATOM      9  O   UNL     1       0.977   4.580  20.247  0.00  0.00    +0.000 OA
ATOM     10  H   UNL     1       1.762   1.090  17.702  0.00  0.00    +0.000 HD
ENDROOT
BRANCH   5  11
ATOM     11  C   UNL     1       4.923   4.144  17.223  0.00  0.00    +0.000 A 
ATOM     12  C   UNL     1       5.035   4.280  15.829  0.00  0.00    +0.000 A 
ATOM     13  C   UNL     1       6.262   4.619  15.251  0.00  0.00    +0.000 A 
ATOM     14  C   UNL     1       7.380   4.822  16.056  0.00  0.00    +0.000 A 
ATOM     15  C   UNL     1       7.278   4.685  17.438  0.00  0.00    +0.000 A 
ATOM     16  C   UNL     1       6.058   4.337  18.020  0.00  0.00    +0.000 A 
ENDBRANCH   5  11
BRANCH   7  17
ATOM     17  N   UNL     1       2.669   6.522  19.963  0.00  0.00    +0.000 N 
ATOM     18  H   UNL     1       2.247   6.068  20.784  0.00  0.00    +0.000 HD
BRANCH  17  19
ATOM     19  C   UNL     1       2.039   7.729  19.600  0.00  0.00    +0.000 A 
ATOM     20  C   UNL     1       2.173   8.295  18.327  0.00  0.00    +0.000 A 
ATOM     21  C   UNL     1       1.560   9.510  18.012  0.00  0.00    +0.000 A 
ATOM     22  C   UNL     1       0.830  10.193  18.981  0.00  0.00    +0.000 A 
ATOM     23  C   UNL     1       0.720   9.664  20.265  0.00  0.00    +0.000 A 
ATOM     24  C   UNL     1       1.326   8.445  20.573  0.00  0.00    +0.000 A 
ENDBRANCH  17  19
ENDBRANCH   7  17
TORSDOF 3
ENDMDL
MODEL 3
REMARK VINA RESULT:      -8.4      3.074      4.892
REMARK  Name = 
REMARK  3 active torsions:
REMARK  status: ('A' for Active; 'I' for Inactive)
REMARK    1  A    between atoms: C_5  and  C_6
REMARK    2  A    between atoms: N_13  and  N_14
REMARK    3  A    between atoms: N_14  and  C_15
REMARK                            x       y       z     vdW  Elec       q    Type
REMARK                         _______ _______ _______ _____ _____    ______ ____
ROOT
ATOM      1  O   UNL     1       7.695   5.346  20.428  0.00  0.00    +0.000 OA
ATOM      2  C   UNL     1       7.362   5.130  19.271  0.00  0.00    +0.000 C 
ATOM      3  N   UNL     1       8.227   4.700  18.299  0.00  0.00    +0.000 N 
ATOM      4  N   UNL     1       7.976   4.492  16.980  0.00  0.00    +0.000 NA
ATOM      5  C   UNL     1       6.785   4.653  16.474  0.00  0.00    +0.000 C 
ATOM      6  C   UNL     1       5.630   5.041  17.369  0.00  0.00    +0.000 C 
ATOM      7  N   UNL     1       4.432   5.074  16.857  0.00  0.00    +0.000 NA
ATOM      8  C   UNL     1       5.940   5.329  18.808  0.00  0.00    +0.000 C 
ATOM      9  O   UNL     1       5.074   5.702  19.587  0.00  0.00    +0.000 OA
ATOM     10  H   UNL     1       9.202   4.593  18.585  0.00  0.00    +0.000 HD
ENDROOT
BRANCH   5  11
ATOM     11  C   UNL     1       6.616   4.483  15.000  0.00  0.00    +0.000 A 
ATOM     12  C   UNL     1       5.586   3.651  14.531  0.00  0.00    +0.000 A 
ATOM     13  C   UNL     1       5.441   3.413  13.162  0.00  0.00    +0.000 A 
ATOM     14  C   UNL     1       6.320   3.999  12.255  0.00  0.00    +0.000 A 
ATOM     15  C   UNL     1       7.347   4.821  12.712  0.00  0.00    +0.000 A 
ATOM     16  C   UNL     1       7.502   5.054  14.079  0.00  0.00    +0.000 A 
ENDBRANCH   5  11
BRANCH   7  17
ATOM     17  N   UNL     1       3.405   5.538  17.611  0.00  0.00    +0.000 N 
ATOM     18  H   UNL     1       3.498   6.419  18.135  0.00  0.00    +0.000 HD
BRANCH  17  19
ATOM     19  C   UNL     1       2.531   4.612  18.213  0.00  0.00    +0.000 A 
ATOM     20  C   UNL     1       1.832   4.893  19.394  0.00  0.00    +0.000 A 
ATOM     21  C   UNL     1       0.998   3.939  19.980  0.00  0.00    +0.000 A 
ATOM     22  C   UNL     1       0.877   2.675  19.409  0.00  0.00    +0.000 A 
ATOM     23  C   UNL     1       1.595   2.365  18.257  0.00  0.00    +0.000 A 
ATOM     24  C   UNL     1       2.422   3.325  17.668  0.00  0.00    +0.000 A 
ENDBRANCH  17  19
ENDBRANCH   7  17
TORSDOF 3
ENDMDL
MODEL 4
REMARK VINA RESULT:      -8.4      1.328      1.745
REMARK  Name = 
REMARK  3 active torsions:
REMARK  status: ('A' for Active; 'I' for Inactive)
REMARK    1  A    between atoms: C_5  and  C_6
REMARK    2  A    between atoms: N_13  and  N_14
REMARK    3  A    between atoms: N_14  and  C_15
REMARK                            x       y       z     vdW  Elec       q    Type
REMARK                         _______ _______ _______ _____ _____    ______ ____
ROOT
ATOM      1  O   UNL     1       0.637   2.143  18.705  0.00  0.00    +0.000 OA
ATOM      2  C   UNL     1       1.571   2.926  18.604  0.00  0.00    +0.000 C 
ATOM      3  N   UNL     1       2.643   2.726  17.774  0.00  0.00    +0.000 N 
ATOM      4  N   UNL     1       3.755   3.496  17.634  0.00  0.00    +0.000 NA
ATOM      5  C   UNL     1       3.908   4.609  18.295  0.00  0.00    +0.000 C 
ATOM      6  C   UNL     1       2.812   5.097  19.217  0.00  0.00    +0.000 C 
ATOM      7  N   UNL     1       2.941   6.272  19.766  0.00  0.00    +0.000 NA
ATOM      8  C   UNL     1       1.623   4.203  19.406  0.00  0.00    +0.000 C 
ATOM      9  O   UNL     1       0.718   4.496  20.176  0.00  0.00    +0.000 OA
ATOM     10  H   UNL     1       2.643   1.851  17.248  0.00  0.00    +0.000 HD
ENDROOT
BRANCH   5  11
ATOM     11  C   UNL     1       5.195   5.349  18.143  0.00  0.00    +0.000 A 
ATOM     12  C   UNL     1       6.233   5.092  19.053  0.00  0.00    +0.000 A 
ATOM     13  C   UNL     1       7.427   5.816  18.983  0.00  0.00    +0.000 A 
ATOM     14  C   UNL     1       7.591   6.798  18.011  0.00  0.00    +0.000 A 
ATOM     15  C   UNL     1       6.564   7.064  17.108  0.00  0.00    +0.000 A 
ATOM     16  C   UNL     1       5.367   6.350  17.179  0.00  0.00    +0.000 A 
ENDBRANCH   5  11
BRANCH   7  17
ATOM     17  N   UNL     1       2.031   6.671  20.689  0.00  0.00    +0.000 N 
ATOM     18  H   UNL     1       1.374   5.995  21.102  0.00  0.00    +0.000 HD
BRANCH  17  19
ATOM     19  C   UNL     1       1.522   7.982  20.619  0.00  0.00    +0.000 A 
ATOM     20  C   UNL     1       0.904   8.610  21.707  0.00  0.00    +0.000 A 
ATOM     21  C   UNL     1       0.382   9.900  21.591  0.00  0.00    +0.000 A 
ATOM     22  C   UNL     1       0.443  10.569  20.371  0.00  0.00    +0.000 A 
ATOM     23  C   UNL     1       1.019   9.945  19.268  0.00  0.00    +0.000 A 
ATOM     24  C   UNL     1       1.548   8.657  19.390  0.00  0.00    +0.000 A 
ENDBRANCH  17  19
ENDBRANCH   7  17
TORSDOF 3
ENDMDL
MODEL 5
REMARK VINA RESULT:      -8.4      3.067      4.989
REMARK  Name = 
REMARK  3 active torsions:
REMARK  status: ('A' for Active; 'I' for Inactive)
REMARK    1  A    between atoms: C_5  and  C_6
REMARK    2  A    between atoms: N_13  and  N_14
REMARK    3  A    between atoms: N_14  and  C_15
REMARK                            x       y       z     vdW  Elec       q    Type
REMARK                         _______ _______ _______ _____ _____    ______ ____
ROOT
ATOM      1  O   UNL     1       7.671   5.349  20.372  0.00  0.00    +0.000 OA
ATOM      2  C   UNL     1       7.349   5.130  19.212  0.00  0.00    +0.000 C 
ATOM      3  N   UNL     1       8.227   4.717  18.244  0.00  0.00    +0.000 N 
ATOM      4  N   UNL     1       7.987   4.508  16.923  0.00  0.00    +0.000 NA
ATOM      5  C   UNL     1       6.797   4.651  16.410  0.00  0.00    +0.000 C 
ATOM      6  C   UNL     1       5.630   5.018  17.298  0.00  0.00    +0.000 C 
ATOM      7  N   UNL     1       4.435   5.032  16.779  0.00  0.00    +0.000 NA
ATOM      8  C   UNL     1       5.926   5.307  18.740  0.00  0.00    +0.000 C 
ATOM      9  O   UNL     1       5.049   5.664  19.515  0.00  0.00    +0.000 OA
ATOM     10  H   UNL     1       9.201   4.625  18.536  0.00  0.00    +0.000 HD
ENDROOT
BRANCH   5  11
ATOM     11  C   UNL     1       6.640   4.481  14.935  0.00  0.00    +0.000 A 
ATOM     12  C   UNL     1       5.652   3.603  14.458  0.00  0.00    +0.000 A 
ATOM     13  C   UNL     1       5.522   3.366  13.087  0.00  0.00    +0.000 A 
ATOM     14  C   UNL     1       6.374   3.999  12.186  0.00  0.00    +0.000 A 
ATOM     15  C   UNL     1       7.359   4.867  12.651  0.00  0.00    +0.000 A 
ATOM     16  C   UNL     1       7.499   5.100  14.020  0.00  0.00    +0.000 A 
ENDBRANCH   5  11
BRANCH   7  17
ATOM     17  N   UNL     1       3.395   5.478  17.528  0.00  0.00    +0.000 N 
ATOM     18  H   UNL     1       3.451   6.384  18.012  0.00  0.00    +0.000 HD
BRANCH  17  19
ATOM     19  C   UNL     1       2.576   4.537  18.182  0.00  0.00    +0.000 A 
ATOM     20  C   UNL     1       2.347   3.254  17.672  0.00  0.00    +0.000 A 
ATOM     21  C   UNL     1       1.503   2.358  18.332  0.00  0.00    +0.000 A 
ATOM     22  C   UNL     1       0.849   2.747  19.498  0.00  0.00    +0.000 A 
ATOM     23  C   UNL     1       1.034   4.034  19.998  0.00  0.00    +0.000 A 
ATOM     24  C   UNL     1       1.886   4.924  19.340  0.00  0.00    +0.000 A 
ENDBRANCH  17  19
ENDBRANCH   7  17
TORSDOF 3
ENDMDL
MODEL 6
REMARK VINA RESULT:      -8.4      0.184      1.044
REMARK  Name = 
REMARK  3 active torsions:
REMARK  status: ('A' for Active; 'I' for Inactive)
REMARK    1  A    between atoms: C_5  and  C_6
REMARK    2  A    between atoms: N_13  and  N_14
REMARK    3  A    between atoms: N_14  and  C_15
REMARK                            x       y       z     vdW  Elec       q    Type
REMARK                         _______ _______ _______ _____ _____    ______ ____
ROOT
ATOM      1  O   UNL     1       0.321   1.882  19.241  0.00  0.00    +0.000 OA
ATOM      2  C   UNL     1       1.303   2.468  18.806  0.00  0.00    +0.000 C 
ATOM      3  N   UNL     1       2.152   1.937  17.871  0.00  0.00    +0.000 N 
ATOM      4  N   UNL     1       3.297   2.474  17.372  0.00  0.00    +0.000 NA
ATOM      5  C   UNL     1       3.714   3.657  17.729  0.00  0.00    +0.000 C 
ATOM      6  C   UNL     1       2.895   4.488  18.691  0.00  0.00    +0.000 C 
ATOM      7  N   UNL     1       3.273   5.712  18.931  0.00  0.00    +0.000 NA
ATOM      8  C   UNL     1       1.670   3.853  19.280  0.00  0.00    +0.000 C 
ATOM      9  O   UNL     1       0.982   4.435  20.107  0.00  0.00    +0.000 OA
ATOM     10  H   UNL     1       1.940   0.987  17.564  0.00  0.00    +0.000 HD
ENDROOT
BRANCH   5  11
ATOM     11  C   UNL     1       5.023   4.135  17.194  0.00  0.00    +0.000 A 
ATOM     12  C   UNL     1       6.072   4.378  18.096  0.00  0.00    +0.000 A 
ATOM     13  C   UNL     1       7.289   4.892  17.639  0.00  0.00    +0.000 A 
ATOM     14  C   UNL     1       7.466   5.168  16.286  0.00  0.00    +0.000 A 
ATOM     15  C   UNL     1       6.428   4.935  15.386  0.00  0.00    +0.000 A 
ATOM     16  C   UNL     1       5.208   4.431  15.838  0.00  0.00    +0.000 A 
ENDBRANCH   5  11
BRANCH   7  17
ATOM     17  N   UNL     1       2.624   6.428  19.883  0.00  0.00    +0.000 N 
ATOM     18  H   UNL     1       2.111   5.951  20.637  0.00  0.00    +0.000 HD
BRANCH  17  19
ATOM     19  C   UNL     1       2.085   7.683  19.540  0.00  0.00    +0.000 A 
ATOM     20  C   UNL     1       1.362   8.466  20.447  0.00  0.00    +0.000 A 
ATOM     21  C   UNL     1       0.814   9.692  20.063  0.00  0.00    +0.000 A 
ATOM     22  C   UNL     1       0.957  10.137  18.751  0.00  0.00    +0.000 A 
ATOM     23  C   UNL     1       1.640   9.353  17.825  0.00  0.00    +0.000 A 
ATOM     24  C   UNL     1       2.194   8.132  18.215  0.00  0.00    +0.000 A 
ENDBRANCH  17  19
ENDBRANCH   7  17
TORSDOF 3
ENDMDL
MODEL 7
REMARK VINA RESULT:      -8.4      3.088      4.942
REMARK  Name = 
REMARK  3 active torsions:
REMARK  status: ('A' for Active; 'I' for Inactive)
REMARK    1  A    between atoms: C_5  and  C_6
REMARK    2  A    between atoms: N_13  and  N_14
REMARK    3  A    between atoms: N_14  and  C_15
REMARK                            x       y       z     vdW  Elec       q    Type
REMARK                         _______ _______ _______ _____ _____    ______ ____
ROOT
ATOM      1  O   UNL     1       7.659   5.421  20.369  0.00  0.00    +0.000 OA
ATOM      2  C   UNL     1       7.345   5.161  19.216  0.00  0.00    +0.000 C 
ATOM      3  N   UNL     1       8.227   4.706  18.271  0.00  0.00    +0.000 N 
ATOM      4  N   UNL     1       7.996   4.450  16.957  0.00  0.00    +0.000 NA
ATOM      5  C   UNL     1       6.811   4.582  16.429  0.00  0.00    +0.000 C 
ATOM      6  C   UNL     1       5.640   4.989  17.294  0.00  0.00    +0.000 C 
ATOM      7  N   UNL     1       4.449   4.992  16.765  0.00  0.00    +0.000 NA
ATOM      8  C   UNL     1       5.927   5.330  18.727  0.00  0.00    +0.000 C 
ATOM      9  O   UNL     1       5.046   5.721  19.480  0.00  0.00    +0.000 OA
ATOM     10  H   UNL     1       9.198   4.619  18.574  0.00  0.00    +0.000 HD
ENDROOT
BRANCH   5  11
ATOM     11  C   UNL     1       6.664   4.359  14.960  0.00  0.00    +0.000 A 
ATOM     12  C   UNL     1       7.526   5.040  14.085  0.00  0.00    +0.000 A 
ATOM     13  C   UNL     1       7.373   4.909  12.702  0.00  0.00    +0.000 A 
ATOM     14  C   UNL     1       6.362   4.103  12.185  0.00  0.00    +0.000 A 
ATOM     15  C   UNL     1       5.500   3.428  13.046  0.00  0.00    +0.000 A 
ATOM     16  C   UNL     1       5.643   3.563  14.428  0.00  0.00    +0.000 A 
ENDBRANCH   5  11
BRANCH   7  17
ATOM     17  N   UNL     1       3.407   5.472  17.488  0.00  0.00    +0.000 N 
ATOM     18  H   UNL     1       3.480   6.378  17.972  0.00  0.00    +0.000 HD
BRANCH  17  19
ATOM     19  C   UNL     1       2.544   4.560  18.125  0.00  0.00    +0.000 A 
ATOM     20  C   UNL     1       1.854   4.871  19.303  0.00  0.00    +0.000 A 
ATOM     21  C   UNL     1       1.030   3.930  19.924  0.00  0.00    +0.000 A 
ATOM     22  C   UNL     1       0.911   2.649  19.391  0.00  0.00    +0.000 A 
ATOM     23  C   UNL     1       1.621   2.309  18.242  0.00  0.00    +0.000 A 
ATOM     24  C   UNL     1       2.437   3.256  17.618  0.00  0.00    +0.000 A 
ENDBRANCH  17  19
ENDBRANCH   7  17
TORSDOF 3
ENDMDL
MODEL 8
REMARK VINA RESULT:      -8.3      1.349      2.061
REMARK  Name = 
REMARK  3 active torsions:
REMARK  status: ('A' for Active; 'I' for Inactive)
REMARK    1  A    between atoms: C_5  and  C_6
REMARK    2  A    between atoms: N_13  and  N_14
REMARK    3  A    between atoms: N_14  and  C_15
REMARK                            x       y       z     vdW  Elec       q    Type
REMARK                         _______ _______ _______ _____ _____    ______ ____
ROOT
ATOM      1  O   UNL     1       0.899   2.147  18.434  0.00  0.00    +0.000 OA
ATOM      2  C   UNL     1       1.824   2.947  18.385  0.00  0.00    +0.000 C 
ATOM      3  N   UNL     1       2.932   2.780  17.596  0.00  0.00    +0.000 N 
ATOM      4  N   UNL     1       4.035   3.570  17.515  0.00  0.00    +0.000 NA
ATOM      5  C   UNL     1       4.142   4.673  18.203  0.00  0.00    +0.000 C 
ATOM      6  C   UNL     1       3.002   5.125  19.088  0.00  0.00    +0.000 C 
ATOM      7  N   UNL     1       3.089   6.291  19.664  0.00  0.00    +0.000 NA
ATOM      8  C   UNL     1       1.822   4.208  19.213  0.00  0.00    +0.000 C 
ATOM      9  O   UNL     1       0.882   4.472  19.950  0.00  0.00    +0.000 OA
ATOM     10  H   UNL     1       2.968   1.915  17.054  0.00  0.00    +0.000 HD
ENDROOT
BRANCH   5  11
ATOM     11  C   UNL     1       5.421   5.437  18.116  0.00  0.00    +0.000 A 
ATOM     12  C   UNL     1       6.433   5.167  19.053  0.00  0.00    +0.000 A 
ATOM     13  C   UNL     1       7.617   5.910  19.045  0.00  0.00    +0.000 A 
ATOM     14  C   UNL     1       7.797   6.925  18.110  0.00  0.00    +0.000 A 
ATOM     15  C   UNL     1       6.797   7.203  17.181  0.00  0.00    +0.000 A 
ATOM     16  C   UNL     1       5.609   6.470  17.190  0.00  0.00    +0.000 A 
ENDBRANCH   5  11
BRANCH   7  17
ATOM     17  N   UNL     1       2.136   6.658  20.557  0.00  0.00    +0.000 N 
ATOM     18  H   UNL     1       1.510   5.954  20.972  0.00  0.00    +0.000 HD
BRANCH  17  19
ATOM     19  C   UNL     1       1.553   7.935  20.442  0.00  0.00    +0.000 A 
ATOM     20  C   UNL     1       1.590   8.676  19.255  0.00  0.00    +0.000 A 
ATOM     21  C   UNL     1       1.028   9.953  19.187  0.00  0.00    +0.000 A 
ATOM     22  C   UNL     1       0.450  10.520  20.319  0.00  0.00    +0.000 A 
ATOM     23  C   UNL     1       0.439   9.813  21.519  0.00  0.00    +0.000 A 
ATOM     24  C   UNL     1       0.994   8.532  21.581  0.00  0.00    +0.000 A 
ENDBRANCH  17  19
ENDBRANCH   7  17
TORSDOF 3
ENDMDL
MODEL 9
REMARK VINA RESULT:      -8.3      3.074      5.017
REMARK  Name = 
REMARK  3 active torsions:
REMARK  status: ('A' for Active; 'I' for Inactive)
REMARK    1  A    between atoms: C_5  and  C_6
REMARK    2  A    between atoms: N_13  and  N_14
REMARK    3  A    between atoms: N_14  and  C_15
REMARK                            x       y       z     vdW  Elec       q    Type
REMARK                         _______ _______ _______ _____ _____    ______ ____
ROOT
ATOM      1  O   UNL     1       7.669   5.428  20.372  0.00  0.00    +0.000 OA
ATOM      2  C   UNL     1       7.350   5.163  19.221  0.00  0.00    +0.000 C 
ATOM      3  N   UNL     1       8.233   4.723  18.270  0.00  0.00    +0.000 N 
ATOM      4  N   UNL     1       7.997   4.463  16.957  0.00  0.00    +0.000 NA
ATOM      5  C   UNL     1       6.806   4.575  16.438  0.00  0.00    +0.000 C 
ATOM      6  C   UNL     1       5.634   4.963  17.312  0.00  0.00    +0.000 C 
ATOM      7  N   UNL     1       4.440   4.946  16.791  0.00  0.00    +0.000 NA
ATOM      8  C   UNL     1       5.927   5.308  18.742  0.00  0.00    +0.000 C 
ATOM      9  O   UNL     1       5.045   5.685  19.502  0.00  0.00    +0.000 OA
ATOM     10  H   UNL     1       9.208   4.652  18.566  0.00  0.00    +0.000 HD
ENDROOT
BRANCH   5  11
ATOM     11  C   UNL     1       6.652   4.350  14.971  0.00  0.00    +0.000 A 
ATOM     12  C   UNL     1       7.517   5.020  14.090  0.00  0.00    +0.000 A 
ATOM     13  C   UNL     1       7.358   4.887  12.708  0.00  0.00    +0.000 A 
ATOM     14  C   UNL     1       6.338   4.090  12.197  0.00  0.00    +0.000 A 
ATOM     15  C   UNL     1       5.473   3.425  13.063  0.00  0.00    +0.000 A 
ATOM     16  C   UNL     1       5.621   3.563  14.444  0.00  0.00    +0.000 A 
ENDBRANCH   5  11
BRANCH   7  17
ATOM     17  N   UNL     1       3.396   5.410  17.522  0.00  0.00    +0.000 N 
ATOM     18  H   UNL     1       3.450   6.325  17.990  0.00  0.00    +0.000 HD
BRANCH  17  19
ATOM     19  C   UNL     1       2.567   4.484  18.186  0.00  0.00    +0.000 A 
ATOM     20  C   UNL     1       2.329   3.196  17.692  0.00  0.00    +0.000 A 
ATOM     21  C   UNL     1       1.477   2.315  18.361  0.00  0.00    +0.000 A 
ATOM     22  C   UNL     1       0.822   2.725  19.520  0.00  0.00    +0.000 A 
ATOM     23  C   UNL     1       1.016   4.016  20.004  0.00  0.00    +0.000 A 
ATOM     24  C   UNL     1       1.877   4.891  19.337  0.00  0.00    +0.000 A 
ENDBRANCH  17  19
ENDBRANCH   7  17
TORSDOF 3
ENDMDL
