MODEL 1
REMARK VINA RESULT:      -7.5      0.000      0.000
REMARK  Name = 
REMARK  5 active torsions:
REMARK  status: ('A' for Active; 'I' for Inactive)
REMARK    1  A    between atoms: C_1  and  C_2
REMARK    2  A    between atoms: C_2  and  C_3
REMARK    3  A    between atoms: C_3  and  N_4
REMARK    4  A    between atoms: N_4  and  C_5
REMARK    5  A    between atoms: C_9  and  C_10
REMARK                            x       y       z     vdW  Elec       q    Type
REMARK                         _______ _______ _______ _____ _____    ______ ____
ROOT
ATOM      1  C   UNL     1       4.835   5.308  17.128  0.00  0.00    +0.000 A 
ATOM      2  C   UNL     1       3.515   5.680  17.390  0.00  0.00    +0.000 A 
ATOM      3  C   UNL     1       2.751   5.043  18.382  0.00  0.00    +0.000 A 
ATOM      4  C   UNL     1       3.297   4.031  19.178  0.00  0.00    +0.000 A 
ATOM      5  C   UNL     1       2.572   3.317  20.257  0.00  0.00    +0.000 A 
ATOM      6  C   UNL     1       3.241   2.391  20.976  0.00  0.00    +0.000 A 
ATOM      7  C   UNL     1       4.653   2.045  20.730  0.00  0.00    +0.000 A 
ATOM      8  O   UNL     1       5.222   1.199  21.409  0.00  0.00    +0.000 OA
ATOM      9  N   UNL     1       5.269   2.712  19.717  0.00  0.00    +0.000 N 
ATOM     10  C   UNL     1       4.641   3.691  18.937  0.00  0.00    +0.000 A 
ATOM     11  C   UNL     1       5.396   4.321  17.940  0.00  0.00    +0.000 A 
ATOM     12  H   UNL     1       6.238   2.472  19.557  0.00  0.00    +0.000 HD
ENDROOT
BRANCH   5  13
ATOM     13  C   UNL     1       1.135   3.559  20.608  0.00  0.00    +0.000 C 
ATOM     14  F   UNL     1       0.776   4.854  20.776  0.00  0.00    +0.000 F 
ATOM     15  F   UNL     1       0.309   3.064  19.647  0.00  0.00    +0.000 F 
ATOM     16  F   UNL     1       0.800   2.920  21.761  0.00  0.00    +0.000 F 
ENDBRANCH   5  13
BRANCH   1  17
ATOM     17  N   UNL     1       5.566   6.030  16.175  0.00  0.00    +0.000 N 
ATOM     18  H   UNL     1       5.376   5.702  15.231  0.00  0.00    +0.000 HD
BRANCH  17  19
ATOM     19  C   UNL     1       6.995   6.217  16.415  0.00  0.00    +0.000 C 
BRANCH  19  21
ATOM     20  C   UNL     1       8.041   6.893  18.591  0.00  0.00    +0.000 C 
ATOM     21  C   UNL     1       7.206   7.356  17.408  0.00  0.00    +0.000 C 
ENDBRANCH  19  21
ENDBRANCH  17  19
ENDBRANCH   1  17
TORSDOF 4
ENDMDL
MODEL 2
REMARK VINA RESULT:      -7.5      1.328      2.129
REMARK  Name = 
REMARK  5 active torsions:
REMARK  status: ('A' for Active; 'I' for Inactive)
REMARK    1  A    between atoms: C_1  and  C_2
REMARK    2  A    between atoms: C_2  and  C_3
REMARK    3  A    between atoms: C_3  and  N_4
REMARK    4  A    between atoms: N_4  and  C_5
REMARK    5  A    between atoms: C_9  and  C_10
REMARK                            x       y       z     vdW  Elec       q    Type
REMARK                         _______ _______ _______ _____ _____    ______ ____
ROOT
ATOM      1  C   UNL     1       4.676   5.133  16.847  0.00  0.00    +0.000 A 
ATOM      2  C   UNL     1       3.353   5.479  17.132  0.00  0.00    +0.000 A 
ATOM      3  C   UNL     1       2.642   4.877  18.183  0.00  0.00    +0.000 A 
ATOM      4  C   UNL     1       3.244   3.929  19.015  0.00  0.00    +0.000 A 
ATOM      5  C   UNL     1       2.576   3.256  20.156  0.00  0.00    +0.000 A 
ATOM      6  C   UNL     1       3.296   2.393  20.904  0.00  0.00    +0.000 A 
ATOM      7  C   UNL     1       4.710   2.076  20.631  0.00  0.00    +0.000 A 
ATOM      8  O   UNL     1       5.327   1.288  21.338  0.00  0.00    +0.000 OA
ATOM      9  N   UNL     1       5.273   2.703  19.562  0.00  0.00    +0.000 N 
ATOM     10  C   UNL     1       4.590   3.616  18.750  0.00  0.00    +0.000 A 
ATOM     11  C   UNL     1       5.293   4.211  17.695  0.00  0.00    +0.000 A 
ATOM     12  H   UNL     1       6.244   2.483  19.384  0.00  0.00    +0.000 HD
ENDROOT
BRANCH   5  13
ATOM     13  C   UNL     1       1.144   3.475  20.541  0.00  0.00    +0.000 C 
ATOM     14  F   UNL     1       0.219   3.033  19.657  0.00  0.00    +0.000 F 
ATOM     15  F   UNL     1       0.858   2.859  21.720  0.00  0.00    +0.000 F 
ATOM     16  F   UNL     1       0.886   4.797  20.732  0.00  0.00    +0.000 F 
ENDBRANCH   5  13
BRANCH   1  17
ATOM     17  N   UNL     1       5.354   5.821  15.833  0.00  0.00    +0.000 N 
ATOM     18  H   UNL     1       4.708   6.320  15.224  0.00  0.00    +0.000 HD
BRANCH  17  19
ATOM     19  C   UNL     1       6.369   5.090  15.077  0.00  0.00    +0.000 C 
BRANCH  19  21
ATOM     20  C   UNL     1       6.453   3.875  12.886  0.00  0.00    +0.000 C 
ATOM     21  C   UNL     1       5.698   4.042  14.194  0.00  0.00    +0.000 C 
ENDBRANCH  19  21
ENDBRANCH  17  19
ENDBRANCH   1  17
TORSDOF 4
ENDMDL
MODEL 3
REMARK VINA RESULT:      -7.4      0.806      1.240
REMARK  Name = 
REMARK  5 active torsions:
REMARK  status: ('A' for Active; 'I' for Inactive)
REMARK    1  A    between atoms: C_1  and  C_2
REMARK    2  A    between atoms: C_2  and  C_3
REMARK    3  A    between atoms: C_3  and  N_4
REMARK    4  A    between atoms: N_4  and  C_5
REMARK    5  A    between atoms: C_9  and  C_10
REMARK                            x       y       z     vdW  Elec       q    Type
REMARK                         _______ _______ _______ _____ _____    ______ ____
ROOT
ATOM      1  C   UNL     1       5.053   6.206  17.518  0.00  0.00    +0.000 A 
ATOM      2  C   UNL     1       3.727   6.535  17.809  0.00  0.00    +0.000 A 
ATOM      3  C   UNL     1       2.914   5.700  18.592  0.00  0.00    +0.000 A 
ATOM      4  C   UNL     1       3.412   4.517  19.147  0.00  0.00    +0.000 A 
ATOM      5  C   UNL     1       2.632   3.585  19.998  0.00  0.00    +0.000 A 
ATOM      6  C   UNL     1       3.258   2.501  20.503  0.00  0.00    +0.000 A 
ATOM      7  C   UNL     1       4.675   2.192  20.238  0.00  0.00    +0.000 A 
ATOM      8  O   UNL     1       5.204   1.198  20.721  0.00  0.00    +0.000 OA
ATOM      9  N   UNL     1       5.343   3.065  19.436  0.00  0.00    +0.000 N 
ATOM     10  C   UNL     1       4.761   4.214  18.886  0.00  0.00    +0.000 A 
ATOM     11  C   UNL     1       5.567   5.044  18.096  0.00  0.00    +0.000 A 
ATOM     12  H   UNL     1       6.315   2.848  19.262  0.00  0.00    +0.000 HD
ENDROOT
BRANCH   5  13
ATOM     13  C   UNL     1       1.185   3.770  20.340  0.00  0.00    +0.000 C 
ATOM     14  F   UNL     1       0.718   3.019  21.366  0.00  0.00    +0.000 F 
ATOM     15  F   UNL     1       0.926   5.063  20.675  0.00  0.00    +0.000 F 
ATOM     16  F   UNL     1       0.391   3.489  19.272  0.00  0.00    +0.000 F 
ENDBRANCH   5  13
BRANCH   1  17
ATOM     17  N   UNL     1       5.834   7.116  16.793  0.00  0.00    +0.000 N 
ATOM     18  H   UNL     1       5.453   7.276  15.862  0.00  0.00    +0.000 HD
BRANCH  17  19
ATOM     19  C   UNL     1       7.279   6.902  16.767  0.00  0.00    +0.000 C 
BRANCH  19  21
ATOM     20  C   UNL     1       8.048   9.036  17.834  0.00  0.00    +0.000 C 
ATOM     21  C   UNL     1       7.915   7.531  18.003  0.00  0.00    +0.000 C 
ENDBRANCH  19  21
ENDBRANCH  17  19
ENDBRANCH   1  17
TORSDOF 4
ENDMDL
MODEL 4
REMARK VINA RESULT:      -7.4      3.856      5.929
REMARK  Name = 
REMARK  5 active torsions:
REMARK  status: ('A' for Active; 'I' for Inactive)
REMARK    1  A    between atoms: C_1  and  C_2
REMARK    2  A    between atoms: C_2  and  C_3
REMARK    3  A    between atoms: C_3  and  N_4
REMARK    4  A    between atoms: N_4  and  C_5
REMARK    5  A    between atoms: C_9  and  C_10
REMARK                            x       y       z     vdW  Elec       q    Type
REMARK                         _______ _______ _______ _____ _____    ______ ____
ROOT
ATOM      1  C   UNL     1       3.267   2.902  19.060  0.00  0.00    +0.000 A 
ATOM      2  C   UNL     1       3.221   2.738  17.674  0.00  0.00    +0.000 A 
ATOM      3  C   UNL     1       4.173   3.331  16.829  0.00  0.00    +0.000 A 
ATOM      4  C   UNL     1       5.233   4.082  17.346  0.00  0.00    +0.000 A 
ATOM      5  C   UNL     1       6.291   4.729  16.531  0.00  0.00    +0.000 A 
ATOM      6  C   UNL     1       7.281   5.387  17.170  0.00  0.00    +0.000 A 
ATOM      7  C   UNL     1       7.353   5.506  18.638  0.00  0.00    +0.000 A 
ATOM      8  O   UNL     1       8.272   6.111  19.177  0.00  0.00    +0.000 OA
ATOM      9  N   UNL     1       6.349   4.914  19.341  0.00  0.00    +0.000 N 
ATOM     10  C   UNL     1       5.298   4.207  18.745  0.00  0.00    +0.000 A 
ATOM     11  C   UNL     1       4.340   3.624  19.585  0.00  0.00    +0.000 A 
ATOM     12  H   UNL     1       6.408   4.997  20.347  0.00  0.00    +0.000 HD
ENDROOT
BRANCH   5  13
ATOM     13  C   UNL     1       6.337   4.697  15.033  0.00  0.00    +0.000 C 
ATOM     14  F   UNL     1       7.443   5.230  14.463  0.00  0.00    +0.000 F 
ATOM     15  F   UNL     1       6.257   3.419  14.572  0.00  0.00    +0.000 F 
ATOM     16  F   UNL     1       5.277   5.360  14.498  0.00  0.00    +0.000 F 
ENDBRANCH   5  13
BRANCH   1  17
ATOM     17  N   UNL     1       2.331   2.226  19.854  0.00  0.00    +0.000 N 
ATOM     18  H   UNL     1       1.659   1.715  19.285  0.00  0.00    +0.000 HD
BRANCH  17  19
ATOM     19  C   UNL     1       1.685   2.974  20.929  0.00  0.00    +0.000 C 
BRANCH  19  21
ATOM     20  C   UNL     1       1.497   5.466  20.719  0.00  0.00    +0.000 C 
ATOM     21  C   UNL     1       0.880   4.129  20.341  0.00  0.00    +0.000 C 
ENDBRANCH  19  21
ENDBRANCH  17  19
ENDBRANCH   1  17
TORSDOF 4
ENDMDL
MODEL 5
REMARK VINA RESULT:      -7.3      2.722      3.467
REMARK  Name = 
REMARK  5 active torsions:
REMARK  status: ('A' for Active; 'I' for Inactive)
REMARK    1  A    between atoms: C_1  and  C_2
REMARK    2  A    between atoms: C_2  and  C_3
REMARK    3  A    between atoms: C_3  and  N_4
REMARK    4  A    between atoms: N_4  and  C_5
REMARK    5  A    between atoms: C_9  and  C_10
REMARK                            x       y       z     vdW  Elec       q    Type
REMARK                         _______ _______ _______ _____ _____    ______ ____
ROOT
ATOM      1  C   UNL     1       4.746   5.336  16.653  0.00  0.00    +0.000 A 
ATOM      2  C   UNL     1       4.306   4.014  16.740  0.00  0.00    +0.000 A 
ATOM      3  C   UNL     1       3.387   3.605  17.720  0.00  0.00    +0.000 A 
ATOM      4  C   UNL     1       2.845   4.517  18.630  0.00  0.00    +0.000 A 
ATOM      5  C   UNL     1       1.859   4.178  19.685  0.00  0.00    +0.000 A 
ATOM      6  C   UNL     1       1.385   5.172  20.466  0.00  0.00    +0.000 A 
ATOM      7  C   UNL     1       1.813   6.577  20.329  0.00  0.00    +0.000 A 
ATOM      8  O   UNL     1       1.355   7.449  21.058  0.00  0.00    +0.000 OA
ATOM      9  N   UNL     1       2.734   6.835  19.361  0.00  0.00    +0.000 N 
ATOM     10  C   UNL     1       3.259   5.856  18.509  0.00  0.00    +0.000 A 
ATOM     11  C   UNL     1       4.184   6.259  17.537  0.00  0.00    +0.000 A 
ATOM     12  H   UNL     1       3.019   7.801  19.271  0.00  0.00    +0.000 HD
ENDROOT
BRANCH   5  13
ATOM     13  C   UNL     1       1.345   2.794  19.943  0.00  0.00    +0.000 C 
ATOM     14  F   UNL     1       2.263   1.800  19.887  0.00  0.00    +0.000 F 
ATOM     15  F   UNL     1       0.777   2.708  21.177  0.00  0.00    +0.000 F 
ATOM     16  F   UNL     1       0.371   2.461  19.054  0.00  0.00    +0.000 F 
ENDBRANCH   5  13
BRANCH   1  17
ATOM     17  N   UNL     1       5.607   5.697  15.608  0.00  0.00    +0.000 N 
ATOM     18  H   UNL     1       5.094   5.879  14.747  0.00  0.00    +0.000 HD
BRANCH  17  19
ATOM     19  C   UNL     1       6.785   4.865  15.380  0.00  0.00    +0.000 C 
BRANCH  19  21
ATOM     20  C   UNL     1       6.026   3.727  13.279  0.00  0.00    +0.000 C 
ATOM     21  C   UNL     1       7.021   4.705  13.881  0.00  0.00    +0.000 C 
ENDBRANCH  19  21
ENDBRANCH  17  19
ENDBRANCH   1  17
TORSDOF 4
ENDMDL
MODEL 6
REMARK VINA RESULT:      -7.1      1.883      2.393
REMARK  Name = 
REMARK  5 active torsions:
REMARK  status: ('A' for Active; 'I' for Inactive)
REMARK    1  A    between atoms: C_1  and  C_2
REMARK    2  A    between atoms: C_2  and  C_3
REMARK    3  A    between atoms: C_3  and  N_4
REMARK    4  A    between atoms: N_4  and  C_5
REMARK    5  A    between atoms: C_9  and  C_10
REMARK                            x       y       z     vdW  Elec       q    Type
REMARK                         _______ _______ _______ _____ _____    ______ ____
ROOT
ATOM      1  C   UNL     1       6.560   6.655  17.377  0.00  0.00    +0.000 A 
ATOM      2  C   UNL     1       5.279   7.013  16.952  0.00  0.00    +0.000 A 
ATOM      3  C   UNL     1       4.154   6.228  17.255  0.00  0.00    +0.000 A 
ATOM      4  C   UNL     1       4.266   5.070  18.031  0.00  0.00    +0.000 A 
ATOM      5  C   UNL     1       3.132   4.193  18.412  0.00  0.00    +0.000 A 
ATOM      6  C   UNL     1       3.382   3.129  19.205  0.00  0.00    +0.000 A 
ATOM      7  C   UNL     1       4.730   2.791  19.697  0.00  0.00    +0.000 A 
ATOM      8  O   UNL     1       4.911   1.817  20.418  0.00  0.00    +0.000 OA
ATOM      9  N   UNL     1       5.740   3.613  19.304  0.00  0.00    +0.000 N 
ATOM     10  C   UNL     1       5.552   4.739  18.492  0.00  0.00    +0.000 A 
ATOM     11  C   UNL     1       6.674   5.517  18.179  0.00  0.00    +0.000 A 
ATOM     12  H   UNL     1       6.661   3.376  19.649  0.00  0.00    +0.000 HD
ENDROOT
BRANCH   5  13
ATOM     13  C   UNL     1       1.715   4.411  17.977  0.00  0.00    +0.000 C 
ATOM     14  F   UNL     1       1.361   5.695  17.732  0.00  0.00    +0.000 F 
ATOM     15  F   UNL     1       1.447   3.726  16.832  0.00  0.00    +0.000 F 
ATOM     16  F   UNL     1       0.840   3.948  18.909  0.00  0.00    +0.000 F 
ENDBRANCH   5  13
BRANCH   1  17
ATOM     17  N   UNL     1       7.631   7.516  17.105  0.00  0.00    +0.000 N 
ATOM     18  H   UNL     1       8.271   7.113  16.424  0.00  0.00    +0.000 HD
BRANCH  17  19
ATOM     19  C   UNL     1       8.336   8.103  18.242  0.00  0.00    +0.000 C 
BRANCH  19  21
ATOM     20  C   UNL     1       9.268  10.246  19.151  0.00  0.00    +0.000 C 
ATOM     21  C   UNL     1       8.360   9.623  18.103  0.00  0.00    +0.000 C 
ENDBRANCH  19  21
ENDBRANCH  17  19
ENDBRANCH   1  17
TORSDOF 4
ENDMDL
MODEL 7
REMARK VINA RESULT:      -7.1      3.801      5.853
REMARK  Name = 
REMARK  5 active torsions:
REMARK  status: ('A' for Active; 'I' for Inactive)
REMARK    1  A    between atoms: C_1  and  C_2
REMARK    2  A    between atoms: C_2  and  C_3
REMARK    3  A    between atoms: C_3  and  N_4
REMARK    4  A    between atoms: N_4  and  C_5
REMARK    5  A    between atoms: C_9  and  C_10
REMARK                            x       y       z     vdW  Elec       q    Type
REMARK                         _______ _______ _______ _____ _____    ______ ____
ROOT
ATOM      1  C   UNL     1       3.311   5.330  19.626  0.00  0.00    +0.000 A 
ATOM      2  C   UNL     1       2.830   5.531  18.331  0.00  0.00    +0.000 A 
ATOM      3  C   UNL     1       3.671   5.448  17.209  0.00  0.00    +0.000 A 
ATOM      4  C   UNL     1       5.024   5.120  17.341  0.00  0.00    +0.000 A 
ATOM      5  C   UNL     1       5.979   4.993  16.213  0.00  0.00    +0.000 A 
ATOM      6  C   UNL     1       7.249   4.625  16.486  0.00  0.00    +0.000 A 
ATOM      7  C   UNL     1       7.735   4.358  17.852  0.00  0.00    +0.000 A 
ATOM      8  O   UNL     1       8.896   4.023  18.054  0.00  0.00    +0.000 OA
ATOM      9  N   UNL     1       6.827   4.507  18.855  0.00  0.00    +0.000 N 
ATOM     10  C   UNL     1       5.492   4.876  18.645  0.00  0.00    +0.000 A 
ATOM     11  C   UNL     1       4.654   4.971  19.763  0.00  0.00    +0.000 A 
ATOM     12  H   UNL     1       7.167   4.318  19.788  0.00  0.00    +0.000 HD
ENDROOT
BRANCH   5  13
ATOM     13  C   UNL     1       5.625   5.244  14.779  0.00  0.00    +0.000 C 
ATOM     14  F   UNL     1       4.820   4.325  14.197  0.00  0.00    +0.000 F 
ATOM     15  F   UNL     1       4.992   6.440  14.637  0.00  0.00    +0.000 F 
ATOM     16  F   UNL     1       6.742   5.313  14.005  0.00  0.00    +0.000 F 
ENDBRANCH   5  13
BRANCH   1  17
ATOM     17  N   UNL     1       2.408   5.355  20.697  0.00  0.00    +0.000 N 
ATOM     18  H   UNL     1       2.657   6.070  21.378  0.00  0.00    +0.000 HD
BRANCH  17  19
ATOM     19  C   UNL     1       2.071   4.084  21.332  0.00  0.00    +0.000 C 
BRANCH  19  21
ATOM     20  C   UNL     1       1.489   2.310  19.659  0.00  0.00    +0.000 C 
ATOM     21  C   UNL     1       0.943   3.405  20.560  0.00  0.00    +0.000 C 
ENDBRANCH  19  21
ENDBRANCH  17  19
ENDBRANCH   1  17
TORSDOF 4
ENDMDL
MODEL 8
REMARK VINA RESULT:      -7.0      2.792      3.599
REMARK  Name = 
REMARK  5 active torsions:
REMARK  status: ('A' for Active; 'I' for Inactive)
REMARK    1  A    between atoms: C_1  and  C_2
REMARK    2  A    between atoms: C_2  and  C_3
REMARK    3  A    between atoms: C_3  and  N_4
REMARK    4  A    between atoms: N_4  and  C_5
REMARK    5  A    between atoms: C_9  and  C_10
REMARK                            x       y       z     vdW  Elec       q    Type
REMARK                         _______ _______ _______ _____ _____    ______ ____
ROOT
ATOM      1  C   UNL     1       4.824   4.942  16.565  0.00  0.00    +0.000 A 
ATOM      2  C   UNL     1       4.380   3.656  16.878  0.00  0.00    +0.000 A 
ATOM      3  C   UNL     1       3.496   3.419  17.943  0.00  0.00    +0.000 A 
ATOM      4  C   UNL     1       2.991   4.470  18.714  0.00  0.00    +0.000 A 
ATOM      5  C   UNL     1       2.042   4.315  19.843  0.00  0.00    +0.000 A 
ATOM      6  C   UNL     1       1.603   5.427  20.470  0.00  0.00    +0.000 A 
ATOM      7  C   UNL     1       2.033   6.786  20.096  0.00  0.00    +0.000 A 
ATOM      8  O   UNL     1       1.606   7.768  20.691  0.00  0.00    +0.000 OA
ATOM      9  N   UNL     1       2.919   6.876  19.067  0.00  0.00    +0.000 N 
ATOM     10  C   UNL     1       3.409   5.768  18.365  0.00  0.00    +0.000 A 
ATOM     11  C   UNL     1       4.299   6.000  17.309  0.00  0.00    +0.000 A 
ATOM     12  H   UNL     1       3.206   7.812  18.814  0.00  0.00    +0.000 HD
ENDROOT
BRANCH   5  13
ATOM     13  C   UNL     1       1.531   2.995  20.337  0.00  0.00    +0.000 C 
ATOM     14  F   UNL     1       0.805   3.031  21.479  0.00  0.00    +0.000 F 
ATOM     15  F   UNL     1       0.735   2.403  19.406  0.00  0.00    +0.000 F 
ATOM     16  F   UNL     1       2.555   2.130  20.565  0.00  0.00    +0.000 F 
ENDBRANCH   5  13
BRANCH   1  17
ATOM     17  N   UNL     1       5.648   5.122  15.446  0.00  0.00    +0.000 N 
ATOM     18  H   UNL     1       5.332   5.899  14.870  0.00  0.00    +0.000 HD
BRANCH  17  19
ATOM     19  C   UNL     1       5.976   3.943  14.647  0.00  0.00    +0.000 C 
BRANCH  19  21
ATOM     20  C   UNL     1       6.313   3.352  12.234  0.00  0.00    +0.000 C 
ATOM     21  C   UNL     1       6.595   4.376  13.321  0.00  0.00    +0.000 C 
ENDBRANCH  19  21
ENDBRANCH  17  19
ENDBRANCH   1  17
TORSDOF 4
ENDMDL
MODEL 9
REMARK VINA RESULT:      -7.0      2.486      3.004
REMARK  Name = 
REMARK  5 active torsions:
REMARK  status: ('A' for Active; 'I' for Inactive)
REMARK    1  A    between atoms: C_1  and  C_2
REMARK    2  A    between atoms: C_2  and  C_3
REMARK    3  A    between atoms: C_3  and  N_4
REMARK    4  A    between atoms: N_4  and  C_5
REMARK    5  A    between atoms: C_9  and  C_10
REMARK                            x       y       z     vdW  Elec       q    Type
REMARK                         _______ _______ _______ _____ _____    ______ ____
ROOT
ATOM      1  C   UNL     1       4.693   4.934  16.755  0.00  0.00    +0.000 A 
ATOM      2  C   UNL     1       4.173   3.649  16.926  0.00  0.00    +0.000 A 
ATOM      3  C   UNL     1       3.235   3.360  17.930  0.00  0.00    +0.000 A 
ATOM      4  C   UNL     1       2.752   4.359  18.781  0.00  0.00    +0.000 A 
ATOM      5  C   UNL     1       1.751   4.148  19.855  0.00  0.00    +0.000 A 
ATOM      6  C   UNL     1       1.342   5.217  20.570  0.00  0.00    +0.000 A 
ATOM      7  C   UNL     1       1.854   6.582  20.345  0.00  0.00    +0.000 A 
ATOM      8  O   UNL     1       1.453   7.524  21.017  0.00  0.00    +0.000 OA
ATOM      9  N   UNL     1       2.785   6.721  19.363  0.00  0.00    +0.000 N 
ATOM     10  C   UNL     1       3.247   5.660  18.575  0.00  0.00    +0.000 A 
ATOM     11  C   UNL     1       4.191   5.943  17.579  0.00  0.00    +0.000 A 
ATOM     12  H   UNL     1       3.128   7.660  19.212  0.00  0.00    +0.000 HD
ENDROOT
BRANCH   5  13
ATOM     13  C   UNL     1       1.155   2.817  20.200  0.00  0.00    +0.000 C 
ATOM     14  F   UNL     1       1.974   1.748  20.065  0.00  0.00    +0.000 F 
ATOM     15  F   UNL     1       0.724   2.798  21.491  0.00  0.00    +0.000 F 
ATOM     16  F   UNL     1       0.063   2.558  19.432  0.00  0.00    +0.000 F 
ENDBRANCH   5  13
BRANCH   1  17
ATOM     17  N   UNL     1       5.570   5.174  15.690  0.00  0.00    +0.000 N 
ATOM     18  H   UNL     1       5.508   4.444  14.983  0.00  0.00    +0.000 HD
BRANCH  17  19
ATOM     19  C   UNL     1       6.954   5.512  16.012  0.00  0.00    +0.000 C 
BRANCH  19  21
ATOM     20  C   UNL     1       7.760   5.389  18.383  0.00  0.00    +0.000 C 
ATOM     21  C   UNL     1       7.462   4.595  17.121  0.00  0.00    +0.000 C 
ENDBRANCH  19  21
ENDBRANCH  17  19
ENDBRANCH   1  17
TORSDOF 4
ENDMDL
