MODEL 1
REMARK VINA RESULT:      -9.3      0.000      0.000
REMARK  Name = 
REMARK  5 active torsions:
REMARK  status: ('A' for Active; 'I' for Inactive)
REMARK    1  A    between atoms: C_1  and  C_2
REMARK    2  A    between atoms: C_2  and  C_4
REMARK    3  A    between atoms: C_12  and  O_14
REMARK    4  A    between atoms: O_14  and  C_15
REMARK    5  A    between atoms: N_22  and  C_23
REMARK                            x       y       z     vdW  Elec       q    Type
REMARK                         _______ _______ _______ _____ _____    ______ ____
ROOT
ATOM      1  C   UNL     1       5.827   3.554  12.622  0.00  0.00    +0.000 A 
ATOM      2  C   UNL     1       7.071   4.120  12.249  0.00  0.00    +0.000 A 
ATOM      3  C   UNL     1       7.783   4.944  13.125  0.00  0.00    +0.000 A 
ATOM      4  C   UNL     1       7.216   5.172  14.358  0.00  0.00    +0.000 A 
ATOM      5  N   UNL     1       7.702   5.948  15.394  0.00  0.00    +0.000 N 
ATOM      6  C   UNL     1       6.797   5.913  16.478  0.00  0.00    +0.000 A 
ATOM      7  O   UNL     1       6.978   6.506  17.529  0.00  0.00    +0.000 OA
ATOM      8  N   UNL     1       5.715   5.068  16.066  0.00  0.00    +0.000 N 
ATOM      9  C   UNL     1       4.587   4.733  16.799  0.00  0.00    +0.000 C 
ATOM     10  O   UNL     1       3.706   3.984  16.382  0.00  0.00    +0.000 OA
ATOM     11  C   UNL     1       5.994   4.623  14.749  0.00  0.00    +0.000 A 
ATOM     12  C   UNL     1       5.285   3.804  13.893  0.00  0.00    +0.000 A 
ATOM     13  H   UNL     1       8.561   6.486  15.408  0.00  0.00    +0.000 HD
ENDROOT
BRANCH   1  15
ATOM     14  C   UNL     1       3.825   3.187  11.024  0.00  0.00    +0.000 C 
ATOM     15  C   UNL     1       5.118   2.697  11.624  0.00  0.00    +0.000 C 
ATOM     16  O   UNL     1       5.596   1.609  11.303  0.00  0.00    +0.000 OA
ENDBRANCH   1  15
BRANCH   9  17
ATOM     17  O   UNL     1       4.541   5.316  18.039  0.00  0.00    +0.000 OA
BRANCH  17  18
ATOM     18  C   UNL     1       3.754   4.614  19.021  0.00  0.00    +0.000 C 
ATOM     19  C   UNL     1       2.262   4.995  18.910  0.00  0.00    +0.000 C 
ATOM     20  C   UNL     1       1.355   3.992  19.663  0.00  0.00    +0.000 C 
ATOM     21  C   UNL     1       0.874   2.817  18.786  0.00  0.00    +0.000 C 
ATOM     22  C   UNL     1       1.834   1.666  19.095  0.00  0.00    +0.000 C 
ATOM     23  C   UNL     1       2.954   2.355  19.866  0.00  0.00    +0.000 C 
ATOM     24  C   UNL     1       3.894   3.094  18.862  0.00  0.00    +0.000 C 
ATOM     25  N   UNL     1       2.221   3.361  20.672  0.00  0.00    +0.000 NA
ATOM     26  C   UNL     1       1.478   2.823  21.806  0.00  0.00    +0.000 C 
ENDBRANCH  17  18
ENDBRANCH   9  17
TORSDOF 3
ENDMDL
MODEL 2
REMARK VINA RESULT:      -8.8      5.371      8.744
REMARK  Name = 
REMARK  5 active torsions:
REMARK  status: ('A' for Active; 'I' for Inactive)
REMARK    1  A    between atoms: C_1  and  C_2
REMARK    2  A    between atoms: C_2  and  C_4
REMARK    3  A    between atoms: C_12  and  O_14
REMARK    4  A    between atoms: O_14  and  C_15
REMARK    5  A    between atoms: N_22  and  C_23
REMARK                            x       y       z     vdW  Elec       q    Type
REMARK                         _______ _______ _______ _____ _____    ______ ____
ROOT
ATOM      1  C   UNL     1      -0.813  11.353  21.215  0.00  0.00    +0.000 A 
ATOM      2  C   UNL     1      -0.961  12.254  20.132  0.00  0.00    +0.000 A 
ATOM      3  C   UNL     1      -0.328  12.024  18.908  0.00  0.00    +0.000 A 
ATOM      4  C   UNL     1       0.439  10.885  18.812  0.00  0.00    +0.000 A 
ATOM      5  N   UNL     1       1.171  10.434  17.729  0.00  0.00    +0.000 N 
ATOM      6  C   UNL     1       1.817   9.223  18.065  0.00  0.00    +0.000 A 
ATOM      7  O   UNL     1       2.527   8.600  17.293  0.00  0.00    +0.000 OA
ATOM      8  N   UNL     1       1.447   8.938  19.420  0.00  0.00    +0.000 N 
ATOM      9  C   UNL     1       1.839   7.849  20.184  0.00  0.00    +0.000 C 
ATOM     10  O   UNL     1       1.465   7.662  21.339  0.00  0.00    +0.000 OA
ATOM     11  C   UNL     1       0.597   9.982  19.863  0.00  0.00    +0.000 A 
ATOM     12  C   UNL     1      -0.029  10.196  21.076  0.00  0.00    +0.000 A 
ATOM     13  H   UNL     1       1.266  10.879  16.824  0.00  0.00    +0.000 HD
ENDROOT
BRANCH   1  15
ATOM     14  C   UNL     1      -2.640  12.672  22.487  0.00  0.00    +0.000 C 
ATOM     15  C   UNL     1      -1.508  11.676  22.497  0.00  0.00    +0.000 C 
ATOM     16  O   UNL     1      -1.153  11.128  23.541  0.00  0.00    +0.000 OA
ENDBRANCH   1  15
BRANCH   9  17
ATOM     17  O   UNL     1       2.688   6.993  19.531  0.00  0.00    +0.000 OA
BRANCH  17  18
ATOM     18  C   UNL     1       2.212   5.641  19.391  0.00  0.00    +0.000 C 
ATOM     19  C   UNL     1       2.256   5.188  17.915  0.00  0.00    +0.000 C 
ATOM     20  C   UNL     1       2.131   3.651  17.781  0.00  0.00    +0.000 C 
ATOM     21  C   UNL     1       3.488   2.919  17.798  0.00  0.00    +0.000 C 
ATOM     22  C   UNL     1       3.670   2.442  19.241  0.00  0.00    +0.000 C 
ATOM     23  C   UNL     1       2.578   3.199  19.989  0.00  0.00    +0.000 C 
ATOM     24  C   UNL     1       3.045   4.667  20.236  0.00  0.00    +0.000 C 
ATOM     25  N   UNL     1       1.461   3.203  19.013  0.00  0.00    +0.000 NA
ATOM     26  C   UNL     1       0.771   1.928  18.857  0.00  0.00    +0.000 C 
ENDBRANCH  17  18
ENDBRANCH   9  17
TORSDOF 3
ENDMDL
MODEL 3
REMARK VINA RESULT:      -8.6      1.053      1.278
REMARK  Name = 
REMARK  5 active torsions:
REMARK  status: ('A' for Active; 'I' for Inactive)
REMARK    1  A    between atoms: C_1  and  C_2
REMARK    2  A    between atoms: C_2  and  C_4
REMARK    3  A    between atoms: C_12  and  O_14
REMARK    4  A    between atoms: O_14  and  C_15
REMARK    5  A    between atoms: N_22  and  C_23
REMARK                            x       y       z     vdW  Elec       q    Type
REMARK                         _______ _______ _______ _____ _____    ______ ____
ROOT
ATOM      1  C   UNL     1       5.930   3.416  12.469  0.00  0.00    +0.000 A 
ATOM      2  C   UNL     1       6.916   4.266  11.912  0.00  0.00    +0.000 A 
ATOM      3  C   UNL     1       7.672   5.124  12.716  0.00  0.00    +0.000 A 
ATOM      4  C   UNL     1       7.409   5.095  14.067  0.00  0.00    +0.000 A 
ATOM      5  N   UNL     1       7.999   5.842  15.070  0.00  0.00    +0.000 N 
ATOM      6  C   UNL     1       7.424   5.503  16.315  0.00  0.00    +0.000 A 
ATOM      7  O   UNL     1       7.760   6.006  17.374  0.00  0.00    +0.000 OA
ATOM      8  N   UNL     1       6.440   4.498  16.037  0.00  0.00    +0.000 N 
ATOM      9  C   UNL     1       5.615   3.859  16.950  0.00  0.00    +0.000 C 
ATOM     10  O   UNL     1       4.803   2.991  16.637  0.00  0.00    +0.000 OA
ATOM     11  C   UNL     1       6.445   4.265  14.639  0.00  0.00    +0.000 A 
ATOM     12  C   UNL     1       5.696   3.410  13.854  0.00  0.00    +0.000 A 
ATOM     13  H   UNL     1       8.724   6.543  14.969  0.00  0.00    +0.000 HD
ENDROOT
BRANCH   1  15
ATOM     14  C   UNL     1       3.842   3.041  10.986  0.00  0.00    +0.000 C 
ATOM     15  C   UNL     1       5.152   2.541  11.541  0.00  0.00    +0.000 C 
ATOM     16  O   UNL     1       5.587   1.430  11.239  0.00  0.00    +0.000 OA
ENDBRANCH   1  15
BRANCH   9  17
ATOM     17  O   UNL     1       5.786   4.284  18.242  0.00  0.00    +0.000 OA
BRANCH  17  18
ATOM     18  C   UNL     1       4.579   4.664  18.930  0.00  0.00    +0.000 C 
ATOM     19  C   UNL     1       3.569   5.314  17.959  0.00  0.00    +0.000 C 
ATOM     20  C   UNL     1       2.146   5.373  18.563  0.00  0.00    +0.000 C 
ATOM     21  C   UNL     1       1.289   4.130  18.245  0.00  0.00    +0.000 C 
ATOM     22  C   UNL     1       1.412   3.230  19.476  0.00  0.00    +0.000 C 
ATOM     23  C   UNL     1       2.559   3.870  20.251  0.00  0.00    +0.000 C 
ATOM     24  C   UNL     1       3.916   3.454  19.602  0.00  0.00    +0.000 C 
ATOM     25  N   UNL     1       2.336   5.318  20.022  0.00  0.00    +0.000 NA
ATOM     26  C   UNL     1       1.223   5.898  20.765  0.00  0.00    +0.000 C 
ENDBRANCH  17  18
ENDBRANCH   9  17
TORSDOF 3
ENDMDL
MODEL 4
REMARK VINA RESULT:      -8.4      5.101      7.176
REMARK  Name = 
REMARK  5 active torsions:
REMARK  status: ('A' for Active; 'I' for Inactive)
REMARK    1  A    between atoms: C_1  and  C_2
REMARK    2  A    between atoms: C_2  and  C_4
REMARK    3  A    between atoms: C_12  and  O_14
REMARK    4  A    between atoms: O_14  and  C_15
REMARK    5  A    between atoms: N_22  and  C_23
REMARK                            x       y       z     vdW  Elec       q    Type
REMARK                         _______ _______ _______ _____ _____    ______ ____
ROOT
ATOM      1  C   UNL     1       5.510   5.473  17.187  0.00  0.00    +0.000 A 
ATOM      2  C   UNL     1       5.684   4.371  18.059  0.00  0.00    +0.000 A 
ATOM      3  C   UNL     1       4.862   4.194  19.175  0.00  0.00    +0.000 A 
ATOM      4  C   UNL     1       3.882   5.139  19.378  0.00  0.00    +0.000 A 
ATOM      5  N   UNL     1       2.954   5.204  20.399  0.00  0.00    +0.000 N 
ATOM      6  C   UNL     1       2.139   6.346  20.229  0.00  0.00    +0.000 A 
ATOM      7  O   UNL     1       1.230   6.647  20.984  0.00  0.00    +0.000 OA
ATOM      8  N   UNL     1       2.608   6.993  19.039  0.00  0.00    +0.000 N 
ATOM      9  C   UNL     1       2.114   8.157  18.468  0.00  0.00    +0.000 C 
ATOM     10  O   UNL     1       2.560   8.645  17.432  0.00  0.00    +0.000 OA
ATOM     11  C   UNL     1       3.690   6.231  18.531  0.00  0.00    +0.000 A 
ATOM     12  C   UNL     1       4.493   6.413  17.423  0.00  0.00    +0.000 A 
ATOM     13  H   UNL     1       2.848   4.562  21.176  0.00  0.00    +0.000 HD
ENDROOT
BRANCH   1  15
ATOM     14  C   UNL     1       6.108   4.892  14.737  0.00  0.00    +0.000 C 
ATOM     15  C   UNL     1       6.440   5.602  16.025  0.00  0.00    +0.000 C 
ATOM     16  O   UNL     1       7.458   6.286  16.130  0.00  0.00    +0.000 OA
ENDBRANCH   1  15
BRANCH   9  17
ATOM     17  O   UNL     1       1.079   8.720  19.169  0.00  0.00    +0.000 OA
BRANCH  17  18
ATOM     18  C   UNL     1       0.990  10.156  19.088  0.00  0.00    +0.000 C 
ATOM     19  C   UNL     1      -0.292  10.590  18.345  0.00  0.00    +0.000 C 
ATOM     20  C   UNL     1      -0.615  12.085  18.580  0.00  0.00    +0.000 C 
ATOM     21  C   UNL     1      -1.523  12.336  19.801  0.00  0.00    +0.000 C 
ATOM     22  C   UNL     1      -0.572  12.707  20.940  0.00  0.00    +0.000 C 
ATOM     23  C   UNL     1       0.796  12.337  20.376  0.00  0.00    +0.000 C 
ATOM     24  C   UNL     1       0.997  10.793  20.484  0.00  0.00    +0.000 C 
ATOM     25  N   UNL     1       0.667  12.710  18.946  0.00  0.00    +0.000 NA
ATOM     26  C   UNL     1       0.702  14.142  18.675  0.00  0.00    +0.000 C 
ENDBRANCH  17  18
ENDBRANCH   9  17
TORSDOF 3
ENDMDL
MODEL 5
REMARK VINA RESULT:      -8.3      6.079      8.172
REMARK  Name = 
REMARK  5 active torsions:
REMARK  status: ('A' for Active; 'I' for Inactive)
REMARK    1  A    between atoms: C_1  and  C_2
REMARK    2  A    between atoms: C_2  and  C_4
REMARK    3  A    between atoms: C_12  and  O_14
REMARK    4  A    between atoms: O_14  and  C_15
REMARK    5  A    between atoms: N_22  and  C_23
REMARK                            x       y       z     vdW  Elec       q    Type
REMARK                         _______ _______ _______ _____ _____    ______ ____
ROOT
ATOM      1  C   UNL     1       4.391   5.996  17.327  0.00  0.00    +0.000 A 
ATOM      2  C   UNL     1       4.477   4.975  18.305  0.00  0.00    +0.000 A 
ATOM      3  C   UNL     1       3.746   5.049  19.495  0.00  0.00    +0.000 A 
ATOM      4  C   UNL     1       2.946   6.157  19.660  0.00  0.00    +0.000 A 
ATOM      5  N   UNL     1       2.139   6.477  20.736  0.00  0.00    +0.000 N 
ATOM      6  C   UNL     1       1.497   7.712  20.497  0.00  0.00    +0.000 A 
ATOM      7  O   UNL     1       0.720   8.233  21.280  0.00  0.00    +0.000 OA
ATOM      8  N   UNL     1       1.944   8.149  19.207  0.00  0.00    +0.000 N 
ATOM      9  C   UNL     1       1.583   9.313  18.545  0.00  0.00    +0.000 C 
ATOM     10  O   UNL     1       1.998   9.613  17.428  0.00  0.00    +0.000 OA
ATOM     11  C   UNL     1       2.844   7.173  18.710  0.00  0.00    +0.000 A 
ATOM     12  C   UNL     1       3.557   7.107  17.529  0.00  0.00    +0.000 A 
ATOM     13  H   UNL     1       2.011   5.943  21.588  0.00  0.00    +0.000 HD
ENDROOT
BRANCH   1  15
ATOM     14  C   UNL     1       5.945   4.556  15.840  0.00  0.00    +0.000 C 
ATOM     15  C   UNL     1       5.216   5.852  16.089  0.00  0.00    +0.000 C 
ATOM     16  O   UNL     1       5.289   6.786  15.291  0.00  0.00    +0.000 OA
ENDBRANCH   1  15
BRANCH   9  17
ATOM     17  O   UNL     1       0.718  10.106  19.253  0.00  0.00    +0.000 OA
BRANCH  17  18
ATOM     18  C   UNL     1       0.979  11.521  19.181  0.00  0.00    +0.000 C 
ATOM     19  C   UNL     1      -0.217  12.274  18.558  0.00  0.00    +0.000 C 
ATOM     20  C   UNL     1      -0.137  13.796  18.821  0.00  0.00    +0.000 C 
ATOM     21  C   UNL     1      -0.844  14.235  20.120  0.00  0.00    +0.000 C 
ATOM     22  C   UNL     1       0.266  14.336  21.168  0.00  0.00    +0.000 C 
ATOM     23  C   UNL     1       1.445  13.653  20.481  0.00  0.00    +0.000 C 
ATOM     24  C   UNL     1       1.267  12.105  20.570  0.00  0.00    +0.000 C 
ATOM     25  N   UNL     1       1.286  14.078  19.069  0.00  0.00    +0.000 NA
ATOM     26  C   UNL     1       1.650  15.464  18.796  0.00  0.00    +0.000 C 
ENDBRANCH  17  18
ENDBRANCH   9  17
TORSDOF 3
ENDMDL
MODEL 6
REMARK VINA RESULT:      -8.1      5.638      8.994
REMARK  Name = 
REMARK  5 active torsions:
REMARK  status: ('A' for Active; 'I' for Inactive)
REMARK    1  A    between atoms: C_1  and  C_2
REMARK    2  A    between atoms: C_2  and  C_4
REMARK    3  A    between atoms: C_12  and  O_14
REMARK    4  A    between atoms: O_14  and  C_15
REMARK    5  A    between atoms: N_22  and  C_23
REMARK                            x       y       z     vdW  Elec       q    Type
REMARK                         _______ _______ _______ _____ _____    ______ ____
ROOT
ATOM      1  C   UNL     1      -0.973  11.674  21.396  0.00  0.00    +0.000 A 
ATOM      2  C   UNL     1      -1.223  12.493  20.268  0.00  0.00    +0.000 A 
ATOM      3  C   UNL     1      -0.685  12.185  19.015  0.00  0.00    +0.000 A 
ATOM      4  C   UNL     1       0.092  11.051  18.939  0.00  0.00    +0.000 A 
ATOM      5  N   UNL     1       0.743  10.533  17.835  0.00  0.00    +0.000 N 
ATOM      6  C   UNL     1       1.436   9.357  18.202  0.00  0.00    +0.000 A 
ATOM      7  O   UNL     1       2.094   8.688  17.422  0.00  0.00    +0.000 OA
ATOM      8  N   UNL     1       1.180   9.165  19.599  0.00  0.00    +0.000 N 
ATOM      9  C   UNL     1       1.651   8.138  20.404  0.00  0.00    +0.000 C 
ATOM     10  O   UNL     1       1.373   8.030  21.596  0.00  0.00    +0.000 OA
ATOM     11  C   UNL     1       0.349  10.227  20.035  0.00  0.00    +0.000 A 
ATOM     12  C   UNL     1      -0.182  10.520  21.276  0.00  0.00    +0.000 A 
ATOM     13  H   UNL     1       0.759  10.913  16.896  0.00  0.00    +0.000 HD
ENDROOT
BRANCH   1  15
ATOM     14  C   UNL     1      -1.501  13.526  23.124  0.00  0.00    +0.000 C 
ATOM     15  C   UNL     1      -1.570  12.080  22.704  0.00  0.00    +0.000 C 
ATOM     16  O   UNL     1      -2.111  11.236  23.418  0.00  0.00    +0.000 OA
ENDBRANCH   1  15
BRANCH   9  17
ATOM     17  O   UNL     1       2.461   7.249  19.747  0.00  0.00    +0.000 OA
BRANCH  17  18
ATOM     18  C   UNL     1       2.432   5.900  20.253  0.00  0.00    +0.000 C 
ATOM     19  C   UNL     1       1.005   5.315  20.189  0.00  0.00    +0.000 C 
ATOM     20  C   UNL     1       1.006   3.775  20.348  0.00  0.00    +0.000 C 
ATOM     21  C   UNL     1       1.120   3.017  19.010  0.00  0.00    +0.000 C 
ATOM     22  C   UNL     1       2.604   2.669  18.870  0.00  0.00    +0.000 C 
ATOM     23  C   UNL     1       3.256   3.514  19.959  0.00  0.00    +0.000 C 
ATOM     24  C   UNL     1       3.381   4.988  19.462  0.00  0.00    +0.000 C 
ATOM     25  N   UNL     1       2.258   3.456  21.054  0.00  0.00    +0.000 NA
ATOM     26  C   UNL     1       2.200   2.187  21.771  0.00  0.00    +0.000 C 
ENDBRANCH  17  18
ENDBRANCH   9  17
TORSDOF 3
ENDMDL
MODEL 7
REMARK VINA RESULT:      -8.0      4.866      8.375
REMARK  Name = 
REMARK  5 active torsions:
REMARK  status: ('A' for Active; 'I' for Inactive)
REMARK    1  A    between atoms: C_1  and  C_2
REMARK    2  A    between atoms: C_2  and  C_4
REMARK    3  A    between atoms: C_12  and  O_14
REMARK    4  A    between atoms: O_14  and  C_15
REMARK    5  A    between atoms: N_22  and  C_23
REMARK                            x       y       z     vdW  Elec       q    Type
REMARK                         _______ _______ _______ _____ _____    ______ ____
ROOT
ATOM      1  C   UNL     1      -0.237  10.435  21.579  0.00  0.00    +0.000 A 
ATOM      2  C   UNL     1      -0.520  11.546  20.748  0.00  0.00    +0.000 A 
ATOM      3  C   UNL     1      -0.018  11.622  19.446  0.00  0.00    +0.000 A 
ATOM      4  C   UNL     1       0.757  10.568  19.019  0.00  0.00    +0.000 A 
ATOM      5  N   UNL     1       1.377  10.401  17.795  0.00  0.00    +0.000 N 
ATOM      6  C   UNL     1       2.081   9.176  17.782  0.00  0.00    +0.000 A 
ATOM      7  O   UNL     1       2.716   8.771  16.822  0.00  0.00    +0.000 OA
ATOM      8  N   UNL     1       1.866   8.581  19.068  0.00  0.00    +0.000 N 
ATOM      9  C   UNL     1       2.361   7.369  19.524  0.00  0.00    +0.000 C 
ATOM     10  O   UNL     1       2.118   6.914  20.640  0.00  0.00    +0.000 OA
ATOM     11  C   UNL     1       1.047   9.462  19.819  0.00  0.00    +0.000 A 
ATOM     12  C   UNL     1       0.552   9.374  21.105  0.00  0.00    +0.000 A 
ATOM     13  H   UNL     1       1.365  11.039  17.008  0.00  0.00    +0.000 HD
ENDROOT
BRANCH   1  15
ATOM     14  C   UNL     1      -1.958  11.339  23.287  0.00  0.00    +0.000 C 
ATOM     15  C   UNL     1      -0.795  10.435  22.965  0.00  0.00    +0.000 C 
ATOM     16  O   UNL     1      -0.305   9.699  23.822  0.00  0.00    +0.000 OA
ENDBRANCH   1  15
BRANCH   9  17
ATOM     17  O   UNL     1       3.152   6.718  18.613  0.00  0.00    +0.000 OA
BRANCH  17  18
ATOM     18  C   UNL     1       3.095   5.279  18.664  0.00  0.00    +0.000 C 
ATOM     19  C   UNL     1       3.264   4.769  20.112  0.00  0.00    +0.000 C 
ATOM     20  C   UNL     1       2.823   3.293  20.257  0.00  0.00    +0.000 C 
ATOM     21  C   UNL     1       1.335   3.128  20.627  0.00  0.00    +0.000 C 
ATOM     22  C   UNL     1       0.618   2.862  19.301  0.00  0.00    +0.000 C 
ATOM     23  C   UNL     1       1.683   3.205  18.265  0.00  0.00    +0.000 C 
ATOM     24  C   UNL     1       1.765   4.755  18.104  0.00  0.00    +0.000 C 
ATOM     25  N   UNL     1       2.928   2.718  18.906  0.00  0.00    +0.000 NA
ATOM     26  C   UNL     1       3.093   1.268  18.914  0.00  0.00    +0.000 C 
ENDBRANCH  17  18
ENDBRANCH   9  17
TORSDOF 3
ENDMDL
MODEL 8
REMARK VINA RESULT:      -7.8      8.001     10.153
REMARK  Name = 
REMARK  5 active torsions:
REMARK  status: ('A' for Active; 'I' for Inactive)
REMARK    1  A    between atoms: C_1  and  C_2
REMARK    2  A    between atoms: C_2  and  C_4
REMARK    3  A    between atoms: C_12  and  O_14
REMARK    4  A    between atoms: O_14  and  C_15
REMARK    5  A    between atoms: N_22  and  C_23
REMARK                            x       y       z     vdW  Elec       q    Type
REMARK                         _______ _______ _______ _____ _____    ______ ____
ROOT
ATOM      1  C   UNL     1       2.043   7.382  19.549  0.00  0.00    +0.000 A 
ATOM      2  C   UNL     1       2.289   7.641  18.178  0.00  0.00    +0.000 A 
ATOM      3  C   UNL     1       2.039   8.899  17.623  0.00  0.00    +0.000 A 
ATOM      4  C   UNL     1       1.546   9.863  18.473  0.00  0.00    +0.000 A 
ATOM      5  N   UNL     1       1.208  11.171  18.180  0.00  0.00    +0.000 N 
ATOM      6  C   UNL     1       0.734  11.811  19.347  0.00  0.00    +0.000 A 
ATOM      7  O   UNL     1       0.370  12.975  19.379  0.00  0.00    +0.000 OA
ATOM      8  N   UNL     1       0.797  10.831  20.391  0.00  0.00    +0.000 N 
ATOM      9  C   UNL     1       0.434  10.997  21.719  0.00  0.00    +0.000 C 
ATOM     10  O   UNL     1       0.533  10.111  22.564  0.00  0.00    +0.000 OA
ATOM     11  C   UNL     1       1.299   9.632  19.827  0.00  0.00    +0.000 A 
ATOM     12  C   UNL     1       1.548   8.394  20.386  0.00  0.00    +0.000 A 
ATOM     13  H   UNL     1       1.262  11.633  17.280  0.00  0.00    +0.000 HD
ENDROOT
BRANCH   1  15
ATOM     14  C   UNL     1       3.602   5.319  19.667  0.00  0.00    +0.000 C 
ATOM     15  C   UNL     1       2.320   6.007  20.063  0.00  0.00    +0.000 C 
ATOM     16  O   UNL     1       1.505   5.455  20.803  0.00  0.00    +0.000 OA
ENDBRANCH   1  15
BRANCH   9  17
ATOM     17  O   UNL     1      -0.049  12.247  22.008  0.00  0.00    +0.000 OA
BRANCH  17  18
ATOM     18  C   UNL     1      -1.353  12.277  22.620  0.00  0.00    +0.000 C 
ATOM     19  C   UNL     1      -1.468  13.446  23.623  0.00  0.00    +0.000 C 
ATOM     20  C   UNL     1      -2.940  13.742  23.995  0.00  0.00    +0.000 C 
ATOM     21  C   UNL     1      -3.612  14.781  23.073  0.00  0.00    +0.000 C 
ATOM     22  C   UNL     1      -4.388  13.961  22.041  0.00  0.00    +0.000 C 
ATOM     23  C   UNL     1      -3.853  12.549  22.257  0.00  0.00    +0.000 C 
ATOM     24  C   UNL     1      -2.460  12.414  21.566  0.00  0.00    +0.000 C 
ATOM     25  N   UNL     1      -3.671  12.493  23.727  0.00  0.00    +0.000 NA
ATOM     26  C   UNL     1      -4.904  12.376  24.499  0.00  0.00    +0.000 C 
ENDBRANCH  17  18
ENDBRANCH   9  17
TORSDOF 3
ENDMDL
MODEL 9
REMARK VINA RESULT:      -7.8      5.134      8.782
REMARK  Name = 
REMARK  5 active torsions:
REMARK  status: ('A' for Active; 'I' for Inactive)
REMARK    1  A    between atoms: C_1  and  C_2
REMARK    2  A    between atoms: C_2  and  C_4
REMARK    3  A    between atoms: C_12  and  O_14
REMARK    4  A    between atoms: O_14  and  C_15
REMARK    5  A    between atoms: N_22  and  C_23
REMARK                            x       y       z     vdW  Elec       q    Type
REMARK                         _______ _______ _______ _____ _____    ______ ____
ROOT
ATOM      1  C   UNL     1       0.532  12.097  19.723  0.00  0.00    +0.000 A 
ATOM      2  C   UNL     1       0.103  12.028  21.071  0.00  0.00    +0.000 A 
ATOM      3  C   UNL     1       0.174  10.834  21.794  0.00  0.00    +0.000 A 
ATOM      4  C   UNL     1       0.680   9.740  21.131  0.00  0.00    +0.000 A 
ATOM      5  N   UNL     1       0.847   8.452  21.606  0.00  0.00    +0.000 N 
ATOM      6  C   UNL     1       1.393   7.638  20.589  0.00  0.00    +0.000 A 
ATOM      7  O   UNL     1       1.650   6.454  20.735  0.00  0.00    +0.000 OA
ATOM      8  N   UNL     1       1.564   8.488  19.448  0.00  0.00    +0.000 N 
ATOM      9  C   UNL     1       2.070   8.134  18.207  0.00  0.00    +0.000 C 
ATOM     10  O   UNL     1       2.203   8.927  17.277  0.00  0.00    +0.000 OA
ATOM     11  C   UNL     1       1.112   9.784  19.805  0.00  0.00    +0.000 A 
ATOM     12  C   UNL     1       1.051  10.960  19.083  0.00  0.00    +0.000 A 
ATOM     13  H   UNL     1       0.613   8.102  22.528  0.00  0.00    +0.000 HD
ENDROOT
BRANCH   1  15
ATOM     14  C   UNL     1       1.415  14.492  19.295  0.00  0.00    +0.000 C 
ATOM     15  C   UNL     1       0.408  13.406  19.013  0.00  0.00    +0.000 C 
ATOM     16  O   UNL     1      -0.507  13.580  18.208  0.00  0.00    +0.000 OA
ENDBRANCH   1  15
BRANCH   9  17
ATOM     17  O   UNL     1       2.412   6.810  18.107  0.00  0.00    +0.000 OA
BRANCH  17  18
ATOM     18  C   UNL     1       3.823   6.531  18.185  0.00  0.00    +0.000 C 
ATOM     19  C   UNL     1       4.077   5.033  18.463  0.00  0.00    +0.000 C 
ATOM     20  C   UNL     1       5.542   4.633  18.168  0.00  0.00    +0.000 C 
ATOM     21  C   UNL     1       5.771   4.158  16.718  0.00  0.00    +0.000 C 
ATOM     22  C   UNL     1       6.307   5.382  15.973  0.00  0.00    +0.000 C 
ATOM     23  C   UNL     1       6.047   6.519  16.956  0.00  0.00    +0.000 C 
ATOM     24  C   UNL     1       4.542   6.925  16.887  0.00  0.00    +0.000 C 
ATOM     25  N   UNL     1       6.317   5.881  18.267  0.00  0.00    +0.000 NA
ATOM     26  C   UNL     1       7.727   5.656  18.566  0.00  0.00    +0.000 C 
ENDBRANCH  17  18
ENDBRANCH   9  17
TORSDOF 3
ENDMDL
