MODEL 1
REMARK VINA RESULT:      -7.2      0.000      0.000
REMARK  Name = 
REMARK  12 active torsions:
REMARK  status: ('A' for Active; 'I' for Inactive)
REMARK    1  A    between atoms: C_1  and  C_2
REMARK    2  A    between atoms: C_2  and  C_3
REMARK    3  A    between atoms: C_4  and  C_5
REMARK    4  A    between atoms: C_5  and  N_6
REMARK    5  A    between atoms: N_9  and  C_10
REMARK    6  A    between atoms: C_10  and  C_11
REMARK    7  A    between atoms: C_17  and  N_18
REMARK    8  A    between atoms: C_20  and  C_21
REMARK    9  A    between atoms: C_23  and  C_24
REMARK   10  A    between atoms: C_26  and  C_27
REMARK   11  A    between atoms: C_27  and  C_28
REMARK   12  A    between atoms: C_28  and  O_29
REMARK                            x       y       z     vdW  Elec       q    Type
REMARK                         _______ _______ _______ _____ _____    ______ ____
ROOT
ATOM      1  N   UNL     1       2.082   6.140  19.476  0.00  0.00    +0.000 NA
ATOM      2  C   UNL     1       2.281   6.518  18.049  0.00  0.00    +0.000 C 
ATOM      3  C   UNL     1       3.760   6.667  17.561  0.00  0.00    +0.000 C 
ATOM      4  N   UNL     1       4.706   5.593  17.991  0.00  0.00    +0.000 NA
ATOM      5  C   UNL     1       4.426   5.333  19.403  0.00  0.00    +0.000 C 
ATOM      6  C   UNL     1       2.968   4.994  19.796  0.00  0.00    +0.000 C 
ENDROOT
BRANCH   1   7
ATOM      7  C   UNL     1       2.324   7.308  20.353  0.00  0.00    +0.000 C 
BRANCH   7  11
ATOM      8  C   UNL     1      -0.690   8.945  22.259  0.00  0.00    +0.000 C 
ATOM      9  C   UNL     1       0.522   8.824  21.372  0.00  0.00    +0.000 C 
ATOM     10  C   UNL     1       0.900  10.057  20.595  0.00  0.00    +0.000 C 
ATOM     11  C   UNL     1       1.167   7.642  21.266  0.00  0.00    +0.000 C 
ENDBRANCH   7  11
ENDBRANCH   1   7
BRANCH   4  12
ATOM     12  C   UNL     1       4.710   4.502  16.984  0.00  0.00    +0.000 C 
BRANCH  12  13
ATOM     13  C   UNL     1       5.576   4.507  15.715  0.00  0.00    +0.000 A 
ATOM     14  C   UNL     1       5.168   3.894  14.515  0.00  0.00    +0.000 A 
ATOM     15  C   UNL     1       5.912   3.937  13.343  0.00  0.00    +0.000 A 
ATOM     16  F   UNL     1       5.428   3.354  12.236  0.00  0.00    +0.000 F 
ATOM     17  C   UNL     1       7.136   4.557  13.304  0.00  0.00    +0.000 A 
ATOM     18  C   UNL     1       7.582   5.200  14.457  0.00  0.00    +0.000 A 
ATOM     19  C   UNL     1       6.797   5.245  15.635  0.00  0.00    +0.000 A 
BRANCH  19  20
ATOM     20  N   UNL     1       7.266   6.088  16.698  0.00  0.00    +0.000 N 
ATOM     21  N   UNL     1       7.291   7.435  16.560  0.00  0.00    +0.000 NA
ATOM     22  C   UNL     1       7.763   7.917  17.709  0.00  0.00    +0.000 A 
ATOM     23  C   UNL     1       7.949   9.376  17.892  0.00  0.00    +0.000 C 
ATOM     24  C   UNL     1       8.072   6.886  18.609  0.00  0.00    +0.000 A 
ATOM     25  C   UNL     1       7.784   5.713  17.940  0.00  0.00    +0.000 A 
ATOM     26  C   UNL     1       8.098   4.327  18.370  0.00  0.00    +0.000 C 
ENDBRANCH  19  20
ENDBRANCH  12  13
ENDBRANCH   4  12
BRANCH   6  27
ATOM     27  C   UNL     1       2.441   3.677  19.182  0.00  0.00    +0.000 C 
BRANCH  27  28
ATOM     28  C   UNL     1       0.979   3.386  19.503  0.00  0.00    +0.000 C 
BRANCH  28  29
ATOM     29  O   UNL     1       0.706   3.776  20.848  0.00  0.00    +0.000 OA
ATOM     30  H   UNL     1      -0.135   3.357  21.102  0.00  0.00    +0.000 HD
ENDBRANCH  28  29
ENDBRANCH  27  28
ENDBRANCH   6  27
TORSDOF 8
ENDMDL
MODEL 2
REMARK VINA RESULT:      -7.1      2.883      7.528
REMARK  Name = 
REMARK  12 active torsions:
REMARK  status: ('A' for Active; 'I' for Inactive)
REMARK    1  A    between atoms: C_1  and  C_2
REMARK    2  A    between atoms: C_2  and  C_3
REMARK    3  A    between atoms: C_4  and  C_5
REMARK    4  A    between atoms: C_5  and  N_6
REMARK    5  A    between atoms: N_9  and  C_10
REMARK    6  A    between atoms: C_10  and  C_11
REMARK    7  A    between atoms: C_17  and  N_18
REMARK    8  A    between atoms: C_20  and  C_21
REMARK    9  A    between atoms: C_23  and  C_24
REMARK   10  A    between atoms: C_26  and  C_27
REMARK   11  A    between atoms: C_27  and  C_28
REMARK   12  A    between atoms: C_28  and  O_29
REMARK                            x       y       z     vdW  Elec       q    Type
REMARK                         _______ _______ _______ _____ _____    ______ ____
ROOT
ATOM      1  N   UNL     1       6.428   5.727  15.614  0.00  0.00    +0.000 NA
ATOM      2  C   UNL     1       5.023   5.301  15.867  0.00  0.00    +0.000 C 
ATOM      3  C   UNL     1       4.814   4.143  16.899  0.00  0.00    +0.000 C 
ATOM      4  N   UNL     1       5.605   4.237  18.163  0.00  0.00    +0.000 NA
ATOM      5  C   UNL     1       6.959   4.637  17.777  0.00  0.00    +0.000 C 
ATOM      6  C   UNL     1       7.113   5.913  16.916  0.00  0.00    +0.000 C 
ENDROOT
BRANCH   1   7
ATOM      7  C   UNL     1       7.112   4.741  14.746  0.00  0.00    +0.000 C 
BRANCH   7  11
ATOM      8  C   UNL     1       5.299   2.791  11.864  0.00  0.00    +0.000 C 
ATOM      9  C   UNL     1       6.263   3.726  12.548  0.00  0.00    +0.000 C 
ATOM     10  C   UNL     1       7.327   4.336  11.675  0.00  0.00    +0.000 C 
ATOM     11  C   UNL     1       6.177   3.930  13.880  0.00  0.00    +0.000 C 
ENDBRANCH   7  11
ENDBRANCH   1   7
BRANCH   4  12
ATOM     12  C   UNL     1       4.830   4.993  19.178  0.00  0.00    +0.000 C 
BRANCH  12  13
ATOM     13  C   UNL     1       3.585   4.444  19.892  0.00  0.00    +0.000 A 
ATOM     14  C   UNL     1       3.587   3.219  20.587  0.00  0.00    +0.000 A 
ATOM     15  C   UNL     1       2.488   2.734  21.285  0.00  0.00    +0.000 A 
ATOM     16  F   UNL     1       2.591   1.574  21.949  0.00  0.00    +0.000 F 
ATOM     17  C   UNL     1       1.299   3.420  21.297  0.00  0.00    +0.000 A 
ATOM     18  C   UNL     1       1.244   4.649  20.643  0.00  0.00    +0.000 A 
ATOM     19  C   UNL     1       2.380   5.203  20.004  0.00  0.00    +0.000 A 
BRANCH  19  20
ATOM     20  N   UNL     1       2.265   6.552  19.525  0.00  0.00    +0.000 N 
ATOM     21  N   UNL     1       2.787   6.914  18.329  0.00  0.00    +0.000 NA
ATOM     22  C   UNL     1       2.508   8.207  18.178  0.00  0.00    +0.000 A 
ATOM     23  C   UNL     1       2.965   8.939  16.973  0.00  0.00    +0.000 C 
ATOM     24  C   UNL     1       1.815   8.715  19.287  0.00  0.00    +0.000 A 
ATOM     25  C   UNL     1       1.694   7.655  20.164  0.00  0.00    +0.000 A 
ATOM     26  C   UNL     1       1.203   7.692  21.565  0.00  0.00    +0.000 C 
ENDBRANCH  19  20
ENDBRANCH  12  13
ENDBRANCH   4  12
BRANCH   6  27
ATOM     27  C   UNL     1       6.654   7.209  17.622  0.00  0.00    +0.000 C 
BRANCH  27  28
ATOM     28  C   UNL     1       7.734   8.281  17.713  0.00  0.00    +0.000 C 
BRANCH  28  29
ATOM     29  O   UNL     1       8.582   8.001  18.827  0.00  0.00    +0.000 OA
ATOM     30  H   UNL     1       8.214   8.478  19.592  0.00  0.00    +0.000 HD
ENDBRANCH  28  29
ENDBRANCH  27  28
ENDBRANCH   6  27
TORSDOF 8
ENDMDL
MODEL 3
REMARK VINA RESULT:      -7.1      1.114      1.408
REMARK  Name = 
REMARK  12 active torsions:
REMARK  status: ('A' for Active; 'I' for Inactive)
REMARK    1  A    between atoms: C_1  and  C_2
REMARK    2  A    between atoms: C_2  and  C_3
REMARK    3  A    between atoms: C_4  and  C_5
REMARK    4  A    between atoms: C_5  and  N_6
REMARK    5  A    between atoms: N_9  and  C_10
REMARK    6  A    between atoms: C_10  and  C_11
REMARK    7  A    between atoms: C_17  and  N_18
REMARK    8  A    between atoms: C_20  and  C_21
REMARK    9  A    between atoms: C_23  and  C_24
REMARK   10  A    between atoms: C_26  and  C_27
REMARK   11  A    between atoms: C_27  and  C_28
REMARK   12  A    between atoms: C_28  and  O_29
REMARK                            x       y       z     vdW  Elec       q    Type
REMARK                         _______ _______ _______ _____ _____    ______ ____
ROOT
ATOM      1  N   UNL     1       2.006   5.696  19.716  0.00  0.00    +0.000 NA
ATOM      2  C   UNL     1       2.001   5.926  18.244  0.00  0.00    +0.000 C 
ATOM      3  C   UNL     1       3.356   6.365  17.596  0.00  0.00    +0.000 C 
ATOM      4  N   UNL     1       4.571   5.616  18.039  0.00  0.00    +0.000 NA
ATOM      5  C   UNL     1       4.467   5.478  19.492  0.00  0.00    +0.000 C 
ATOM      6  C   UNL     1       3.173   4.849  20.063  0.00  0.00    +0.000 C 
ENDROOT
BRANCH   1   7
ATOM      7  C   UNL     1       2.008   6.990  20.436  0.00  0.00    +0.000 C 
BRANCH   7  11
ATOM      8  C   UNL     1       0.863  10.406  18.880  0.00  0.00    +0.000 C 
ATOM      9  C   UNL     1       0.940   9.246  19.839  0.00  0.00    +0.000 C 
ATOM     10  C   UNL     1       0.158   9.389  21.117  0.00  0.00    +0.000 C 
ATOM     11  C   UNL     1       1.726   8.184  19.555  0.00  0.00    +0.000 C 
ENDBRANCH   7  11
ENDBRANCH   1   7
BRANCH   4  12
ATOM     12  C   UNL     1       4.777   4.440  17.158  0.00  0.00    +0.000 C 
BRANCH  12  13
ATOM     13  C   UNL     1       5.584   4.477  15.851  0.00  0.00    +0.000 A 
ATOM     14  C   UNL     1       5.140   3.857  14.667  0.00  0.00    +0.000 A 
ATOM     15  C   UNL     1       5.828   3.927  13.462  0.00  0.00    +0.000 A 
ATOM     16  F   UNL     1       5.311   3.336  12.375  0.00  0.00    +0.000 F 
ATOM     17  C   UNL     1       7.030   4.584  13.372  0.00  0.00    +0.000 A 
ATOM     18  C   UNL     1       7.509   5.235  14.507  0.00  0.00    +0.000 A 
ATOM     19  C   UNL     1       6.777   5.251  15.719  0.00  0.00    +0.000 A 
BRANCH  19  20
ATOM     20  N   UNL     1       7.269   6.103  16.765  0.00  0.00    +0.000 N 
ATOM     21  N   UNL     1       7.296   7.449  16.614  0.00  0.00    +0.000 NA
ATOM     22  C   UNL     1       7.791   7.940  17.749  0.00  0.00    +0.000 A 
ATOM     23  C   UNL     1       7.985   9.400  17.914  0.00  0.00    +0.000 C 
ATOM     24  C   UNL     1       8.114   6.917  18.652  0.00  0.00    +0.000 A 
ATOM     25  C   UNL     1       7.810   5.738  18.000  0.00  0.00    +0.000 A 
ATOM     26  C   UNL     1       8.128   4.355  18.438  0.00  0.00    +0.000 C 
ENDBRANCH  19  20
ENDBRANCH  12  13
ENDBRANCH   4  12
BRANCH   6  27
ATOM     27  C   UNL     1       2.953   3.376  19.649  0.00  0.00    +0.000 C 
BRANCH  27  28
ATOM     28  C   UNL     1       3.754   2.374  20.472  0.00  0.00    +0.000 C 
BRANCH  28  29
ATOM     29  O   UNL     1       4.950   2.039  19.770  0.00  0.00    +0.000 OA
ATOM     30  H   UNL     1       5.278   1.204  20.148  0.00  0.00    +0.000 HD
ENDBRANCH  28  29
ENDBRANCH  27  28
ENDBRANCH   6  27
TORSDOF 8
ENDMDL
MODEL 4
REMARK VINA RESULT:      -6.9      2.900      7.637
REMARK  Name = 
REMARK  12 active torsions:
REMARK  status: ('A' for Active; 'I' for Inactive)
REMARK    1  A    between atoms: C_1  and  C_2
REMARK    2  A    between atoms: C_2  and  C_3
REMARK    3  A    between atoms: C_4  and  C_5
REMARK    4  A    between atoms: C_5  and  N_6
REMARK    5  A    between atoms: N_9  and  C_10
REMARK    6  A    between atoms: C_10  and  C_11
REMARK    7  A    between atoms: C_17  and  N_18
REMARK    8  A    between atoms: C_20  and  C_21
REMARK    9  A    between atoms: C_23  and  C_24
REMARK   10  A    between atoms: C_26  and  C_27
REMARK   11  A    between atoms: C_27  and  C_28
REMARK   12  A    between atoms: C_28  and  O_29
REMARK                            x       y       z     vdW  Elec       q    Type
REMARK                         _______ _______ _______ _____ _____    ______ ____
ROOT
ATOM      1  N   UNL     1       6.604   5.442  15.259  0.00  0.00    +0.000 NA
ATOM      2  C   UNL     1       5.180   5.828  15.461  0.00  0.00    +0.000 C 
ATOM      3  C   UNL     1       4.366   4.993  16.504  0.00  0.00    +0.000 C 
ATOM      4  N   UNL     1       5.055   4.704  17.798  0.00  0.00    +0.000 NA
ATOM      5  C   UNL     1       6.425   4.317  17.462  0.00  0.00    +0.000 C 
ATOM      6  C   UNL     1       7.251   5.288  16.585  0.00  0.00    +0.000 C 
ENDROOT
BRANCH   1   7
ATOM      7  C   UNL     1       6.689   4.211  14.439  0.00  0.00    +0.000 C 
BRANCH   7  11
ATOM      8  C   UNL     1       4.351   3.269  11.432  0.00  0.00    +0.000 C 
ATOM      9  C   UNL     1       5.605   3.415  12.253  0.00  0.00    +0.000 C 
ATOM     10  C   UNL     1       6.839   2.751  11.703  0.00  0.00    +0.000 C 
ATOM     11  C   UNL     1       5.566   4.061  13.439  0.00  0.00    +0.000 C 
ENDBRANCH   7  11
ENDBRANCH   1   7
BRANCH   4  12
ATOM     12  C   UNL     1       4.768   5.792  18.766  0.00  0.00    +0.000 C 
BRANCH  12  13
ATOM     13  C   UNL     1       3.549   6.723  18.677  0.00  0.00    +0.000 A 
ATOM     14  C   UNL     1       3.607   7.994  18.074  0.00  0.00    +0.000 A 
ATOM     15  C   UNL     1       2.503   8.825  17.933  0.00  0.00    +0.000 A 
ATOM     16  F   UNL     1       2.644  10.005  17.312  0.00  0.00    +0.000 F 
ATOM     17  C   UNL     1       1.275   8.460  18.427  0.00  0.00    +0.000 A 
ATOM     18  C   UNL     1       1.153   7.203  19.016  0.00  0.00    +0.000 A 
ATOM     19  C   UNL     1       2.245   6.305  19.087  0.00  0.00    +0.000 A 
BRANCH  19  20
ATOM     20  N   UNL     1       1.965   4.972  19.542  0.00  0.00    +0.000 N 
ATOM     21  N   UNL     1       2.189   4.614  20.829  0.00  0.00    +0.000 NA
ATOM     22  C   UNL     1       1.825   3.337  20.928  0.00  0.00    +0.000 A 
ATOM     23  C   UNL     1       1.966   2.611  22.213  0.00  0.00    +0.000 C 
ATOM     24  C   UNL     1       1.375   2.836  19.697  0.00  0.00    +0.000 A 
ATOM     25  C   UNL     1       1.503   3.881  18.804  0.00  0.00    +0.000 A 
ATOM     26  C   UNL     1       1.337   3.835  17.329  0.00  0.00    +0.000 C 
ENDBRANCH  19  20
ENDBRANCH  12  13
ENDBRANCH   4  12
BRANCH   6  27
ATOM     27  C   UNL     1       7.526   6.658  17.247  0.00  0.00    +0.000 C 
BRANCH  27  28
ATOM     28  C   UNL     1       8.054   6.560  18.674  0.00  0.00    +0.000 C 
BRANCH  28  29
ATOM     29  O   UNL     1       8.681   7.792  19.028  0.00  0.00    +0.000 OA
ATOM     30  H   UNL     1       8.065   8.269  19.611  0.00  0.00    +0.000 HD
ENDBRANCH  28  29
ENDBRANCH  27  28
ENDBRANCH   6  27
TORSDOF 8
ENDMDL
MODEL 5
REMARK VINA RESULT:      -6.7      7.049     12.412
REMARK  Name = 
REMARK  12 active torsions:
REMARK  status: ('A' for Active; 'I' for Inactive)
REMARK    1  A    between atoms: C_1  and  C_2
REMARK    2  A    between atoms: C_2  and  C_3
REMARK    3  A    between atoms: C_4  and  C_5
REMARK    4  A    between atoms: C_5  and  N_6
REMARK    5  A    between atoms: N_9  and  C_10
REMARK    6  A    between atoms: C_10  and  C_11
REMARK    7  A    between atoms: C_17  and  N_18
REMARK    8  A    between atoms: C_20  and  C_21
REMARK    9  A    between atoms: C_23  and  C_24
REMARK   10  A    between atoms: C_26  and  C_27
REMARK   11  A    between atoms: C_27  and  C_28
REMARK   12  A    between atoms: C_28  and  O_29
REMARK                            x       y       z     vdW  Elec       q    Type
REMARK                         _______ _______ _______ _____ _____    ______ ____
ROOT
ATOM      1  N   UNL     1      -0.167   9.948  18.629  0.00  0.00    +0.000 NA
ATOM      2  C   UNL     1      -0.637  10.024  20.041  0.00  0.00    +0.000 C 
ATOM      3  C   UNL     1      -0.868  11.456  20.628  0.00  0.00    +0.000 C 
ATOM      4  N   UNL     1      -1.593  12.420  19.746  0.00  0.00    +0.000 NA
ATOM      5  C   UNL     1      -1.027  12.264  18.406  0.00  0.00    +0.000 C 
ATOM      6  C   UNL     1      -1.009  10.841  17.796  0.00  0.00    +0.000 C 
ENDROOT
BRANCH   1   7
ATOM      7  C   UNL     1       1.272  10.285  18.550  0.00  0.00    +0.000 C 
BRANCH   7  11
ATOM      8  C   UNL     1       3.232   7.006  17.654  0.00  0.00    +0.000 C 
ATOM      9  C   UNL     1       2.464   8.014  18.470  0.00  0.00    +0.000 C 
ATOM     10  C   UNL     1       2.065   7.581  19.854  0.00  0.00    +0.000 C 
ATOM     11  C   UNL     1       2.124   9.204  17.927  0.00  0.00    +0.000 C 
ENDBRANCH   7  11
ENDBRANCH   1   7
BRANCH   4  12
ATOM     12  C   UNL     1      -3.053  12.317  19.992  0.00  0.00    +0.000 C 
BRANCH  12  13
ATOM     13  C   UNL     1      -3.915  13.466  20.536  0.00  0.00    +0.000 A 
ATOM     14  C   UNL     1      -3.374  14.712  20.908  0.00  0.00    +0.000 A 
ATOM     15  C   UNL     1      -4.145  15.780  21.348  0.00  0.00    +0.000 A 
ATOM     16  F   UNL     1      -3.547  16.943  21.647  0.00  0.00    +0.000 F 
ATOM     17  C   UNL     1      -5.505  15.660  21.489  0.00  0.00    +0.000 A 
ATOM     18  C   UNL     1      -6.100  14.456  21.116  0.00  0.00    +0.000 A 
ATOM     19  C   UNL     1      -5.342  13.388  20.580  0.00  0.00    +0.000 A 
BRANCH  19  20
ATOM     20  N   UNL     1      -6.073  12.268  20.057  0.00  0.00    +0.000 N 
ATOM     21  N   UNL     1      -6.512  11.279  20.872  0.00  0.00    +0.000 NA
ATOM     22  C   UNL     1      -7.151  10.410  20.091  0.00  0.00    +0.000 A 
ATOM     23  C   UNL     1      -7.740   9.177  20.664  0.00  0.00    +0.000 C 
ATOM     24  C   UNL     1      -7.121  10.810  18.747  0.00  0.00    +0.000 A 
ATOM     25  C   UNL     1      -6.396  11.986  18.728  0.00  0.00    +0.000 A 
ATOM     26  C   UNL     1      -5.914  12.731  17.537  0.00  0.00    +0.000 C 
ENDBRANCH  19  20
ENDBRANCH  12  13
ENDBRANCH   4  12
BRANCH   6  27
ATOM     27  C   UNL     1      -2.413  10.241  17.555  0.00  0.00    +0.000 C 
BRANCH  27  28
ATOM     28  C   UNL     1      -2.823  10.196  16.087  0.00  0.00    +0.000 C 
BRANCH  28  29
ATOM     29  O   UNL     1      -3.181  11.509  15.659  0.00  0.00    +0.000 OA
ATOM     30  H   UNL     1      -3.248  11.484  14.688  0.00  0.00    +0.000 HD
ENDBRANCH  28  29
ENDBRANCH  27  28
ENDBRANCH   6  27
TORSDOF 8
ENDMDL
MODEL 6
REMARK VINA RESULT:      -6.6      2.862      7.587
REMARK  Name = 
REMARK  12 active torsions:
REMARK  status: ('A' for Active; 'I' for Inactive)
REMARK    1  A    between atoms: C_1  and  C_2
REMARK    2  A    between atoms: C_2  and  C_3
REMARK    3  A    between atoms: C_4  and  C_5
REMARK    4  A    between atoms: C_5  and  N_6
REMARK    5  A    between atoms: N_9  and  C_10
REMARK    6  A    between atoms: C_10  and  C_11
REMARK    7  A    between atoms: C_17  and  N_18
REMARK    8  A    between atoms: C_20  and  C_21
REMARK    9  A    between atoms: C_23  and  C_24
REMARK   10  A    between atoms: C_26  and  C_27
REMARK   11  A    between atoms: C_27  and  C_28
REMARK   12  A    between atoms: C_28  and  O_29
REMARK                            x       y       z     vdW  Elec       q    Type
REMARK                         _______ _______ _______ _____ _____    ______ ____
ROOT
ATOM      1  N   UNL     1       6.570   5.790  15.575  0.00  0.00    +0.000 NA
ATOM      2  C   UNL     1       5.135   5.416  15.720  0.00  0.00    +0.000 C 
ATOM      3  C   UNL     1       4.809   4.253  16.714  0.00  0.00    +0.000 C 
ATOM      4  N   UNL     1       5.509   4.298  18.033  0.00  0.00    +0.000 NA
ATOM      5  C   UNL     1       6.902   4.649  17.753  0.00  0.00    +0.000 C 
ATOM      6  C   UNL     1       7.167   5.930  16.926  0.00  0.00    +0.000 C 
ENDROOT
BRANCH   1   7
ATOM      7  C   UNL     1       7.277   4.790  14.742  0.00  0.00    +0.000 C 
BRANCH   7  11
ATOM      8  C   UNL     1       5.455   2.754  11.926  0.00  0.00    +0.000 C 
ATOM      9  C   UNL     1       6.379   3.753  12.574  0.00  0.00    +0.000 C 
ATOM     10  C   UNL     1       7.329   4.471  11.654  0.00  0.00    +0.000 C 
ATOM     11  C   UNL     1       6.360   3.920  13.915  0.00  0.00    +0.000 C 
ENDBRANCH   7  11
ENDBRANCH   1   7
BRANCH   4  12
ATOM     12  C   UNL     1       4.692   5.069  19.003  0.00  0.00    +0.000 C 
BRANCH  12  13
ATOM     13  C   UNL     1       3.557   4.464  19.843  0.00  0.00    +0.000 A 
ATOM     14  C   UNL     1       3.675   3.221  20.495  0.00  0.00    +0.000 A 
ATOM     15  C   UNL     1       2.681   2.685  21.304  0.00  0.00    +0.000 A 
ATOM     16  F   UNL     1       2.894   1.511  21.916  0.00  0.00    +0.000 F 
ATOM     17  C   UNL     1       1.484   3.334  21.478  0.00  0.00    +0.000 A 
ATOM     18  C   UNL     1       1.318   4.578  20.873  0.00  0.00    +0.000 A 
ATOM     19  C   UNL     1       2.353   5.183  20.120  0.00  0.00    +0.000 A 
BRANCH  19  20
ATOM     20  N   UNL     1       2.146   6.540  19.699  0.00  0.00    +0.000 N 
ATOM     21  N   UNL     1       1.869   7.514  20.599  0.00  0.00    +0.000 NA
ATOM     22  C   UNL     1       1.743   8.640  19.899  0.00  0.00    +0.000 A 
ATOM     23  C   UNL     1       1.407   9.914  20.579  0.00  0.00    +0.000 C 
ATOM     24  C   UNL     1       1.917   8.413  18.526  0.00  0.00    +0.000 A 
ATOM     25  C   UNL     1       2.140   7.055  18.402  0.00  0.00    +0.000 A 
ATOM     26  C   UNL     1       2.206   6.261  17.148  0.00  0.00    +0.000 C 
ENDBRANCH  19  20
ENDBRANCH  12  13
ENDBRANCH   4  12
BRANCH   6  27
ATOM     27  C   UNL     1       6.707   7.234  17.619  0.00  0.00    +0.000 C 
BRANCH  27  28
ATOM     28  C   UNL     1       7.781   8.314  17.680  0.00  0.00    +0.000 C 
BRANCH  28  29
ATOM     29  O   UNL     1       8.603   8.096  18.826  0.00  0.00    +0.000 OA
ATOM     30  H   UNL     1       9.493   8.421  18.604  0.00  0.00    +0.000 HD
ENDBRANCH  28  29
ENDBRANCH  27  28
ENDBRANCH   6  27
TORSDOF 8
ENDMDL
MODEL 7
REMARK VINA RESULT:      -6.6      6.688     12.392
REMARK  Name = 
REMARK  12 active torsions:
REMARK  status: ('A' for Active; 'I' for Inactive)
REMARK    1  A    between atoms: C_1  and  C_2
REMARK    2  A    between atoms: C_2  and  C_3
REMARK    3  A    between atoms: C_4  and  C_5
REMARK    4  A    between atoms: C_5  and  N_6
REMARK    5  A    between atoms: N_9  and  C_10
REMARK    6  A    between atoms: C_10  and  C_11
REMARK    7  A    between atoms: C_17  and  N_18
REMARK    8  A    between atoms: C_20  and  C_21
REMARK    9  A    between atoms: C_23  and  C_24
REMARK   10  A    between atoms: C_26  and  C_27
REMARK   11  A    between atoms: C_27  and  C_28
REMARK   12  A    between atoms: C_28  and  O_29
REMARK                            x       y       z     vdW  Elec       q    Type
REMARK                         _______ _______ _______ _____ _____    ______ ____
ROOT
ATOM      1  N   UNL     1      -0.079   9.957  18.967  0.00  0.00    +0.000 NA
ATOM      2  C   UNL     1      -0.294  10.022  20.440  0.00  0.00    +0.000 C 
ATOM      3  C   UNL     1      -0.171  11.432  21.107  0.00  0.00    +0.000 C 
ATOM      4  N   UNL     1      -0.847  12.558  20.395  0.00  0.00    +0.000 NA
ATOM      5  C   UNL     1      -0.542  12.394  18.973  0.00  0.00    +0.000 C 
ATOM      6  C   UNL     1      -0.873  11.031  18.321  0.00  0.00    +0.000 C 
ENDROOT
BRANCH   1   7
ATOM      7  C   UNL     1       1.366  10.053  18.656  0.00  0.00    +0.000 C 
BRANCH   7  11
ATOM      8  C   UNL     1       2.724   6.440  17.949  0.00  0.00    +0.000 C 
ATOM      9  C   UNL     1       2.246   7.643  18.720  0.00  0.00    +0.000 C 
ATOM     10  C   UNL     1       2.067   7.453  20.202  0.00  0.00    +0.000 C 
ATOM     11  C   UNL     1       1.952   8.790  18.070  0.00  0.00    +0.000 C 
ENDBRANCH   7  11
ENDBRANCH   1   7
BRANCH   4  12
ATOM     12  C   UNL     1      -2.243  12.687  20.882  0.00  0.00    +0.000 C 
BRANCH  12  13
ATOM     13  C   UNL     1      -2.630  13.337  22.219  0.00  0.00    +0.000 A 
ATOM     14  C   UNL     1      -1.677  13.861  23.113  0.00  0.00    +0.000 A 
ATOM     15  C   UNL     1      -2.011  14.502  24.299  0.00  0.00    +0.000 A 
ATOM     16  F   UNL     1      -1.036  15.004  25.072  0.00  0.00    +0.000 F 
ATOM     17  C   UNL     1      -3.320  14.622  24.693  0.00  0.00    +0.000 A 
ATOM     18  C   UNL     1      -4.309  14.139  23.839  0.00  0.00    +0.000 A 
ATOM     19  C   UNL     1      -3.993  13.565  22.584  0.00  0.00    +0.000 A 
BRANCH  19  20
ATOM     20  N   UNL     1      -5.090  13.273  21.706  0.00  0.00    +0.000 N 
ATOM     21  N   UNL     1      -5.651  12.040  21.677  0.00  0.00    +0.000 NA
ATOM     22  C   UNL     1      -6.633  12.100  20.778  0.00  0.00    +0.000 A 
ATOM     23  C   UNL     1      -7.446  10.899  20.473  0.00  0.00    +0.000 C 
ATOM     24  C   UNL     1      -6.714  13.372  20.192  0.00  0.00    +0.000 A 
ATOM     25  C   UNL     1      -5.697  14.109  20.766  0.00  0.00    +0.000 A 
ATOM     26  C   UNL     1      -5.227  15.461  20.371  0.00  0.00    +0.000 C 
ENDBRANCH  19  20
ENDBRANCH  12  13
ENDBRANCH   4  12
BRANCH   6  27
ATOM     27  C   UNL     1      -2.381  10.692  18.301  0.00  0.00    +0.000 C 
BRANCH  27  28
ATOM     28  C   UNL     1      -3.172  11.447  17.238  0.00  0.00    +0.000 C 
BRANCH  28  29
ATOM     29  O   UNL     1      -2.393  11.533  16.046  0.00  0.00    +0.000 OA
ATOM     30  H   UNL     1      -1.640  12.119  16.238  0.00  0.00    +0.000 HD
ENDBRANCH  28  29
ENDBRANCH  27  28
ENDBRANCH   6  27
TORSDOF 8
ENDMDL
MODEL 8
REMARK VINA RESULT:      -6.6      1.109      1.717
REMARK  Name = 
REMARK  12 active torsions:
REMARK  status: ('A' for Active; 'I' for Inactive)
REMARK    1  A    between atoms: C_1  and  C_2
REMARK    2  A    between atoms: C_2  and  C_3
REMARK    3  A    between atoms: C_4  and  C_5
REMARK    4  A    between atoms: C_5  and  N_6
REMARK    5  A    between atoms: N_9  and  C_10
REMARK    6  A    between atoms: C_10  and  C_11
REMARK    7  A    between atoms: C_17  and  N_18
REMARK    8  A    between atoms: C_20  and  C_21
REMARK    9  A    between atoms: C_23  and  C_24
REMARK   10  A    between atoms: C_26  and  C_27
REMARK   11  A    between atoms: C_27  and  C_28
REMARK   12  A    between atoms: C_28  and  O_29
REMARK                            x       y       z     vdW  Elec       q    Type
REMARK                         _______ _______ _______ _____ _____    ______ ____
ROOT
ATOM      1  N   UNL     1       1.726   6.622  19.451  0.00  0.00    +0.000 NA
ATOM      2  C   UNL     1       2.274   6.918  18.098  0.00  0.00    +0.000 C 
ATOM      3  C   UNL     1       3.819   6.748  17.912  0.00  0.00    +0.000 C 
ATOM      4  N   UNL     1       4.421   5.513  18.500  0.00  0.00    +0.000 NA
ATOM      5  C   UNL     1       3.822   5.350  19.825  0.00  0.00    +0.000 C 
ATOM      6  C   UNL     1       2.277   5.327  19.918  0.00  0.00    +0.000 C 
ENDROOT
BRANCH   1   7
ATOM      7  C   UNL     1       2.028   7.736  20.380  0.00  0.00    +0.000 C 
BRANCH   7  11
ATOM      8  C   UNL     1      -0.737   9.237  22.725  0.00  0.00    +0.000 C 
ATOM      9  C   UNL     1       0.418   9.182  21.758  0.00  0.00    +0.000 C 
ATOM     10  C   UNL     1       0.870  10.501  21.191  0.00  0.00    +0.000 C 
ATOM     11  C   UNL     1       0.948   7.991  21.405  0.00  0.00    +0.000 C 
ENDBRANCH   7  11
ENDBRANCH   1   7
BRANCH   4  12
ATOM     12  C   UNL     1       4.396   4.422  17.495  0.00  0.00    +0.000 C 
BRANCH  12  13
ATOM     13  C   UNL     1       5.266   4.401  16.229  0.00  0.00    +0.000 A 
ATOM     14  C   UNL     1       4.756   4.053  14.963  0.00  0.00    +0.000 A 
ATOM     15  C   UNL     1       5.514   4.083  13.799  0.00  0.00    +0.000 A 
ATOM     16  F   UNL     1       4.934   3.769  12.630  0.00  0.00    +0.000 F 
ATOM     17  C   UNL     1       6.844   4.419  13.829  0.00  0.00    +0.000 A 
ATOM     18  C   UNL     1       7.398   4.793  15.051  0.00  0.00    +0.000 A 
ATOM     19  C   UNL     1       6.620   4.857  16.232  0.00  0.00    +0.000 A 
BRANCH  19  20
ATOM     20  N   UNL     1       7.242   5.431  17.392  0.00  0.00    +0.000 N 
ATOM     21  N   UNL     1       7.655   4.651  18.420  0.00  0.00    +0.000 NA
ATOM     22  C   UNL     1       8.188   5.475  19.320  0.00  0.00    +0.000 A 
ATOM     23  C   UNL     1       8.721   4.948  20.599  0.00  0.00    +0.000 C 
ATOM     24  C   UNL     1       8.112   6.812  18.900  0.00  0.00    +0.000 A 
ATOM     25  C   UNL     1       7.470   6.779  17.678  0.00  0.00    +0.000 A 
ATOM     26  C   UNL     1       6.976   7.933  16.885  0.00  0.00    +0.000 C 
ENDBRANCH  19  20
ENDBRANCH  12  13
ENDBRANCH   4  12
BRANCH   6  27
ATOM     27  C   UNL     1       1.620   4.132  19.190  0.00  0.00    +0.000 C 
BRANCH  27  28
ATOM     28  C   UNL     1       1.873   2.785  19.857  0.00  0.00    +0.000 C 
BRANCH  28  29
ATOM     29  O   UNL     1       1.973   1.775  18.854  0.00  0.00    +0.000 OA
ATOM     30  H   UNL     1       1.112   1.321  18.819  0.00  0.00    +0.000 HD
ENDBRANCH  28  29
ENDBRANCH  27  28
ENDBRANCH   6  27
TORSDOF 8
ENDMDL
MODEL 9
REMARK VINA RESULT:      -6.6      6.220     11.809
REMARK  Name = 
REMARK  12 active torsions:
REMARK  status: ('A' for Active; 'I' for Inactive)
REMARK    1  A    between atoms: C_1  and  C_2
REMARK    2  A    between atoms: C_2  and  C_3
REMARK    3  A    between atoms: C_4  and  C_5
REMARK    4  A    between atoms: C_5  and  N_6
REMARK    5  A    between atoms: N_9  and  C_10
REMARK    6  A    between atoms: C_10  and  C_11
REMARK    7  A    between atoms: C_17  and  N_18
REMARK    8  A    between atoms: C_20  and  C_21
REMARK    9  A    between atoms: C_23  and  C_24
REMARK   10  A    between atoms: C_26  and  C_27
REMARK   11  A    between atoms: C_27  and  C_28
REMARK   12  A    between atoms: C_28  and  O_29
REMARK                            x       y       z     vdW  Elec       q    Type
REMARK                         _______ _______ _______ _____ _____    ______ ____
ROOT
ATOM      1  N   UNL     1       0.250   9.089  20.607  0.00  0.00    +0.000 NA
ATOM      2  C   UNL     1      -0.621   8.812  21.784  0.00  0.00    +0.000 C 
ATOM      3  C   UNL     1      -0.452   9.753  23.022  0.00  0.00    +0.000 C 
ATOM      4  N   UNL     1      -0.359  11.215  22.729  0.00  0.00    +0.000 NA
ATOM      5  C   UNL     1       0.535  11.353  21.579  0.00  0.00    +0.000 C 
ATOM      6  C   UNL     1       0.198  10.540  20.305  0.00  0.00    +0.000 C 
ENDROOT
BRANCH   1   7
ATOM      7  C   UNL     1       1.627   8.611  20.866  0.00  0.00    +0.000 C 
BRANCH   7  11
ATOM      8  C   UNL     1       2.857   6.136  18.080  0.00  0.00    +0.000 C 
ATOM      9  C   UNL     1       2.370   7.409  18.725  0.00  0.00    +0.000 C 
ATOM     10  C   UNL     1       2.357   8.632  17.848  0.00  0.00    +0.000 C 
ATOM     11  C   UNL     1       2.030   7.418  20.032  0.00  0.00    +0.000 C 
ENDBRANCH   7  11
ENDBRANCH   1   7
BRANCH   4  12
ATOM     12  C   UNL     1      -1.719  11.810  22.733  0.00  0.00    +0.000 C 
BRANCH  12  13
ATOM     13  C   UNL     1      -2.002  13.308  22.923  0.00  0.00    +0.000 A 
ATOM     14  C   UNL     1      -1.087  14.180  23.543  0.00  0.00    +0.000 A 
ATOM     15  C   UNL     1      -1.300  15.547  23.673  0.00  0.00    +0.000 A 
ATOM     16  F   UNL     1      -0.356  16.307  24.246  0.00  0.00    +0.000 F 
ATOM     17  C   UNL     1      -2.464  16.125  23.233  0.00  0.00    +0.000 A 
ATOM     18  C   UNL     1      -3.399  15.314  22.592  0.00  0.00    +0.000 A 
ATOM     19  C   UNL     1      -3.159  13.937  22.369  0.00  0.00    +0.000 A 
BRANCH  19  20
ATOM     20  N   UNL     1      -4.099  13.238  21.539  0.00  0.00    +0.000 N 
ATOM     21  N   UNL     1      -3.844  13.022  20.226  0.00  0.00    +0.000 NA
ATOM     22  C   UNL     1      -4.892  12.351  19.750  0.00  0.00    +0.000 A 
ATOM     23  C   UNL     1      -4.954  11.971  18.319  0.00  0.00    +0.000 C 
ATOM     24  C   UNL     1      -5.859  12.137  20.744  0.00  0.00    +0.000 A 
ATOM     25  C   UNL     1      -5.359  12.741  21.881  0.00  0.00    +0.000 A 
ATOM     26  C   UNL     1      -6.063  12.965  23.169  0.00  0.00    +0.000 C 
ENDBRANCH  19  20
ENDBRANCH  12  13
ENDBRANCH   4  12
BRANCH   6  27
ATOM     27  C   UNL     1      -1.140  10.937  19.640  0.00  0.00    +0.000 C 
BRANCH  27  28
ATOM     28  C   UNL     1      -1.301  10.420  18.215  0.00  0.00    +0.000 C 
BRANCH  28  29
ATOM     29  O   UNL     1      -1.535  11.522  17.339  0.00  0.00    +0.000 OA
ATOM     30  H   UNL     1      -1.019  12.274  17.682  0.00  0.00    +0.000 HD
ENDBRANCH  28  29
ENDBRANCH  27  28
ENDBRANCH   6  27
TORSDOF 8
ENDMDL
