MODEL 1
REMARK VINA RESULT:      -7.1      0.000      0.000
REMARK  Name = 
REMARK  10 active torsions:
REMARK  status: ('A' for Active; 'I' for Inactive)
REMARK    1  A    between atoms: C_6  and  C_7
REMARK    2  A    between atoms: C_7  and  C_8
REMARK    3  A    between atoms: C_8  and  C_9
REMARK    4  A    between atoms: C_9  and  C_10
REMARK    5  A    between atoms: C_10  and  C_11
REMARK    6  A    between atoms: C_11  and  C_12
REMARK    7  A    between atoms: C_12  and  C_13
REMARK    8  A    between atoms: C_13  and  C_14
REMARK    9  A    between atoms: C_14  and  C_15
REMARK   10  A    between atoms: C_15  and  O_17
REMARK                            x       y       z     vdW  Elec       q    Type
REMARK                         _______ _______ _______ _____ _____    ______ ____
ROOT
ATOM      1  N   UNL     1       7.519   5.146  13.971  0.00  0.00    +0.000 N 
ATOM      2  C   UNL     1       6.982   5.272  15.210  0.00  0.00    +0.000 A 
ATOM      3  N   UNL     1       5.820   5.847  15.359  0.00  0.00    +0.000 NA
ATOM      4  C   UNL     1       5.405   5.895  16.645  0.00  0.00    +0.000 A 
ATOM      5  N   UNL     1       4.219   6.437  17.041  0.00  0.00    +0.000 N 
ATOM      6  C   UNL     1       4.114   6.338  18.413  0.00  0.00    +0.000 A 
ATOM      7  C   UNL     1       5.251   5.699  18.881  0.00  0.00    +0.000 A 
ATOM      8  C   UNL     1       6.053   5.423  17.759  0.00  0.00    +0.000 A 
ATOM      9  C   UNL     1       7.330   4.783  17.577  0.00  0.00    +0.000 A 
ATOM     10  O   UNL     1       8.002   4.297  18.480  0.00  0.00    +0.000 OA
ATOM     11  N   UNL     1       7.728   4.766  16.252  0.00  0.00    +0.000 N 
ATOM     12  H   UNL     1       7.077   5.748  13.284  0.00  0.00    +0.000 HD
ATOM     13  H   UNL     1       8.524   5.095  13.888  0.00  0.00    +0.000 HD
ATOM     14  H   UNL     1       3.535   6.839  16.416  0.00  0.00    +0.000 HD
ATOM     15  H   UNL     1       8.601   4.305  16.074  0.00  0.00    +0.000 HD
ENDROOT
BRANCH   6  16
ATOM     16  C   UNL     1       2.933   6.839  19.152  0.00  0.00    +0.000 C 
BRANCH  16  17
ATOM     17  C   UNL     1       1.932   5.722  19.454  0.00  0.00    +0.000 C 
BRANCH  17  18
ATOM     18  C   UNL     1       2.170   5.098  20.828  0.00  0.00    +0.000 C 
BRANCH  18  19
ATOM     19  C   UNL     1       1.637   3.668  20.899  0.00  0.00    +0.000 C 
BRANCH  19  20
ATOM     20  C   UNL     1       0.875   3.286  19.642  0.00  0.00    +0.000 C 
BRANCH  20  21
ATOM     21  C   UNL     1       1.369   1.939  19.116  0.00  0.00    +0.000 C 
BRANCH  21  22
ATOM     22  C   UNL     1       2.220   2.147  17.870  0.00  0.00    +0.000 C 
BRANCH  22  23
ATOM     23  C   UNL     1       3.597   2.715  18.202  0.00  0.00    +0.000 C 
BRANCH  23  24
ATOM     24  C   UNL     1       4.339   1.800  19.147  0.00  0.00    +0.000 C 
ATOM     25  O   UNL     1       4.785   2.124  20.237  0.00  0.00    +0.000 OA
BRANCH  24  26
ATOM     26  O   UNL     1       4.465   0.544  18.661  0.00  0.00    +0.000 OA
ATOM     27  H   UNL     1       4.213  -0.151  19.298  0.00  0.00    +0.000 HD
ENDBRANCH  24  26
ENDBRANCH  23  24
ENDBRANCH  22  23
ENDBRANCH  21  22
ENDBRANCH  20  21
ENDBRANCH  19  20
ENDBRANCH  18  19
ENDBRANCH  17  18
ENDBRANCH  16  17
ENDBRANCH   6  16
TORSDOF 10
ENDMDL
MODEL 2
REMARK VINA RESULT:      -6.6      3.171      4.531
REMARK  Name = 
REMARK  10 active torsions:
REMARK  status: ('A' for Active; 'I' for Inactive)
REMARK    1  A    between atoms: C_6  and  C_7
REMARK    2  A    between atoms: C_7  and  C_8
REMARK    3  A    between atoms: C_8  and  C_9
REMARK    4  A    between atoms: C_9  and  C_10
REMARK    5  A    between atoms: C_10  and  C_11
REMARK    6  A    between atoms: C_11  and  C_12
REMARK    7  A    between atoms: C_12  and  C_13
REMARK    8  A    between atoms: C_13  and  C_14
REMARK    9  A    between atoms: C_14  and  C_15
REMARK   10  A    between atoms: C_15  and  O_17
REMARK                            x       y       z     vdW  Elec       q    Type
REMARK                         _______ _______ _______ _____ _____    ______ ____
ROOT
ATOM      1  N   UNL     1       8.533   5.449  20.376  0.00  0.00    +0.000 N 
ATOM      2  C   UNL     1       7.506   5.481  19.489  0.00  0.00    +0.000 A 
ATOM      3  N   UNL     1       6.495   4.669  19.636  0.00  0.00    +0.000 NA
ATOM      4  C   UNL     1       5.544   4.817  18.686  0.00  0.00    +0.000 A 
ATOM      5  N   UNL     1       4.394   4.089  18.643  0.00  0.00    +0.000 N 
ATOM      6  C   UNL     1       3.655   4.478  17.545  0.00  0.00    +0.000 A 
ATOM      7  C   UNL     1       4.350   5.488  16.902  0.00  0.00    +0.000 A 
ATOM      8  C   UNL     1       5.535   5.695  17.632  0.00  0.00    +0.000 A 
ATOM      9  C   UNL     1       6.653   6.591  17.488  0.00  0.00    +0.000 A 
ATOM     10  O   UNL     1       6.761   7.438  16.609  0.00  0.00    +0.000 OA
ATOM     11  N   UNL     1       7.611   6.399  18.467  0.00  0.00    +0.000 N 
ATOM     12  H   UNL     1       8.542   4.606  20.941  0.00  0.00    +0.000 HD
ATOM     13  H   UNL     1       9.445   5.745  20.062  0.00  0.00    +0.000 HD
ATOM     14  H   UNL     1       4.135   3.382  19.318  0.00  0.00    +0.000 HD
ATOM     15  H   UNL     1       8.398   7.021  18.423  0.00  0.00    +0.000 HD
ENDROOT
BRANCH   6  16
ATOM     16  C   UNL     1       2.345   3.869  17.220  0.00  0.00    +0.000 C 
BRANCH  16  17
ATOM     17  C   UNL     1       2.225   2.445  17.770  0.00  0.00    +0.000 C 
BRANCH  17  18
ATOM     18  C   UNL     1       1.046   2.303  18.733  0.00  0.00    +0.000 C 
BRANCH  18  19
ATOM     19  C   UNL     1       1.441   2.664  20.164  0.00  0.00    +0.000 C 
BRANCH  19  20
ATOM     20  C   UNL     1       0.947   4.045  20.556  0.00  0.00    +0.000 C 
BRANCH  20  21
ATOM     21  C   UNL     1       2.127   4.934  20.951  0.00  0.00    +0.000 C 
BRANCH  21  22
ATOM     22  C   UNL     1       1.984   6.305  20.303  0.00  0.00    +0.000 C 
BRANCH  22  23
ATOM     23  C   UNL     1       0.984   7.189  21.043  0.00  0.00    +0.000 C 
BRANCH  23  24
ATOM     24  C   UNL     1       1.260   8.649  20.774  0.00  0.00    +0.000 C 
ATOM     25  O   UNL     1       1.294   9.528  21.620  0.00  0.00    +0.000 OA
BRANCH  24  26
ATOM     26  O   UNL     1       1.476   8.903  19.462  0.00  0.00    +0.000 OA
ATOM     27  H   UNL     1       1.128   9.764  19.166  0.00  0.00    +0.000 HD
ENDBRANCH  24  26
ENDBRANCH  23  24
ENDBRANCH  22  23
ENDBRANCH  21  22
ENDBRANCH  20  21
ENDBRANCH  19  20
ENDBRANCH  18  19
ENDBRANCH  17  18
ENDBRANCH  16  17
ENDBRANCH   6  16
TORSDOF 10
ENDMDL
MODEL 3
REMARK VINA RESULT:      -6.6      2.782      3.971
REMARK  Name = 
REMARK  10 active torsions:
REMARK  status: ('A' for Active; 'I' for Inactive)
REMARK    1  A    between atoms: C_6  and  C_7
REMARK    2  A    between atoms: C_7  and  C_8
REMARK    3  A    between atoms: C_8  and  C_9
REMARK    4  A    between atoms: C_9  and  C_10
REMARK    5  A    between atoms: C_10  and  C_11
REMARK    6  A    between atoms: C_11  and  C_12
REMARK    7  A    between atoms: C_12  and  C_13
REMARK    8  A    between atoms: C_13  and  C_14
REMARK    9  A    between atoms: C_14  and  C_15
REMARK   10  A    between atoms: C_15  and  O_17
REMARK                            x       y       z     vdW  Elec       q    Type
REMARK                         _______ _______ _______ _____ _____    ______ ____
ROOT
ATOM      1  N   UNL     1       8.236   8.722  17.304  0.00  0.00    +0.000 N 
ATOM      2  C   UNL     1       7.571   7.600  17.680  0.00  0.00    +0.000 A 
ATOM      3  N   UNL     1       6.556   7.180  16.978  0.00  0.00    +0.000 NA
ATOM      4  C   UNL     1       5.997   6.048  17.465  0.00  0.00    +0.000 A 
ATOM      5  N   UNL     1       4.934   5.418  16.891  0.00  0.00    +0.000 N 
ATOM      6  C   UNL     1       4.607   4.310  17.644  0.00  0.00    +0.000 A 
ATOM      7  C   UNL     1       5.500   4.234  18.699  0.00  0.00    +0.000 A 
ATOM      8  C   UNL     1       6.371   5.332  18.573  0.00  0.00    +0.000 A 
ATOM      9  C   UNL     1       7.500   5.803  19.333  0.00  0.00    +0.000 A 
ATOM     10  O   UNL     1       7.954   5.248  20.326  0.00  0.00    +0.000 OA
ATOM     11  N   UNL     1       8.035   6.969  18.814  0.00  0.00    +0.000 N 
ATOM     12  H   UNL     1       7.716   9.286  16.639  0.00  0.00    +0.000 HD
ATOM     13  H   UNL     1       8.713   9.257  18.014  0.00  0.00    +0.000 HD
ATOM     14  H   UNL     1       4.472   5.725  16.045  0.00  0.00    +0.000 HD
ATOM     15  H   UNL     1       8.841   7.321  19.297  0.00  0.00    +0.000 HD
ENDROOT
BRANCH   6  16
ATOM     16  C   UNL     1       3.488   3.411  17.279  0.00  0.00    +0.000 C 
BRANCH  16  17
ATOM     17  C   UNL     1       3.163   2.420  18.400  0.00  0.00    +0.000 C 
BRANCH  17  18
ATOM     18  C   UNL     1       1.676   2.070  18.440  0.00  0.00    +0.000 C 
BRANCH  18  19
ATOM     19  C   UNL     1       0.952   2.811  19.562  0.00  0.00    +0.000 C 
BRANCH  19  20
ATOM     20  C   UNL     1       1.925   3.425  20.554  0.00  0.00    +0.000 C 
BRANCH  20  21
ATOM     21  C   UNL     1       1.593   4.901  20.773  0.00  0.00    +0.000 C 
BRANCH  21  22
ATOM     22  C   UNL     1       1.799   5.678  19.480  0.00  0.00    +0.000 C 
BRANCH  22  23
ATOM     23  C   UNL     1       2.684   6.905  19.681  0.00  0.00    +0.000 C 
BRANCH  23  24
ATOM     24  C   UNL     1       1.864   8.086  20.143  0.00  0.00    +0.000 C 
ATOM     25  O   UNL     1       1.277   8.867  19.412  0.00  0.00    +0.000 OA
BRANCH  24  26
ATOM     26  O   UNL     1       1.835   8.201  21.492  0.00  0.00    +0.000 OA
ATOM     27  H   UNL     1       1.022   8.618  21.832  0.00  0.00    +0.000 HD
ENDBRANCH  24  26
ENDBRANCH  23  24
ENDBRANCH  22  23
ENDBRANCH  21  22
ENDBRANCH  20  21
ENDBRANCH  19  20
ENDBRANCH  18  19
ENDBRANCH  17  18
ENDBRANCH  16  17
ENDBRANCH   6  16
TORSDOF 10
ENDMDL
MODEL 4
REMARK VINA RESULT:      -6.5      3.044      4.686
REMARK  Name = 
REMARK  10 active torsions:
REMARK  status: ('A' for Active; 'I' for Inactive)
REMARK    1  A    between atoms: C_6  and  C_7
REMARK    2  A    between atoms: C_7  and  C_8
REMARK    3  A    between atoms: C_8  and  C_9
REMARK    4  A    between atoms: C_9  and  C_10
REMARK    5  A    between atoms: C_10  and  C_11
REMARK    6  A    between atoms: C_11  and  C_12
REMARK    7  A    between atoms: C_12  and  C_13
REMARK    8  A    between atoms: C_13  and  C_14
REMARK    9  A    between atoms: C_14  and  C_15
REMARK   10  A    between atoms: C_15  and  O_17
REMARK                            x       y       z     vdW  Elec       q    Type
REMARK                         _______ _______ _______ _____ _____    ______ ____
ROOT
ATOM      1  N   UNL     1       8.341   6.994  18.885  0.00  0.00    +0.000 N 
ATOM      2  C   UNL     1       7.304   6.296  18.357  0.00  0.00    +0.000 A 
ATOM      3  N   UNL     1       6.860   5.231  18.967  0.00  0.00    +0.000 NA
ATOM      4  C   UNL     1       5.821   4.643  18.332  0.00  0.00    +0.000 A 
ATOM      5  N   UNL     1       5.186   3.527  18.787  0.00  0.00    +0.000 N 
ATOM      6  C   UNL     1       4.187   3.183  17.901  0.00  0.00    +0.000 A 
ATOM      7  C   UNL     1       4.184   4.119  16.880  0.00  0.00    +0.000 A 
ATOM      8  C   UNL     1       5.215   5.033  17.165  0.00  0.00    +0.000 A 
ATOM      9  C   UNL     1       5.710   6.216  16.509  0.00  0.00    +0.000 A 
ATOM     10  O   UNL     1       5.247   6.688  15.477  0.00  0.00    +0.000 OA
ATOM     11  N   UNL     1       6.781   6.780  17.178  0.00  0.00    +0.000 N 
ATOM     12  H   UNL     1       8.853   6.471  19.589  0.00  0.00    +0.000 HD
ATOM     13  H   UNL     1       8.928   7.526  18.260  0.00  0.00    +0.000 HD
ATOM     14  H   UNL     1       5.419   3.043  19.644  0.00  0.00    +0.000 HD
ATOM     15  H   UNL     1       7.143   7.623  16.771  0.00  0.00    +0.000 HD
ENDROOT
BRANCH   6  16
ATOM     16  C   UNL     1       3.312   2.008  18.116  0.00  0.00    +0.000 C 
BRANCH  16  17
ATOM     17  C   UNL     1       2.386   2.199  19.320  0.00  0.00    +0.000 C 
BRANCH  17  18
ATOM     18  C   UNL     1       1.476   3.415  19.154  0.00  0.00    +0.000 C 
BRANCH  18  19
ATOM     19  C   UNL     1       1.490   4.303  20.396  0.00  0.00    +0.000 C 
BRANCH  19  20
ATOM     20  C   UNL     1       2.164   5.638  20.130  0.00  0.00    +0.000 C 
BRANCH  20  21
ATOM     21  C   UNL     1       1.353   6.772  20.757  0.00  0.00    +0.000 C 
BRANCH  21  22
ATOM     22  C   UNL     1       1.914   8.117  20.317  0.00  0.00    +0.000 C 
BRANCH  22  23
ATOM     23  C   UNL     1       1.168   8.686  19.114  0.00  0.00    +0.000 C 
BRANCH  23  24
ATOM     24  C   UNL     1       2.134   9.075  18.020  0.00  0.00    +0.000 C 
ATOM     25  O   UNL     1       2.235  10.190  17.532  0.00  0.00    +0.000 OA
BRANCH  24  26
ATOM     26  O   UNL     1       2.908   8.040  17.619  0.00  0.00    +0.000 OA
ATOM     27  H   UNL     1       2.939   7.303  18.258  0.00  0.00    +0.000 HD
ENDBRANCH  24  26
ENDBRANCH  23  24
ENDBRANCH  22  23
ENDBRANCH  21  22
ENDBRANCH  20  21
ENDBRANCH  19  20
ENDBRANCH  18  19
ENDBRANCH  17  18
ENDBRANCH  16  17
ENDBRANCH   6  16
TORSDOF 10
ENDMDL
MODEL 5
REMARK VINA RESULT:      -6.5      1.386      1.650
REMARK  Name = 
REMARK  10 active torsions:
REMARK  status: ('A' for Active; 'I' for Inactive)
REMARK    1  A    between atoms: C_6  and  C_7
REMARK    2  A    between atoms: C_7  and  C_8
REMARK    3  A    between atoms: C_8  and  C_9
REMARK    4  A    between atoms: C_9  and  C_10
REMARK    5  A    between atoms: C_10  and  C_11
REMARK    6  A    between atoms: C_11  and  C_12
REMARK    7  A    between atoms: C_12  and  C_13
REMARK    8  A    between atoms: C_13  and  C_14
REMARK    9  A    between atoms: C_14  and  C_15
REMARK   10  A    between atoms: C_15  and  O_17
REMARK                            x       y       z     vdW  Elec       q    Type
REMARK                         _______ _______ _______ _____ _____    ______ ____
ROOT
ATOM      1  N   UNL     1       6.741   3.876  13.748  0.00  0.00    +0.000 N 
ATOM      2  C   UNL     1       6.310   4.575  14.828  0.00  0.00    +0.000 A 
ATOM      3  N   UNL     1       5.102   4.389  15.283  0.00  0.00    +0.000 NA
ATOM      4  C   UNL     1       4.813   5.146  16.366  0.00  0.00    +0.000 A 
ATOM      5  N   UNL     1       3.618   5.113  17.020  0.00  0.00    +0.000 N 
ATOM      6  C   UNL     1       3.650   6.012  18.064  0.00  0.00    +0.000 A 
ATOM      7  C   UNL     1       4.901   6.604  18.077  0.00  0.00    +0.000 A 
ATOM      8  C   UNL     1       5.625   6.048  17.006  0.00  0.00    +0.000 A 
ATOM      9  C   UNL     1       6.959   6.235  16.498  0.00  0.00    +0.000 A 
ATOM     10  O   UNL     1       7.793   6.989  16.987  0.00  0.00    +0.000 OA
ATOM     11  N   UNL     1       7.213   5.457  15.382  0.00  0.00    +0.000 N 
ATOM     12  H   UNL     1       5.983   3.447  13.226  0.00  0.00    +0.000 HD
ATOM     13  H   UNL     1       7.461   4.283  13.170  0.00  0.00    +0.000 HD
ATOM     14  H   UNL     1       2.843   4.514  16.768  0.00  0.00    +0.000 HD
ATOM     15  H   UNL     1       8.141   5.535  15.009  0.00  0.00    +0.000 HD
ENDROOT
BRANCH   6  16
ATOM     16  C   UNL     1       2.495   6.212  18.969  0.00  0.00    +0.000 C 
BRANCH  16  17
ATOM     17  C   UNL     1       2.602   5.350  20.231  0.00  0.00    +0.000 C 
BRANCH  17  18
ATOM     18  C   UNL     1       1.391   4.435  20.401  0.00  0.00    +0.000 C 
BRANCH  18  19
ATOM     19  C   UNL     1       0.884   3.914  19.058  0.00  0.00    +0.000 C 
BRANCH  19  20
ATOM     20  C   UNL     1       1.140   2.426  18.895  0.00  0.00    +0.000 C 
BRANCH  20  21
ATOM     21  C   UNL     1       2.308   2.194  17.936  0.00  0.00    +0.000 C 
BRANCH  21  22
ATOM     22  C   UNL     1       3.433   1.460  18.653  0.00  0.00    +0.000 C 
BRANCH  22  23
ATOM     23  C   UNL     1       4.323   2.408  19.451  0.00  0.00    +0.000 C 
BRANCH  23  24
ATOM     24  C   UNL     1       4.538   1.889  20.853  0.00  0.00    +0.000 C 
ATOM     25  O   UNL     1       5.545   1.323  21.249  0.00  0.00    +0.000 OA
BRANCH  24  26
ATOM     26  O   UNL     1       3.476   2.119  21.660  0.00  0.00    +0.000 OA
ATOM     27  H   UNL     1       3.664   2.740  22.388  0.00  0.00    +0.000 HD
ENDBRANCH  24  26
ENDBRANCH  23  24
ENDBRANCH  22  23
ENDBRANCH  21  22
ENDBRANCH  20  21
ENDBRANCH  19  20
ENDBRANCH  18  19
ENDBRANCH  17  18
ENDBRANCH  16  17
ENDBRANCH   6  16
TORSDOF 10
ENDMDL
MODEL 6
REMARK VINA RESULT:      -6.4      1.307      1.707
REMARK  Name = 
REMARK  10 active torsions:
REMARK  status: ('A' for Active; 'I' for Inactive)
REMARK    1  A    between atoms: C_6  and  C_7
REMARK    2  A    between atoms: C_7  and  C_8
REMARK    3  A    between atoms: C_8  and  C_9
REMARK    4  A    between atoms: C_9  and  C_10
REMARK    5  A    between atoms: C_10  and  C_11
REMARK    6  A    between atoms: C_11  and  C_12
REMARK    7  A    between atoms: C_12  and  C_13
REMARK    8  A    between atoms: C_13  and  C_14
REMARK    9  A    between atoms: C_14  and  C_15
REMARK   10  A    between atoms: C_15  and  O_17
REMARK                            x       y       z     vdW  Elec       q    Type
REMARK                         _______ _______ _______ _____ _____    ______ ____
ROOT
ATOM      1  N   UNL     1       6.956   5.235  14.023  0.00  0.00    +0.000 N 
ATOM      2  C   UNL     1       6.607   5.229  15.335  0.00  0.00    +0.000 A 
ATOM      3  N   UNL     1       5.401   5.581  15.687  0.00  0.00    +0.000 NA
ATOM      4  C   UNL     1       5.193   5.520  17.023  0.00  0.00    +0.000 A 
ATOM      5  N   UNL     1       4.008   5.828  17.622  0.00  0.00    +0.000 N 
ATOM      6  C   UNL     1       4.140   5.675  18.986  0.00  0.00    +0.000 A 
ATOM      7  C   UNL     1       5.429   5.240  19.242  0.00  0.00    +0.000 A 
ATOM      8  C   UNL     1       6.080   5.143  17.999  0.00  0.00    +0.000 A 
ATOM      9  C   UNL     1       7.404   4.748  17.592  0.00  0.00    +0.000 A 
ATOM     10  O   UNL     1       8.284   4.367  18.356  0.00  0.00    +0.000 OA
ATOM     11  N   UNL     1       7.584   4.838  16.224  0.00  0.00    +0.000 N 
ATOM     12  H   UNL     1       6.312   5.766  13.445  0.00  0.00    +0.000 HD
ATOM     13  H   UNL     1       7.928   5.368  13.788  0.00  0.00    +0.000 HD
ATOM     14  H   UNL     1       3.174   6.117  17.129  0.00  0.00    +0.000 HD
ATOM     15  H   UNL     1       8.485   4.547  15.891  0.00  0.00    +0.000 HD
ENDROOT
BRANCH   6  16
ATOM     16  C   UNL     1       3.021   5.936  19.920  0.00  0.00    +0.000 C 
BRANCH  16  17
ATOM     17  C   UNL     1       1.688   5.416  19.375  0.00  0.00    +0.000 C 
BRANCH  17  18
ATOM     18  C   UNL     1       1.094   4.325  20.265  0.00  0.00    +0.000 C 
BRANCH  18  19
ATOM     19  C   UNL     1       2.000   4.011  21.453  0.00  0.00    +0.000 C 
BRANCH  19  20
ATOM     20  C   UNL     1       2.491   2.574  21.426  0.00  0.00    +0.000 C 
BRANCH  20  21
ATOM     21  C   UNL     1       3.915   2.515  20.873  0.00  0.00    +0.000 C 
BRANCH  21  22
ATOM     22  C   UNL     1       3.958   1.617  19.644  0.00  0.00    +0.000 C 
BRANCH  22  23
ATOM     23  C   UNL     1       2.730   1.797  18.756  0.00  0.00    +0.000 C 
BRANCH  23  24
ATOM     24  C   UNL     1       3.093   2.522  17.482  0.00  0.00    +0.000 C 
ATOM     25  O   UNL     1       4.191   2.505  16.948  0.00  0.00    +0.000 OA
BRANCH  24  26
ATOM     26  O   UNL     1       2.051   3.214  16.964  0.00  0.00    +0.000 OA
ATOM     27  H   UNL     1       2.212   3.548  16.062  0.00  0.00    +0.000 HD
ENDBRANCH  24  26
ENDBRANCH  23  24
ENDBRANCH  22  23
ENDBRANCH  21  22
ENDBRANCH  20  21
ENDBRANCH  19  20
ENDBRANCH  18  19
ENDBRANCH  17  18
ENDBRANCH  16  17
ENDBRANCH   6  16
TORSDOF 10
ENDMDL
MODEL 7
REMARK VINA RESULT:      -6.4      2.795      4.069
REMARK  Name = 
REMARK  10 active torsions:
REMARK  status: ('A' for Active; 'I' for Inactive)
REMARK    1  A    between atoms: C_6  and  C_7
REMARK    2  A    between atoms: C_7  and  C_8
REMARK    3  A    between atoms: C_8  and  C_9
REMARK    4  A    between atoms: C_9  and  C_10
REMARK    5  A    between atoms: C_10  and  C_11
REMARK    6  A    between atoms: C_11  and  C_12
REMARK    7  A    between atoms: C_12  and  C_13
REMARK    8  A    between atoms: C_13  and  C_14
REMARK    9  A    between atoms: C_14  and  C_15
REMARK   10  A    between atoms: C_15  and  O_17
REMARK                            x       y       z     vdW  Elec       q    Type
REMARK                         _______ _______ _______ _____ _____    ______ ____
ROOT
ATOM      1  N   UNL     1       8.397   7.371  18.703  0.00  0.00    +0.000 N 
ATOM      2  C   UNL     1       7.413   6.599  18.175  0.00  0.00    +0.000 A 
ATOM      3  N   UNL     1       7.035   5.515  18.794  0.00  0.00    +0.000 NA
ATOM      4  C   UNL     1       6.043   4.852  18.158  0.00  0.00    +0.000 A 
ATOM      5  N   UNL     1       5.479   3.702  18.622  0.00  0.00    +0.000 N 
ATOM      6  C   UNL     1       4.513   3.282  17.731  0.00  0.00    +0.000 A 
ATOM      7  C   UNL     1       4.458   4.203  16.699  0.00  0.00    +0.000 A 
ATOM      8  C   UNL     1       5.423   5.188  16.981  0.00  0.00    +0.000 A 
ATOM      9  C   UNL     1       5.844   6.393  16.315  0.00  0.00    +0.000 A 
ATOM     10  O   UNL     1       5.360   6.821  15.274  0.00  0.00    +0.000 OA
ATOM     11  N   UNL     1       6.870   7.035  16.986  0.00  0.00    +0.000 N 
ATOM     12  H   UNL     1       8.936   6.892  19.417  0.00  0.00    +0.000 HD
ATOM     13  H   UNL     1       8.952   7.934  18.076  0.00  0.00    +0.000 HD
ATOM     14  H   UNL     1       5.736   3.244  19.486  0.00  0.00    +0.000 HD
ATOM     15  H   UNL     1       7.179   7.895  16.571  0.00  0.00    +0.000 HD
ENDROOT
BRANCH   6  16
ATOM     16  C   UNL     1       3.715   2.054  17.954  0.00  0.00    +0.000 C 
BRANCH  16  17
ATOM     17  C   UNL     1       3.138   1.997  19.371  0.00  0.00    +0.000 C 
BRANCH  17  18
ATOM     18  C   UNL     1       1.673   1.561  19.373  0.00  0.00    +0.000 C 
BRANCH  18  19
ATOM     19  C   UNL     1       0.786   2.566  18.642  0.00  0.00    +0.000 C 
BRANCH  19  20
ATOM     20  C   UNL     1       1.277   3.992  18.822  0.00  0.00    +0.000 C 
BRANCH  20  21
ATOM     21  C   UNL     1       0.976   4.477  20.241  0.00  0.00    +0.000 C 
BRANCH  21  22
ATOM     22  C   UNL     1       2.214   5.132  20.840  0.00  0.00    +0.000 C 
BRANCH  22  23
ATOM     23  C   UNL     1       2.922   6.044  19.842  0.00  0.00    +0.000 C 
BRANCH  23  24
ATOM     24  C   UNL     1       2.200   7.365  19.719  0.00  0.00    +0.000 C 
ATOM     25  O   UNL     1       1.690   7.979  20.642  0.00  0.00    +0.000 OA
BRANCH  24  26
ATOM     26  O   UNL     1       2.172   7.824  18.446  0.00  0.00    +0.000 OA
ATOM     27  H   UNL     1       2.419   7.154  17.782  0.00  0.00    +0.000 HD
ENDBRANCH  24  26
ENDBRANCH  23  24
ENDBRANCH  22  23
ENDBRANCH  21  22
ENDBRANCH  20  21
ENDBRANCH  19  20
ENDBRANCH  18  19
ENDBRANCH  17  18
ENDBRANCH  16  17
ENDBRANCH   6  16
TORSDOF 10
ENDMDL
MODEL 8
REMARK VINA RESULT:      -6.3      4.261      6.500
REMARK  Name = 
REMARK  10 active torsions:
REMARK  status: ('A' for Active; 'I' for Inactive)
REMARK    1  A    between atoms: C_6  and  C_7
REMARK    2  A    between atoms: C_7  and  C_8
REMARK    3  A    between atoms: C_8  and  C_9
REMARK    4  A    between atoms: C_9  and  C_10
REMARK    5  A    between atoms: C_10  and  C_11
REMARK    6  A    between atoms: C_11  and  C_12
REMARK    7  A    between atoms: C_12  and  C_13
REMARK    8  A    between atoms: C_13  and  C_14
REMARK    9  A    between atoms: C_14  and  C_15
REMARK   10  A    between atoms: C_15  and  O_17
REMARK                            x       y       z     vdW  Elec       q    Type
REMARK                         _______ _______ _______ _____ _____    ______ ____
ROOT
ATOM      1  N   UNL     1      -0.265   9.360  23.501  0.00  0.00    +0.000 N 
ATOM      2  C   UNL     1       0.177   9.355  22.217  0.00  0.00    +0.000 A 
ATOM      3  N   UNL     1       0.976   8.408  21.810  0.00  0.00    +0.000 NA
ATOM      4  C   UNL     1       1.328   8.525  20.509  0.00  0.00    +0.000 A 
ATOM      5  N   UNL     1       2.144   7.648  19.860  0.00  0.00    +0.000 N 
ATOM      6  C   UNL     1       2.310   8.066  18.556  0.00  0.00    +0.000 A 
ATOM      7  C   UNL     1       1.563   9.219  18.381  0.00  0.00    +0.000 A 
ATOM      8  C   UNL     1       0.947   9.495  19.616  0.00  0.00    +0.000 A 
ATOM      9  C   UNL     1       0.057  10.528  20.079  0.00  0.00    +0.000 A 
ATOM     10  O   UNL     1      -0.379  11.438  19.383  0.00  0.00    +0.000 OA
ATOM     11  N   UNL     1      -0.268  10.384  21.416  0.00  0.00    +0.000 N 
ATOM     12  H   UNL     1       0.278   8.755  24.109  0.00  0.00    +0.000 HD
ATOM     13  H   UNL     1      -0.517  10.244  23.917  0.00  0.00    +0.000 HD
ATOM     14  H   UNL     1       2.550   6.823  20.281  0.00  0.00    +0.000 HD
ATOM     15  H   UNL     1      -0.908  11.067  21.777  0.00  0.00    +0.000 HD
ENDROOT
BRANCH   6  16
ATOM     16  C   UNL     1       3.146   7.320  17.589  0.00  0.00    +0.000 C 
BRANCH  16  17
ATOM     17  C   UNL     1       3.825   6.109  18.236  0.00  0.00    +0.000 C 
BRANCH  17  18
ATOM     18  C   UNL     1       3.821   4.891  17.312  0.00  0.00    +0.000 C 
BRANCH  18  19
ATOM     19  C   UNL     1       3.974   3.589  18.096  0.00  0.00    +0.000 C 
BRANCH  19  20
ATOM     20  C   UNL     1       2.773   2.676  17.915  0.00  0.00    +0.000 C 
BRANCH  20  21
ATOM     21  C   UNL     1       1.478   3.468  18.093  0.00  0.00    +0.000 C 
BRANCH  21  22
ATOM     22  C   UNL     1       0.791   3.058  19.388  0.00  0.00    +0.000 C 
BRANCH  22  23
ATOM     23  C   UNL     1       1.357   3.796  20.598  0.00  0.00    +0.000 C 
BRANCH  23  24
ATOM     24  C   UNL     1       1.852   2.818  21.638  0.00  0.00    +0.000 C 
ATOM     25  O   UNL     1       1.160   2.285  22.491  0.00  0.00    +0.000 OA
BRANCH  24  26
ATOM     26  O   UNL     1       3.179   2.575  21.530  0.00  0.00    +0.000 OA
ATOM     27  H   UNL     1       3.676   2.739  22.353  0.00  0.00    +0.000 HD
ENDBRANCH  24  26
ENDBRANCH  23  24
ENDBRANCH  22  23
ENDBRANCH  21  22
ENDBRANCH  20  21
ENDBRANCH  19  20
ENDBRANCH  18  19
ENDBRANCH  17  18
ENDBRANCH  16  17
ENDBRANCH   6  16
TORSDOF 10
ENDMDL
MODEL 9
REMARK VINA RESULT:      -6.3      2.022      2.986
REMARK  Name = 
REMARK  10 active torsions:
REMARK  status: ('A' for Active; 'I' for Inactive)
REMARK    1  A    between atoms: C_6  and  C_7
REMARK    2  A    between atoms: C_7  and  C_8
REMARK    3  A    between atoms: C_8  and  C_9
REMARK    4  A    between atoms: C_9  and  C_10
REMARK    5  A    between atoms: C_10  and  C_11
REMARK    6  A    between atoms: C_11  and  C_12
REMARK    7  A    between atoms: C_12  and  C_13
REMARK    8  A    between atoms: C_13  and  C_14
REMARK    9  A    between atoms: C_14  and  C_15
REMARK   10  A    between atoms: C_15  and  O_17
REMARK                            x       y       z     vdW  Elec       q    Type
REMARK                         _______ _______ _______ _____ _____    ______ ____
ROOT
ATOM      1  N   UNL     1       5.650   2.725  12.004  0.00  0.00    +0.000 N 
ATOM      2  C   UNL     1       6.003   3.510  13.054  0.00  0.00    +0.000 A 
ATOM      3  N   UNL     1       5.321   3.455  14.164  0.00  0.00    +0.000 NA
ATOM      4  C   UNL     1       5.791   4.284  15.124  0.00  0.00    +0.000 A 
ATOM      5  N   UNL     1       5.247   4.389  16.369  0.00  0.00    +0.000 N 
ATOM      6  C   UNL     1       5.953   5.330  17.091  0.00  0.00    +0.000 A 
ATOM      7  C   UNL     1       6.973   5.806  16.285  0.00  0.00    +0.000 A 
ATOM      8  C   UNL     1       6.862   5.138  15.052  0.00  0.00    +0.000 A 
ATOM      9  C   UNL     1       7.611   5.180  13.822  0.00  0.00    +0.000 A 
ATOM     10  O   UNL     1       8.601   5.877  13.631  0.00  0.00    +0.000 OA
ATOM     11  N   UNL     1       7.093   4.331  12.860  0.00  0.00    +0.000 N 
ATOM     12  H   UNL     1       4.714   2.342  12.093  0.00  0.00    +0.000 HD
ATOM     13  H   UNL     1       5.881   3.038  11.073  0.00  0.00    +0.000 HD
ATOM     14  H   UNL     1       4.456   3.853  16.698  0.00  0.00    +0.000 HD
ATOM     15  H   UNL     1       7.599   4.307  11.994  0.00  0.00    +0.000 HD
ENDROOT
BRANCH   6  16
ATOM     16  C   UNL     1       5.605   5.675  18.488  0.00  0.00    +0.000 C 
BRANCH  16  17
ATOM     17  C   UNL     1       4.285   5.032  18.924  0.00  0.00    +0.000 C 
BRANCH  17  18
ATOM     18  C   UNL     1       3.125   6.026  18.879  0.00  0.00    +0.000 C 
BRANCH  18  19
ATOM     19  C   UNL     1       2.298   5.984  20.162  0.00  0.00    +0.000 C 
BRANCH  19  20
ATOM     20  C   UNL     1       2.400   4.638  20.858  0.00  0.00    +0.000 C 
BRANCH  20  21
ATOM     21  C   UNL     1       1.090   3.865  20.704  0.00  0.00    +0.000 C 
BRANCH  21  22
ATOM     22  C   UNL     1       1.360   2.503  20.080  0.00  0.00    +0.000 C 
BRANCH  22  23
ATOM     23  C   UNL     1       1.045   2.480  18.587  0.00  0.00    +0.000 C 
BRANCH  23  24
ATOM     24  C   UNL     1       2.315   2.416  17.773  0.00  0.00    +0.000 C 
ATOM     25  O   UNL     1       2.477   2.929  16.677  0.00  0.00    +0.000 OA
BRANCH  24  26
ATOM     26  O   UNL     1       3.293   1.715  18.392  0.00  0.00    +0.000 OA
ATOM     27  H   UNL     1       4.069   2.253  18.634  0.00  0.00    +0.000 HD
ENDBRANCH  24  26
ENDBRANCH  23  24
ENDBRANCH  22  23
ENDBRANCH  21  22
ENDBRANCH  20  21
ENDBRANCH  19  20
ENDBRANCH  18  19
ENDBRANCH  17  18
ENDBRANCH  16  17
ENDBRANCH   6  16
TORSDOF 10
ENDMDL
