MODEL 1
REMARK VINA RESULT:      -7.0      0.000      0.000
REMARK  Name = 
REMARK  7 active torsions:
REMARK  status: ('A' for Active; 'I' for Inactive)
REMARK    1  A    between atoms: C_2  and  C_3
REMARK    2  A    between atoms: C_2  and  N_4
REMARK    3  A    between atoms: C_8  and  C_10
REMARK    4  A    between atoms: C_10  and  C_11
REMARK    5  A    between atoms: C_10  and  C_13
REMARK    6  A    between atoms: C_11  and  C_12
REMARK    7  A    between atoms: C_13  and  C_14
REMARK                            x       y       z     vdW  Elec       q    Type
REMARK                         _______ _______ _______ _____ _____    ______ ____
ROOT
ATOM      1  N   UNL     1       6.569   5.447  17.669  0.00  0.00    +0.000 N 
ATOM      2  C   UNL     1       5.392   4.927  18.331  0.00  0.00    +0.000 A 
ATOM      3  O   UNL     1       5.160   4.904  19.533  0.00  0.00    +0.000 OA
ATOM      4  N   UNL     1       4.538   4.381  17.325  0.00  0.00    +0.000 N 
ATOM      5  C   UNL     1       3.221   3.947  17.460  0.00  0.00    +0.000 C 
ATOM      6  O   UNL     1       2.690   3.142  16.685  0.00  0.00    +0.000 OA
ATOM      7  C   UNL     1       5.266   4.360  16.119  0.00  0.00    +0.000 A 
ATOM      8  C   UNL     1       4.902   3.837  14.886  0.00  0.00    +0.000 A 
ATOM      9  C   UNL     1       5.793   3.971  13.819  0.00  0.00    +0.000 A 
ATOM     10  C   UNL     1       7.013   4.630  13.999  0.00  0.00    +0.000 A 
ATOM     11  C   UNL     1       7.363   5.158  15.247  0.00  0.00    +0.000 A 
ATOM     12  C   UNL     1       6.480   5.022  16.310  0.00  0.00    +0.000 A 
ENDROOT
BRANCH   1  14
ATOM     13  C   UNL     1       8.234   5.847  19.382  0.00  0.00    +0.000 C 
ATOM     14  C   UNL     1       7.536   6.243  18.299  0.00  0.00    +0.000 C 
ATOM     15  C   UNL     1       7.785   7.650  17.827  0.00  0.00    +0.000 C 
ENDBRANCH   1  14
BRANCH   5  16
ATOM     16  C   UNL     1       2.380   4.604  18.571  0.00  0.00    +0.000 C 
BRANCH  16  17
ATOM     17  C   UNL     1       1.787   5.944  18.077  0.00  0.00    +0.000 C 
ATOM     18  C   UNL     1       2.517   7.198  18.533  0.00  0.00    +0.000 C 
ENDBRANCH  16  17
BRANCH  16  19
ATOM     19  C   UNL     1       1.212   3.690  18.996  0.00  0.00    +0.000 C 
ATOM     20  C   UNL     1       0.950   3.698  20.497  0.00  0.00    +0.000 C 
ENDBRANCH  16  19
ENDBRANCH   5  16
TORSDOF 4
ENDMDL
MODEL 2
REMARK VINA RESULT:      -6.8      1.651      5.480
REMARK  Name = 
REMARK  7 active torsions:
REMARK  status: ('A' for Active; 'I' for Inactive)
REMARK    1  A    between atoms: C_2  and  C_3
REMARK    2  A    between atoms: C_2  and  N_4
REMARK    3  A    between atoms: C_8  and  C_10
REMARK    4  A    between atoms: C_10  and  C_11
REMARK    5  A    between atoms: C_10  and  C_13
REMARK    6  A    between atoms: C_11  and  C_12
REMARK    7  A    between atoms: C_13  and  C_14
REMARK                            x       y       z     vdW  Elec       q    Type
REMARK                         _______ _______ _______ _____ _____    ______ ____
ROOT
ATOM      1  N   UNL     1       2.603   6.349  18.793  0.00  0.00    +0.000 N 
ATOM      2  C   UNL     1       3.649   6.151  17.812  0.00  0.00    +0.000 A 
ATOM      3  O   UNL     1       4.131   6.985  17.057  0.00  0.00    +0.000 OA
ATOM      4  N   UNL     1       4.003   4.768  17.832  0.00  0.00    +0.000 N 
ATOM      5  C   UNL     1       5.083   4.149  17.207  0.00  0.00    +0.000 C 
ATOM      6  O   UNL     1       5.109   2.942  16.936  0.00  0.00    +0.000 OA
ATOM      7  C   UNL     1       3.053   4.100  18.631  0.00  0.00    +0.000 A 
ATOM      8  C   UNL     1       2.917   2.741  18.878  0.00  0.00    +0.000 A 
ATOM      9  C   UNL     1       1.904   2.323  19.742  0.00  0.00    +0.000 A 
ATOM     10  C   UNL     1       1.063   3.260  20.350  0.00  0.00    +0.000 A 
ATOM     11  C   UNL     1       1.217   4.628  20.096  0.00  0.00    +0.000 A 
ATOM     12  C   UNL     1       2.221   5.046  19.233  0.00  0.00    +0.000 A 
ENDROOT
BRANCH   1  14
ATOM     13  C   UNL     1       1.854   7.909  20.487  0.00  0.00    +0.000 C 
ATOM     14  C   UNL     1       2.144   7.607  19.206  0.00  0.00    +0.000 C 
ATOM     15  C   UNL     1       1.870   8.685  18.192  0.00  0.00    +0.000 C 
ENDBRANCH   1  14
BRANCH   5  16
ATOM     16  C   UNL     1       6.333   5.014  16.955  0.00  0.00    +0.000 C 
BRANCH  16  17
ATOM     17  C   UNL     1       7.404   4.742  18.037  0.00  0.00    +0.000 C 
ATOM     18  C   UNL     1       7.797   5.937  18.892  0.00  0.00    +0.000 C 
ENDBRANCH  16  17
BRANCH  16  19
ATOM     19  C   UNL     1       6.954   4.702  15.577  0.00  0.00    +0.000 C 
ATOM     20  C   UNL     1       6.016   4.985  14.411  0.00  0.00    +0.000 C 
ENDBRANCH  16  19
ENDBRANCH   5  16
TORSDOF 4
ENDMDL
MODEL 3
REMARK VINA RESULT:      -6.7      1.676      5.657
REMARK  Name = 
REMARK  7 active torsions:
REMARK  status: ('A' for Active; 'I' for Inactive)
REMARK    1  A    between atoms: C_2  and  C_3
REMARK    2  A    between atoms: C_2  and  N_4
REMARK    3  A    between atoms: C_8  and  C_10
REMARK    4  A    between atoms: C_10  and  C_11
REMARK    5  A    between atoms: C_10  and  C_13
REMARK    6  A    between atoms: C_11  and  C_12
REMARK    7  A    between atoms: C_13  and  C_14
REMARK                            x       y       z     vdW  Elec       q    Type
REMARK                         _______ _______ _______ _____ _____    ______ ____
ROOT
ATOM      1  N   UNL     1       2.801   5.120  19.417  0.00  0.00    +0.000 N 
ATOM      2  C   UNL     1       3.999   4.763  18.687  0.00  0.00    +0.000 A 
ATOM      3  O   UNL     1       4.697   3.768  18.837  0.00  0.00    +0.000 OA
ATOM      4  N   UNL     1       4.274   5.820  17.767  0.00  0.00    +0.000 N 
ATOM      5  C   UNL     1       5.203   5.835  16.730  0.00  0.00    +0.000 C 
ATOM      6  O   UNL     1       5.662   6.877  16.246  0.00  0.00    +0.000 OA
ATOM      7  C   UNL     1       3.410   6.888  18.081  0.00  0.00    +0.000 A 
ATOM      8  C   UNL     1       3.359   8.163  17.533  0.00  0.00    +0.000 A 
ATOM      9  C   UNL     1       2.378   9.043  17.993  0.00  0.00    +0.000 A 
ATOM     10  C   UNL     1       1.466   8.634  18.971  0.00  0.00    +0.000 A 
ATOM     11  C   UNL     1       1.526   7.343  19.509  0.00  0.00    +0.000 A 
ATOM     12  C   UNL     1       2.503   6.467  19.056  0.00  0.00    +0.000 A 
ENDROOT
BRANCH   1  14
ATOM     13  C   UNL     1       2.411   4.055  21.557  0.00  0.00    +0.000 C 
ATOM     14  C   UNL     1       2.105   4.241  20.258  0.00  0.00    +0.000 C 
ATOM     15  C   UNL     1       1.002   3.377  19.706  0.00  0.00    +0.000 C 
ENDBRANCH   1  14
BRANCH   5  16
ATOM     16  C   UNL     1       5.573   4.477  16.103  0.00  0.00    +0.000 C 
BRANCH  16  17
ATOM     17  C   UNL     1       5.183   4.450  14.607  0.00  0.00    +0.000 C 
ATOM     18  C   UNL     1       6.264   3.969  13.651  0.00  0.00    +0.000 C 
ENDBRANCH  16  17
BRANCH  16  19
ATOM     19  C   UNL     1       7.089   4.211  16.209  0.00  0.00    +0.000 C 
ATOM     20  C   UNL     1       7.678   4.587  17.563  0.00  0.00    +0.000 C 
ENDBRANCH  16  19
ENDBRANCH   5  16
TORSDOF 4
ENDMDL
MODEL 4
REMARK VINA RESULT:      -6.6      0.641      1.017
REMARK  Name = 
REMARK  7 active torsions:
REMARK  status: ('A' for Active; 'I' for Inactive)
REMARK    1  A    between atoms: C_2  and  C_3
REMARK    2  A    between atoms: C_2  and  N_4
REMARK    3  A    between atoms: C_8  and  C_10
REMARK    4  A    between atoms: C_10  and  C_11
REMARK    5  A    between atoms: C_10  and  C_13
REMARK    6  A    between atoms: C_11  and  C_12
REMARK    7  A    between atoms: C_13  and  C_14
REMARK                            x       y       z     vdW  Elec       q    Type
REMARK                         _______ _______ _______ _____ _____    ______ ____
ROOT
ATOM      1  N   UNL     1       6.679   5.275  17.960  0.00  0.00    +0.000 N 
ATOM      2  C   UNL     1       5.626   4.573  18.662  0.00  0.00    +0.000 A 
ATOM      3  O   UNL     1       5.492   4.445  19.873  0.00  0.00    +0.000 OA
ATOM      4  N   UNL     1       4.766   3.993  17.681  0.00  0.00    +0.000 N 
ATOM      5  C   UNL     1       3.523   3.394  17.875  0.00  0.00    +0.000 C 
ATOM      6  O   UNL     1       3.032   2.582  17.082  0.00  0.00    +0.000 OA
ATOM      7  C   UNL     1       5.396   4.138  16.429  0.00  0.00    +0.000 A 
ATOM      8  C   UNL     1       5.001   3.655  15.189  0.00  0.00    +0.000 A 
ATOM      9  C   UNL     1       5.786   3.965  14.076  0.00  0.00    +0.000 A 
ATOM     10  C   UNL     1       6.931   4.755  14.219  0.00  0.00    +0.000 A 
ATOM     11  C   UNL     1       7.312   5.240  15.475  0.00  0.00    +0.000 A 
ATOM     12  C   UNL     1       6.536   4.930  16.583  0.00  0.00    +0.000 A 
ENDROOT
BRANCH   1  14
ATOM     13  C   UNL     1       7.885   7.369  18.113  0.00  0.00    +0.000 C 
ATOM     14  C   UNL     1       7.592   6.139  18.579  0.00  0.00    +0.000 C 
ATOM     15  C   UNL     1       8.371   5.684  19.784  0.00  0.00    +0.000 C 
ENDBRANCH   1  14
BRANCH   5  16
ATOM     16  C   UNL     1       2.699   3.871  19.086  0.00  0.00    +0.000 C 
BRANCH  16  17
ATOM     17  C   UNL     1       1.753   5.023  18.674  0.00  0.00    +0.000 C 
ATOM     18  C   UNL     1       2.429   6.340  18.327  0.00  0.00    +0.000 C 
ENDBRANCH  16  17
BRANCH  16  19
ATOM     19  C   UNL     1       1.839   2.724  19.658  0.00  0.00    +0.000 C 
ATOM     20  C   UNL     1       1.320   2.999  21.063  0.00  0.00    +0.000 C 
ENDBRANCH  16  19
ENDBRANCH   5  16
TORSDOF 4
ENDMDL
MODEL 5
REMARK VINA RESULT:      -6.4      1.140      1.479
REMARK  Name = 
REMARK  7 active torsions:
REMARK  status: ('A' for Active; 'I' for Inactive)
REMARK    1  A    between atoms: C_2  and  C_3
REMARK    2  A    between atoms: C_2  and  N_4
REMARK    3  A    between atoms: C_8  and  C_10
REMARK    4  A    between atoms: C_10  and  C_11
REMARK    5  A    between atoms: C_10  and  C_13
REMARK    6  A    between atoms: C_11  and  C_12
REMARK    7  A    between atoms: C_13  and  C_14
REMARK                            x       y       z     vdW  Elec       q    Type
REMARK                         _______ _______ _______ _____ _____    ______ ____
ROOT
ATOM      1  N   UNL     1       6.705   5.333  17.837  0.00  0.00    +0.000 N 
ATOM      2  C   UNL     1       5.724   4.569  18.578  0.00  0.00    +0.000 A 
ATOM      3  O   UNL     1       5.624   4.461  19.793  0.00  0.00    +0.000 OA
ATOM      4  N   UNL     1       4.895   3.897  17.629  0.00  0.00    +0.000 N 
ATOM      5  C   UNL     1       3.708   3.207  17.864  0.00  0.00    +0.000 C 
ATOM      6  O   UNL     1       3.267   2.338  17.101  0.00  0.00    +0.000 OA
ATOM      7  C   UNL     1       5.487   4.059  16.361  0.00  0.00    +0.000 A 
ATOM      8  C   UNL     1       5.108   3.515  15.142  0.00  0.00    +0.000 A 
ATOM      9  C   UNL     1       5.844   3.856  14.006  0.00  0.00    +0.000 A 
ATOM     10  C   UNL     1       6.925   4.738  14.105  0.00  0.00    +0.000 A 
ATOM     11  C   UNL     1       7.291   5.284  15.341  0.00  0.00    +0.000 A 
ATOM     12  C   UNL     1       6.563   4.942  16.472  0.00  0.00    +0.000 A 
ENDROOT
BRANCH   1  14
ATOM     13  C   UNL     1       8.258   6.065  19.545  0.00  0.00    +0.000 C 
ATOM     14  C   UNL     1       7.558   6.283  18.415  0.00  0.00    +0.000 C 
ATOM     15  C   UNL     1       7.668   7.663  17.822  0.00  0.00    +0.000 C 
ENDBRANCH   1  14
BRANCH   5  16
ATOM     16  C   UNL     1       2.872   3.648  19.080  0.00  0.00    +0.000 C 
BRANCH  16  17
ATOM     17  C   UNL     1       1.407   3.909  18.661  0.00  0.00    +0.000 C 
ATOM     18  C   UNL     1       0.455   2.732  18.815  0.00  0.00    +0.000 C 
ENDBRANCH  16  17
BRANCH  16  19
ATOM     19  C   UNL     1       2.871   2.562  20.176  0.00  0.00    +0.000 C 
ATOM     20  C   UNL     1       2.518   3.096  21.559  0.00  0.00    +0.000 C 
ENDBRANCH  16  19
ENDBRANCH   5  16
TORSDOF 4
ENDMDL
MODEL 6
REMARK VINA RESULT:      -6.4      1.739      5.805
REMARK  Name = 
REMARK  7 active torsions:
REMARK  status: ('A' for Active; 'I' for Inactive)
REMARK    1  A    between atoms: C_2  and  C_3
REMARK    2  A    between atoms: C_2  and  N_4
REMARK    3  A    between atoms: C_8  and  C_10
REMARK    4  A    between atoms: C_10  and  C_11
REMARK    5  A    between atoms: C_10  and  C_13
REMARK    6  A    between atoms: C_11  and  C_12
REMARK    7  A    between atoms: C_13  and  C_14
REMARK                            x       y       z     vdW  Elec       q    Type
REMARK                         _______ _______ _______ _____ _____    ______ ____
ROOT
ATOM      1  N   UNL     1       2.970   4.170  19.802  0.00  0.00    +0.000 N 
ATOM      2  C   UNL     1       4.175   4.122  19.001  0.00  0.00    +0.000 A 
ATOM      3  O   UNL     1       4.989   3.209  18.931  0.00  0.00    +0.000 OA
ATOM      4  N   UNL     1       4.293   5.372  18.323  0.00  0.00    +0.000 N 
ATOM      5  C   UNL     1       5.177   5.716  17.303  0.00  0.00    +0.000 C 
ATOM      6  O   UNL     1       5.494   6.884  17.046  0.00  0.00    +0.000 OA
ATOM      7  C   UNL     1       3.321   6.238  18.863  0.00  0.00    +0.000 A 
ATOM      8  C   UNL     1       3.103   7.583  18.598  0.00  0.00    +0.000 A 
ATOM      9  C   UNL     1       2.043   8.223  19.243  0.00  0.00    +0.000 A 
ATOM     10  C   UNL     1       1.219   7.511  20.121  0.00  0.00    +0.000 A 
ATOM     11  C   UNL     1       1.448   6.153  20.373  0.00  0.00    +0.000 A 
ATOM     12  C   UNL     1       2.505   5.517  19.736  0.00  0.00    +0.000 A 
ENDROOT
BRANCH   1  14
ATOM     13  C   UNL     1       2.490   2.848  21.773  0.00  0.00    +0.000 C 
ATOM     14  C   UNL     1       2.412   3.057  20.445  0.00  0.00    +0.000 C 
ATOM     15  C   UNL     1       1.749   1.970  19.641  0.00  0.00    +0.000 C 
ENDBRANCH   1  14
BRANCH   5  16
ATOM     16  C   UNL     1       5.681   4.573  16.400  0.00  0.00    +0.000 C 
BRANCH  16  17
ATOM     17  C   UNL     1       5.280   4.832  14.930  0.00  0.00    +0.000 C 
ATOM     18  C   UNL     1       6.019   4.006  13.888  0.00  0.00    +0.000 C 
ENDBRANCH  16  17
BRANCH  16  19
ATOM     19  C   UNL     1       7.218   4.451  16.465  0.00  0.00    +0.000 C 
ATOM     20  C   UNL     1       7.782   4.638  17.867  0.00  0.00    +0.000 C 
ENDBRANCH  16  19
ENDBRANCH   5  16
TORSDOF 4
ENDMDL
MODEL 7
REMARK VINA RESULT:      -6.0      2.379      4.316
REMARK  Name = 
REMARK  7 active torsions:
REMARK  status: ('A' for Active; 'I' for Inactive)
REMARK    1  A    between atoms: C_2  and  C_3
REMARK    2  A    between atoms: C_2  and  N_4
REMARK    3  A    between atoms: C_8  and  C_10
REMARK    4  A    between atoms: C_10  and  C_11
REMARK    5  A    between atoms: C_10  and  C_13
REMARK    6  A    between atoms: C_11  and  C_12
REMARK    7  A    between atoms: C_13  and  C_14
REMARK                            x       y       z     vdW  Elec       q    Type
REMARK                         _______ _______ _______ _____ _____    ______ ____
ROOT
ATOM      1  N   UNL     1       3.878   4.195  18.314  0.00  0.00    +0.000 N 
ATOM      2  C   UNL     1       2.867   5.195  18.047  0.00  0.00    +0.000 A 
ATOM      3  O   UNL     1       1.654   5.035  17.991  0.00  0.00    +0.000 OA
ATOM      4  N   UNL     1       3.538   6.431  17.800  0.00  0.00    +0.000 N 
ATOM      5  C   UNL     1       2.981   7.703  17.689  0.00  0.00    +0.000 C 
ATOM      6  O   UNL     1       3.537   8.637  17.097  0.00  0.00    +0.000 OA
ATOM      7  C   UNL     1       4.915   6.149  17.693  0.00  0.00    +0.000 A 
ATOM      8  C   UNL     1       5.960   7.003  17.367  0.00  0.00    +0.000 A 
ATOM      9  C   UNL     1       7.258   6.489  17.360  0.00  0.00    +0.000 A 
ATOM     10  C   UNL     1       7.488   5.149  17.689  0.00  0.00    +0.000 A 
ATOM     11  C   UNL     1       6.423   4.303  18.021  0.00  0.00    +0.000 A 
ATOM     12  C   UNL     1       5.132   4.811  18.025  0.00  0.00    +0.000 A 
ENDROOT
BRANCH   1  14
ATOM     13  C   UNL     1       3.453   1.829  18.012  0.00  0.00    +0.000 C 
ATOM     14  C   UNL     1       3.600   2.911  18.802  0.00  0.00    +0.000 C 
ATOM     15  C   UNL     1       3.364   2.693  20.273  0.00  0.00    +0.000 C 
ENDBRANCH   1  14
BRANCH   5  16
ATOM     16  C   UNL     1       1.664   7.957  18.446  0.00  0.00    +0.000 C 
BRANCH  16  17
ATOM     17  C   UNL     1       1.938   8.146  19.956  0.00  0.00    +0.000 C 
ATOM     18  C   UNL     1       1.470   7.015  20.859  0.00  0.00    +0.000 C 
ENDBRANCH  16  17
BRANCH  16  19
ATOM     19  C   UNL     1       0.960   9.227  17.923  0.00  0.00    +0.000 C 
ATOM     20  C   UNL     1       0.232  10.008  19.010  0.00  0.00    +0.000 C 
ENDBRANCH  16  19
ENDBRANCH   5  16
TORSDOF 4
ENDMDL
MODEL 8
REMARK VINA RESULT:      -5.7      0.536      1.596
REMARK  Name = 
REMARK  7 active torsions:
REMARK  status: ('A' for Active; 'I' for Inactive)
REMARK    1  A    between atoms: C_2  and  C_3
REMARK    2  A    between atoms: C_2  and  N_4
REMARK    3  A    between atoms: C_8  and  C_10
REMARK    4  A    between atoms: C_10  and  C_11
REMARK    5  A    between atoms: C_10  and  C_13
REMARK    6  A    between atoms: C_11  and  C_12
REMARK    7  A    between atoms: C_13  and  C_14
REMARK                            x       y       z     vdW  Elec       q    Type
REMARK                         _______ _______ _______ _____ _____    ______ ____
ROOT
ATOM      1  N   UNL     1       6.438   5.589  17.700  0.00  0.00    +0.000 N 
ATOM      2  C   UNL     1       5.208   5.214  18.365  0.00  0.00    +0.000 A 
ATOM      3  O   UNL     1       4.949   5.297  19.559  0.00  0.00    +0.000 OA
ATOM      4  N   UNL     1       4.334   4.667  17.378  0.00  0.00    +0.000 N 
ATOM      5  C   UNL     1       2.983   4.351  17.507  0.00  0.00    +0.000 C 
ATOM      6  O   UNL     1       2.405   3.537  16.777  0.00  0.00    +0.000 OA
ATOM      7  C   UNL     1       5.084   4.500  16.196  0.00  0.00    +0.000 A 
ATOM      8  C   UNL     1       4.705   3.920  14.993  0.00  0.00    +0.000 A 
ATOM      9  C   UNL     1       5.627   3.903  13.945  0.00  0.00    +0.000 A 
ATOM     10  C   UNL     1       6.892   4.474  14.111  0.00  0.00    +0.000 A 
ATOM     11  C   UNL     1       7.258   5.061  15.328  0.00  0.00    +0.000 A 
ATOM     12  C   UNL     1       6.344   5.075  16.373  0.00  0.00    +0.000 A 
ENDROOT
BRANCH   1  14
ATOM     13  C   UNL     1       8.164   5.930  19.364  0.00  0.00    +0.000 C 
ATOM     14  C   UNL     1       7.452   6.348  18.299  0.00  0.00    +0.000 C 
ATOM     15  C   UNL     1       7.744   7.743  17.812  0.00  0.00    +0.000 C 
ENDBRANCH   1  14
BRANCH   5  16
ATOM     16  C   UNL     1       2.175   5.152  18.545  0.00  0.00    +0.000 C 
BRANCH  16  17
ATOM     17  C   UNL     1       2.353   4.542  19.954  0.00  0.00    +0.000 C 
ATOM     18  C   UNL     1       1.147   3.802  20.512  0.00  0.00    +0.000 C 
ENDBRANCH  16  17
BRANCH  16  19
ATOM     19  C   UNL     1       2.640   6.623  18.596  0.00  0.00    +0.000 C 
ATOM     20  C   UNL     1       2.130   7.378  19.816  0.00  0.00    +0.000 C 
ENDBRANCH  16  19
ENDBRANCH   5  16
TORSDOF 4
ENDMDL
MODEL 9
REMARK VINA RESULT:      -5.6      2.063      4.259
REMARK  Name = 
REMARK  7 active torsions:
REMARK  status: ('A' for Active; 'I' for Inactive)
REMARK    1  A    between atoms: C_2  and  C_3
REMARK    2  A    between atoms: C_2  and  N_4
REMARK    3  A    between atoms: C_8  and  C_10
REMARK    4  A    between atoms: C_10  and  C_11
REMARK    5  A    between atoms: C_10  and  C_13
REMARK    6  A    between atoms: C_11  and  C_12
REMARK    7  A    between atoms: C_13  and  C_14
REMARK                            x       y       z     vdW  Elec       q    Type
REMARK                         _______ _______ _______ _____ _____    ______ ____
ROOT
ATOM      1  N   UNL     1       4.610   4.695  17.799  0.00  0.00    +0.000 N 
ATOM      2  C   UNL     1       4.234   5.818  18.631  0.00  0.00    +0.000 A 
ATOM      3  O   UNL     1       4.852   6.862  18.799  0.00  0.00    +0.000 OA
ATOM      4  N   UNL     1       3.011   5.481  19.286  0.00  0.00    +0.000 N 
ATOM      5  C   UNL     1       2.176   6.313  20.026  0.00  0.00    +0.000 C 
ATOM      6  O   UNL     1       1.378   5.893  20.873  0.00  0.00    +0.000 OA
ATOM      7  C   UNL     1       2.766   4.114  19.043  0.00  0.00    +0.000 A 
ATOM      8  C   UNL     1       1.755   3.304  19.542  0.00  0.00    +0.000 A 
ATOM      9  C   UNL     1       1.704   1.974  19.122  0.00  0.00    +0.000 A 
ATOM     10  C   UNL     1       2.644   1.486  18.209  0.00  0.00    +0.000 A 
ATOM     11  C   UNL     1       3.653   2.317  17.710  0.00  0.00    +0.000 A 
ATOM     12  C   UNL     1       3.709   3.639  18.130  0.00  0.00    +0.000 A 
ENDROOT
BRANCH   1  14
ATOM     13  C   UNL     1       5.423   4.823  15.522  0.00  0.00    +0.000 C 
ATOM     14  C   UNL     1       5.639   4.733  16.849  0.00  0.00    +0.000 C 
ATOM     15  C   UNL     1       7.074   4.587  17.279  0.00  0.00    +0.000 C 
ENDBRANCH   1  14
BRANCH   5  16
ATOM     16  C   UNL     1       2.191   7.813  19.672  0.00  0.00    +0.000 C 
BRANCH  16  17
ATOM     17  C   UNL     1       1.910   8.013  18.165  0.00  0.00    +0.000 C 
ATOM     18  C   UNL     1       1.364   9.377  17.770  0.00  0.00    +0.000 C 
ENDBRANCH  16  17
BRANCH  16  19
ATOM     19  C   UNL     1       1.116   8.582  20.468  0.00  0.00    +0.000 C 
ATOM     20  C   UNL     1       1.581   9.016  21.852  0.00  0.00    +0.000 C 
ENDBRANCH  16  19
ENDBRANCH   5  16
TORSDOF 4
ENDMDL
