MODEL 1
REMARK VINA RESULT:      -8.7      0.000      0.000
REMARK  Name = 
REMARK  8 active torsions:
REMARK  status: ('A' for Active; 'I' for Inactive)
REMARK    1  A    between atoms: C_1  and  C_2
REMARK    2  A    between atoms: C_2  and  C_3
REMARK    3  A    between atoms: C_5  and  C_6
REMARK    4  A    between atoms: N_8  and  C_9
REMARK    5  A    between atoms: C_9  and  C_10
REMARK    6  A    between atoms: C_13  and  N_14
REMARK    7  A    between atoms: C_15  and  C_17
REMARK    8  A    between atoms: C_19  and  C_20
REMARK                            x       y       z     vdW  Elec       q    Type
REMARK                         _______ _______ _______ _____ _____    ______ ____
ROOT
ATOM      1  C   UNL     1       3.741   4.897  18.564  0.00  0.00    +0.000 C 
ATOM      2  C   UNL     1       3.515   5.428  19.991  0.00  0.00    +0.000 C 
ATOM      3  C   UNL     1       2.282   6.331  20.073  0.00  0.00    +0.000 C 
ATOM      4  C   UNL     1       2.381   7.493  19.081  0.00  0.00    +0.000 C 
ATOM      5  C   UNL     1       2.566   6.970  17.655  0.00  0.00    +0.000 C 
ATOM      6  C   UNL     1       3.787   6.060  17.557  0.00  0.00    +0.000 C 
ENDROOT
BRANCH   4   7
ATOM      7  N   UNL     1       1.216   8.362  19.158  0.00  0.00    +0.000 N 
ATOM      8  C   UNL     1       1.163   9.547  18.461  0.00  0.00    +0.000 C 
ATOM      9  O   UNL     1       2.057   9.914  17.701  0.00  0.00    +0.000 OA
ATOM     10  H   UNL     1       0.521   8.177  19.872  0.00  0.00    +0.000 HD
BRANCH   8  11
ATOM     11  C   UNL     1      -0.068  10.378  18.576  0.00  0.00    +0.000 A 
ATOM     12  C   UNL     1      -1.026  10.183  17.561  0.00  0.00    +0.000 A 
ATOM     13  C   UNL     1      -2.228  10.908  17.531  0.00  0.00    +0.000 A 
ATOM     14  C   UNL     1      -2.466  11.847  18.542  0.00  0.00    +0.000 A 
ATOM     15  C   UNL     1      -1.522  12.051  19.554  0.00  0.00    +0.000 A 
ATOM     16  C   UNL     1      -0.323  11.324  19.576  0.00  0.00    +0.000 A 
ATOM     17 CL   UNL     1       0.786  11.700  20.846  0.00  0.00    +0.000 Cl
BRANCH  13  18
ATOM     18  C   UNL     1      -3.240  10.690  16.431  0.00  0.00    +0.000 C 
ATOM     19  F   UNL     1      -3.438   9.379  16.122  0.00  0.00    +0.000 F 
ATOM     20  F   UNL     1      -4.466  11.186  16.754  0.00  0.00    +0.000 F 
ATOM     21  F   UNL     1      -2.882  11.300  15.269  0.00  0.00    +0.000 F 
ENDBRANCH  13  18
ENDBRANCH   8  11
ENDBRANCH   4   7
BRANCH   1  22
ATOM     22  C   UNL     1       5.040   4.076  18.424  0.00  0.00    +0.000 C 
BRANCH  22  28
ATOM     23  C   UNL     1       6.899   5.144  17.060  0.00  0.00    +0.000 A 
ATOM     24  C   UNL     1       7.240   5.045  15.727  0.00  0.00    +0.000 A 
ATOM     25  C   UNL     1       6.278   4.190  15.153  0.00  0.00    +0.000 A 
ATOM     26  C   UNL     1       6.161   3.776  13.734  0.00  0.00    +0.000 C 
ATOM     27  N   UNL     1       5.399   3.758  16.063  0.00  0.00    +0.000 NA
ATOM     28  N   UNL     1       5.807   4.324  17.218  0.00  0.00    +0.000 N 
BRANCH  23  30
ATOM     29  C   UNL     1       7.643   7.422  17.737  0.00  0.00    +0.000 C 
ATOM     30  C   UNL     1       7.527   5.958  18.140  0.00  0.00    +0.000 C 
ENDBRANCH  23  30
ENDBRANCH  22  28
ENDBRANCH   1  22
TORSDOF 6
ENDMDL
MODEL 2
REMARK VINA RESULT:      -8.4      4.659      9.568
REMARK  Name = 
REMARK  8 active torsions:
REMARK  status: ('A' for Active; 'I' for Inactive)
REMARK    1  A    between atoms: C_1  and  C_2
REMARK    2  A    between atoms: C_2  and  C_3
REMARK    3  A    between atoms: C_5  and  C_6
REMARK    4  A    between atoms: N_8  and  C_9
REMARK    5  A    between atoms: C_9  and  C_10
REMARK    6  A    between atoms: C_13  and  N_14
REMARK    7  A    between atoms: C_15  and  C_17
REMARK    8  A    between atoms: C_19  and  C_20
REMARK                            x       y       z     vdW  Elec       q    Type
REMARK                         _______ _______ _______ _____ _____    ______ ____
ROOT
ATOM      1  C   UNL     1       0.716   9.762  19.695  0.00  0.00    +0.000 C 
ATOM      2  C   UNL     1       0.978   8.366  20.288  0.00  0.00    +0.000 C 
ATOM      3  C   UNL     1       2.290   7.767  19.777  0.00  0.00    +0.000 C 
ATOM      4  C   UNL     1       2.312   7.710  18.247  0.00  0.00    +0.000 C 
ATOM      5  C   UNL     1       2.091   9.102  17.651  0.00  0.00    +0.000 C 
ATOM      6  C   UNL     1       0.790   9.716  18.158  0.00  0.00    +0.000 C 
ENDROOT
BRANCH   4   7
ATOM      7  N   UNL     1       3.553   7.134  17.751  0.00  0.00    +0.000 N 
ATOM      8  C   UNL     1       3.686   5.778  17.563  0.00  0.00    +0.000 C 
ATOM      9  O   UNL     1       2.763   4.986  17.746  0.00  0.00    +0.000 OA
ATOM     10  H   UNL     1       4.380   7.720  17.721  0.00  0.00    +0.000 HD
BRANCH   8  11
ATOM     11  C   UNL     1       4.981   5.262  17.038  0.00  0.00    +0.000 A 
ATOM     12  C   UNL     1       4.981   4.905  15.674  0.00  0.00    +0.000 A 
ATOM     13  C   UNL     1       6.126   4.390  15.047  0.00  0.00    +0.000 A 
ATOM     14  C   UNL     1       7.290   4.229  15.809  0.00  0.00    +0.000 A 
ATOM     15  C   UNL     1       7.302   4.577  17.164  0.00  0.00    +0.000 A 
ATOM     16  C   UNL     1       6.153   5.090  17.783  0.00  0.00    +0.000 A 
ATOM     17 CL   UNL     1       6.275   5.435  19.472  0.00  0.00    +0.000 Cl
BRANCH  13  18
ATOM     18  C   UNL     1       6.107   4.008  13.585  0.00  0.00    +0.000 C 
ATOM     19  F   UNL     1       6.993   4.706  12.825  0.00  0.00    +0.000 F 
ATOM     20  F   UNL     1       6.404   2.693  13.392  0.00  0.00    +0.000 F 
ATOM     21  F   UNL     1       4.887   4.204  13.016  0.00  0.00    +0.000 F 
ENDBRANCH  13  18
ENDBRANCH   8  11
ENDBRANCH   4   7
BRANCH   1  22
ATOM     22  C   UNL     1      -0.655  10.343  20.102  0.00  0.00    +0.000 C 
BRANCH  22  28
ATOM     23  C   UNL     1      -0.825  11.619  22.292  0.00  0.00    +0.000 A 
ATOM     24  C   UNL     1      -0.682  12.957  22.595  0.00  0.00    +0.000 A 
ATOM     25  C   UNL     1      -0.429  13.598  21.365  0.00  0.00    +0.000 A 
ATOM     26  C   UNL     1      -0.231  15.046  21.119  0.00  0.00    +0.000 C 
ATOM     27  N   UNL     1      -0.392  12.724  20.354  0.00  0.00    +0.000 NA
ATOM     28  N   UNL     1      -0.606  11.527  20.938  0.00  0.00    +0.000 N 
BRANCH  23  30
ATOM     29  C   UNL     1       0.048   9.581  23.426  0.00  0.00    +0.000 C 
ATOM     30  C   UNL     1      -1.161  10.476  23.190  0.00  0.00    +0.000 C 
ENDBRANCH  23  30
ENDBRANCH  22  28
ENDBRANCH   1  22
TORSDOF 6
ENDMDL
MODEL 3
REMARK VINA RESULT:      -8.3      1.026      1.041
REMARK  Name = 
REMARK  8 active torsions:
REMARK  status: ('A' for Active; 'I' for Inactive)
REMARK    1  A    between atoms: C_1  and  C_2
REMARK    2  A    between atoms: C_2  and  C_3
REMARK    3  A    between atoms: C_5  and  C_6
REMARK    4  A    between atoms: N_8  and  C_9
REMARK    5  A    between atoms: C_9  and  C_10
REMARK    6  A    between atoms: C_13  and  N_14
REMARK    7  A    between atoms: C_15  and  C_17
REMARK    8  A    between atoms: C_19  and  C_20
REMARK                            x       y       z     vdW  Elec       q    Type
REMARK                         _______ _______ _______ _____ _____    ______ ____
ROOT
ATOM      1  C   UNL     1       3.651   5.470  18.534  0.00  0.00    +0.000 C 
ATOM      2  C   UNL     1       3.014   5.799  19.897  0.00  0.00    +0.000 C 
ATOM      3  C   UNL     1       1.820   6.744  19.754  0.00  0.00    +0.000 C 
ATOM      4  C   UNL     1       2.218   8.031  19.025  0.00  0.00    +0.000 C 
ATOM      5  C   UNL     1       2.814   7.712  17.653  0.00  0.00    +0.000 C 
ATOM      6  C   UNL     1       4.002   6.763  17.777  0.00  0.00    +0.000 C 
ENDROOT
BRANCH   4   7
ATOM      7  N   UNL     1       1.089   8.940  18.892  0.00  0.00    +0.000 N 
ATOM      8  C   UNL     1       0.535   9.557  19.990  0.00  0.00    +0.000 C 
ATOM      9  O   UNL     1       0.985   9.423  21.127  0.00  0.00    +0.000 OA
ATOM     10  H   UNL     1       0.597   8.973  18.007  0.00  0.00    +0.000 HD
BRANCH   8  11
ATOM     11  C   UNL     1      -0.608  10.486  19.775  0.00  0.00    +0.000 A 
ATOM     12  C   UNL     1      -1.292  10.330  18.553  0.00  0.00    +0.000 A 
ATOM     13  C   UNL     1      -2.381  11.146  18.207  0.00  0.00    +0.000 A 
ATOM     14  C   UNL     1      -2.785  12.137  19.109  0.00  0.00    +0.000 A 
ATOM     15  C   UNL     1      -2.113  12.304  20.325  0.00  0.00    +0.000 A 
ATOM     16  C   UNL     1      -1.025  11.485  20.662  0.00  0.00    +0.000 A 
ATOM     17 CL   UNL     1      -0.244  11.820  22.167  0.00  0.00    +0.000 Cl
BRANCH  13  18
ATOM     18  C   UNL     1      -3.099  10.968  16.889  0.00  0.00    +0.000 C 
ATOM     19  F   UNL     1      -3.487   9.687  16.647  0.00  0.00    +0.000 F 
ATOM     20  F   UNL     1      -4.229  11.722  16.812  0.00  0.00    +0.000 F 
ATOM     21  F   UNL     1      -2.330  11.334  15.828  0.00  0.00    +0.000 F 
ENDBRANCH  13  18
ENDBRANCH   8  11
ENDBRANCH   4   7
BRANCH   1  22
ATOM     22  C   UNL     1       4.927   4.611  18.655  0.00  0.00    +0.000 C 
BRANCH  22  28
ATOM     23  C   UNL     1       7.025   5.167  17.335  0.00  0.00    +0.000 A 
ATOM     24  C   UNL     1       7.400   4.889  16.037  0.00  0.00    +0.000 A 
ATOM     25  C   UNL     1       6.312   4.197  15.468  0.00  0.00    +0.000 A 
ATOM     26  C   UNL     1       6.179   3.695  14.080  0.00  0.00    +0.000 C 
ATOM     27  N   UNL     1       5.322   4.028  16.352  0.00  0.00    +0.000 NA
ATOM     28  N   UNL     1       5.782   4.597  17.485  0.00  0.00    +0.000 N 
BRANCH  23  30
ATOM     29  C   UNL     1       7.842   7.410  18.044  0.00  0.00    +0.000 C 
ATOM     30  C   UNL     1       7.754   5.930  18.389  0.00  0.00    +0.000 C 
ENDBRANCH  23  30
ENDBRANCH  22  28
ENDBRANCH   1  22
TORSDOF 6
ENDMDL
MODEL 4
REMARK VINA RESULT:      -8.2      2.804      3.332
REMARK  Name = 
REMARK  8 active torsions:
REMARK  status: ('A' for Active; 'I' for Inactive)
REMARK    1  A    between atoms: C_1  and  C_2
REMARK    2  A    between atoms: C_2  and  C_3
REMARK    3  A    between atoms: C_5  and  C_6
REMARK    4  A    between atoms: N_8  and  C_9
REMARK    5  A    between atoms: C_9  and  C_10
REMARK    6  A    between atoms: C_13  and  N_14
REMARK    7  A    between atoms: C_15  and  C_17
REMARK    8  A    between atoms: C_19  and  C_20
REMARK                            x       y       z     vdW  Elec       q    Type
REMARK                         _______ _______ _______ _____ _____    ______ ____
ROOT
ATOM      1  C   UNL     1       3.584   5.298  18.429  0.00  0.00    +0.000 C 
ATOM      2  C   UNL     1       2.967   5.488  19.826  0.00  0.00    +0.000 C 
ATOM      3  C   UNL     1       1.827   6.509  19.811  0.00  0.00    +0.000 C 
ATOM      4  C   UNL     1       2.297   7.853  19.247  0.00  0.00    +0.000 C 
ATOM      5  C   UNL     1       2.876   7.677  17.842  0.00  0.00    +0.000 C 
ATOM      6  C   UNL     1       4.009   6.655  17.838  0.00  0.00    +0.000 C 
ENDROOT
BRANCH   4   7
ATOM      7  N   UNL     1       1.221   8.833  19.236  0.00  0.00    +0.000 N 
ATOM      8  C   UNL     1       0.760   9.398  20.403  0.00  0.00    +0.000 C 
ATOM      9  O   UNL     1       1.253   9.156  21.502  0.00  0.00    +0.000 OA
ATOM     10  H   UNL     1       0.691   8.960  18.383  0.00  0.00    +0.000 HD
BRANCH   8  11
ATOM     11  C   UNL     1      -0.334  10.406  20.313  0.00  0.00    +0.000 A 
ATOM     12  C   UNL     1      -0.667  11.045  21.525  0.00  0.00    +0.000 A 
ATOM     13  C   UNL     1      -1.688  12.006  21.595  0.00  0.00    +0.000 A 
ATOM     14  C   UNL     1      -2.386  12.326  20.424  0.00  0.00    +0.000 A 
ATOM     15  C   UNL     1      -2.067  11.697  19.216  0.00  0.00    +0.000 A 
ATOM     16  C   UNL     1      -1.046  10.737  19.155  0.00  0.00    +0.000 A 
ATOM     17 CL   UNL     1      -0.778   9.992  17.619  0.00  0.00    +0.000 Cl
BRANCH  13  18
ATOM     18  C   UNL     1      -2.035  12.677  22.904  0.00  0.00    +0.000 C 
ATOM     19  F   UNL     1      -0.953  13.146  23.582  0.00  0.00    +0.000 F 
ATOM     20  F   UNL     1      -2.861  13.746  22.732  0.00  0.00    +0.000 F 
ATOM     21  F   UNL     1      -2.680  11.838  23.760  0.00  0.00    +0.000 F 
ENDBRANCH  13  18
ENDBRANCH   8  11
ENDBRANCH   4   7
BRANCH   1  22
ATOM     22  C   UNL     1       4.810   4.361  18.433  0.00  0.00    +0.000 C 
BRANCH  22  28
ATOM     23  C   UNL     1       6.897   5.015  17.140  0.00  0.00    +0.000 A 
ATOM     24  C   UNL     1       7.260   4.835  15.821  0.00  0.00    +0.000 A 
ATOM     25  C   UNL     1       6.167   4.187  15.212  0.00  0.00    +0.000 A 
ATOM     26  C   UNL     1       6.022   3.790  13.792  0.00  0.00    +0.000 C 
ATOM     27  N   UNL     1       5.185   3.952  16.089  0.00  0.00    +0.000 NA
ATOM     28  N   UNL     1       5.655   4.435  17.257  0.00  0.00    +0.000 N 
BRANCH  23  30
ATOM     29  C   UNL     1       7.750   7.195  17.990  0.00  0.00    +0.000 C 
ATOM     30  C   UNL     1       7.636   5.697  18.241  0.00  0.00    +0.000 C 
ENDBRANCH  23  30
ENDBRANCH  22  28
ENDBRANCH   1  22
TORSDOF 6
ENDMDL
MODEL 5
REMARK VINA RESULT:      -8.2      0.852      1.137
REMARK  Name = 
REMARK  8 active torsions:
REMARK  status: ('A' for Active; 'I' for Inactive)
REMARK    1  A    between atoms: C_1  and  C_2
REMARK    2  A    between atoms: C_2  and  C_3
REMARK    3  A    between atoms: C_5  and  C_6
REMARK    4  A    between atoms: N_8  and  C_9
REMARK    5  A    between atoms: C_9  and  C_10
REMARK    6  A    between atoms: C_13  and  N_14
REMARK    7  A    between atoms: C_15  and  C_17
REMARK    8  A    between atoms: C_19  and  C_20
REMARK                            x       y       z     vdW  Elec       q    Type
REMARK                         _______ _______ _______ _____ _____    ______ ____
ROOT
ATOM      1  C   UNL     1       3.178   4.761  18.809  0.00  0.00    +0.000 C 
ATOM      2  C   UNL     1       3.026   5.246  20.262  0.00  0.00    +0.000 C 
ATOM      3  C   UNL     1       1.931   6.307  20.396  0.00  0.00    +0.000 C 
ATOM      4  C   UNL     1       2.193   7.492  19.462  0.00  0.00    +0.000 C 
ATOM      5  C   UNL     1       2.306   7.020  18.011  0.00  0.00    +0.000 C 
ATOM      6  C   UNL     1       3.388   5.955  17.861  0.00  0.00    +0.000 C 
ENDROOT
BRANCH   4   7
ATOM      7  N   UNL     1       1.161   8.510  19.588  0.00  0.00    +0.000 N 
ATOM      8  C   UNL     1       1.256   9.709  18.920  0.00  0.00    +0.000 C 
ATOM      9  O   UNL     1       2.175   9.970  18.145  0.00  0.00    +0.000 OA
ATOM     10  H   UNL     1       0.464   8.404  20.315  0.00  0.00    +0.000 HD
BRANCH   8  11
ATOM     11  C   UNL     1       0.154  10.698  19.085  0.00  0.00    +0.000 A 
ATOM     12  C   UNL     1      -1.068  10.347  18.477  0.00  0.00    +0.000 A 
ATOM     13  C   UNL     1      -2.190  11.189  18.537  0.00  0.00    +0.000 A 
ATOM     14  C   UNL     1      -2.076  12.406  19.220  0.00  0.00    +0.000 A 
ATOM     15  C   UNL     1      -0.867  12.766  19.825  0.00  0.00    +0.000 A 
ATOM     16  C   UNL     1       0.249  11.920  19.760  0.00  0.00    +0.000 A 
ATOM     17 CL   UNL     1       1.700  12.496  20.501  0.00  0.00    +0.000 Cl
BRANCH  13  18
ATOM     18  C   UNL     1      -3.491  10.799  17.874  0.00  0.00    +0.000 C 
ATOM     19  F   UNL     1      -4.594  11.113  18.607  0.00  0.00    +0.000 F 
ATOM     20  F   UNL     1      -3.658  11.408  16.668  0.00  0.00    +0.000 F 
ATOM     21  F   UNL     1      -3.568   9.462  17.633  0.00  0.00    +0.000 F 
ENDBRANCH  13  18
ENDBRANCH   8  11
ENDBRANCH   4   7
BRANCH   1  22
ATOM     22  C   UNL     1       4.350   3.775  18.622  0.00  0.00    +0.000 C 
BRANCH  22  28
ATOM     23  C   UNL     1       6.435   4.892  17.693  0.00  0.00    +0.000 A 
ATOM     24  C   UNL     1       6.968   4.940  16.422  0.00  0.00    +0.000 A 
ATOM     25  C   UNL     1       6.070   4.222  15.607  0.00  0.00    +0.000 A 
ATOM     26  C   UNL     1       6.151   3.995  14.145  0.00  0.00    +0.000 C 
ATOM     27  N   UNL     1       5.047   3.733  16.316  0.00  0.00    +0.000 NA
ATOM     28  N   UNL     1       5.299   4.125  17.582  0.00  0.00    +0.000 N 
BRANCH  23  30
ATOM     29  C   UNL     1       7.955   6.610  18.661  0.00  0.00    +0.000 C 
ATOM     30  C   UNL     1       6.925   5.527  18.951  0.00  0.00    +0.000 C 
ENDBRANCH  23  30
ENDBRANCH  22  28
ENDBRANCH   1  22
TORSDOF 6
ENDMDL
MODEL 6
REMARK VINA RESULT:      -8.0      4.589      9.636
REMARK  Name = 
REMARK  8 active torsions:
REMARK  status: ('A' for Active; 'I' for Inactive)
REMARK    1  A    between atoms: C_1  and  C_2
REMARK    2  A    between atoms: C_2  and  C_3
REMARK    3  A    between atoms: C_5  and  C_6
REMARK    4  A    between atoms: N_8  and  C_9
REMARK    5  A    between atoms: C_9  and  C_10
REMARK    6  A    between atoms: C_13  and  N_14
REMARK    7  A    between atoms: C_15  and  C_17
REMARK    8  A    between atoms: C_19  and  C_20
REMARK                            x       y       z     vdW  Elec       q    Type
REMARK                         _______ _______ _______ _____ _____    ______ ____
ROOT
ATOM      1  C   UNL     1       0.754   9.722  19.816  0.00  0.00    +0.000 C 
ATOM      2  C   UNL     1       0.991   8.301  20.359  0.00  0.00    +0.000 C 
ATOM      3  C   UNL     1       2.292   7.697  19.827  0.00  0.00    +0.000 C 
ATOM      4  C   UNL     1       2.314   7.694  18.296  0.00  0.00    +0.000 C 
ATOM      5  C   UNL     1       2.119   9.110  17.751  0.00  0.00    +0.000 C 
ATOM      6  C   UNL     1       0.829   9.730  18.278  0.00  0.00    +0.000 C 
ENDROOT
BRANCH   4   7
ATOM      7  N   UNL     1       3.546   7.114  17.781  0.00  0.00    +0.000 N 
ATOM      8  C   UNL     1       3.679   5.755  17.616  0.00  0.00    +0.000 C 
ATOM      9  O   UNL     1       2.765   4.963  17.839  0.00  0.00    +0.000 OA
ATOM     10  H   UNL     1       4.368   7.702  17.718  0.00  0.00    +0.000 HD
BRANCH   8  11
ATOM     11  C   UNL     1       4.963   5.234  17.069  0.00  0.00    +0.000 A 
ATOM     12  C   UNL     1       4.935   4.864  15.709  0.00  0.00    +0.000 A 
ATOM     13  C   UNL     1       6.067   4.343  15.063  0.00  0.00    +0.000 A 
ATOM     14  C   UNL     1       7.246   4.190  15.802  0.00  0.00    +0.000 A 
ATOM     15  C   UNL     1       7.287   4.550  17.153  0.00  0.00    +0.000 A 
ATOM     16  C   UNL     1       6.151   5.070  17.791  0.00  0.00    +0.000 A 
ATOM     17 CL   UNL     1       6.308   5.431  19.474  0.00  0.00    +0.000 Cl
BRANCH  13  18
ATOM     18  C   UNL     1       6.016   3.946  13.606  0.00  0.00    +0.000 C 
ATOM     19  F   UNL     1       4.780   4.065  13.049  0.00  0.00    +0.000 F 
ATOM     20  F   UNL     1       6.846   4.703  12.837  0.00  0.00    +0.000 F 
ATOM     21  F   UNL     1       6.395   2.655  13.408  0.00  0.00    +0.000 F 
ENDBRANCH  13  18
ENDBRANCH   8  11
ENDBRANCH   4   7
BRANCH   1  22
ATOM     22  C   UNL     1      -0.606  10.313  20.243  0.00  0.00    +0.000 C 
BRANCH  22  28
ATOM     23  C   UNL     1      -0.913  12.328  21.761  0.00  0.00    +0.000 A 
ATOM     24  C   UNL     1      -0.769  13.681  21.538  0.00  0.00    +0.000 A 
ATOM     25  C   UNL     1      -0.416  13.807  20.180  0.00  0.00    +0.000 A 
ATOM     26  C   UNL     1      -0.176  15.052  19.414  0.00  0.00    +0.000 C 
ATOM     27  N   UNL     1      -0.320  12.613  19.585  0.00  0.00    +0.000 NA
ATOM     28  N   UNL     1      -0.597  11.727  20.564  0.00  0.00    +0.000 N 
BRANCH  23  30
ATOM     29  C   UNL     1      -2.735  12.019  23.429  0.00  0.00    +0.000 C 
ATOM     30  C   UNL     1      -1.333  11.610  22.999  0.00  0.00    +0.000 C 
ENDBRANCH  23  30
ENDBRANCH  22  28
ENDBRANCH   1  22
TORSDOF 6
ENDMDL
MODEL 7
REMARK VINA RESULT:      -8.0      2.636      3.117
REMARK  Name = 
REMARK  8 active torsions:
REMARK  status: ('A' for Active; 'I' for Inactive)
REMARK    1  A    between atoms: C_1  and  C_2
REMARK    2  A    between atoms: C_2  and  C_3
REMARK    3  A    between atoms: C_5  and  C_6
REMARK    4  A    between atoms: N_8  and  C_9
REMARK    5  A    between atoms: C_9  and  C_10
REMARK    6  A    between atoms: C_13  and  N_14
REMARK    7  A    between atoms: C_15  and  C_17
REMARK    8  A    between atoms: C_19  and  C_20
REMARK                            x       y       z     vdW  Elec       q    Type
REMARK                         _______ _______ _______ _____ _____    ______ ____
ROOT
ATOM      1  C   UNL     1       3.557   5.114  18.576  0.00  0.00    +0.000 C 
ATOM      2  C   UNL     1       3.164   5.259  20.057  0.00  0.00    +0.000 C 
ATOM      3  C   UNL     1       1.980   6.210  20.241  0.00  0.00    +0.000 C 
ATOM      4  C   UNL     1       2.273   7.583  19.630  0.00  0.00    +0.000 C 
ATOM      5  C   UNL     1       2.626   7.449  18.147  0.00  0.00    +0.000 C 
ATOM      6  C   UNL     1       3.801   6.497  17.945  0.00  0.00    +0.000 C 
ENDROOT
BRANCH   4   7
ATOM      7  N   UNL     1       1.154   8.497  19.807  0.00  0.00    +0.000 N 
ATOM      8  C   UNL     1       1.109   9.704  19.148  0.00  0.00    +0.000 C 
ATOM      9  O   UNL     1       1.967  10.057  18.342  0.00  0.00    +0.000 OA
ATOM     10  H   UNL     1       0.500   8.320  20.559  0.00  0.00    +0.000 HD
BRANCH   8  11
ATOM     11  C   UNL     1      -0.075  10.582  19.367  0.00  0.00    +0.000 A 
ATOM     12  C   UNL     1      -0.036  11.368  20.536  0.00  0.00    +0.000 A 
ATOM     13  C   UNL     1      -1.089  12.231  20.880  0.00  0.00    +0.000 A 
ATOM     14  C   UNL     1      -2.199  12.301  20.031  0.00  0.00    +0.000 A 
ATOM     15  C   UNL     1      -2.251  11.524  18.869  0.00  0.00    +0.000 A 
ATOM     16  C   UNL     1      -1.196  10.663  18.533  0.00  0.00    +0.000 A 
ATOM     17 CL   UNL     1      -1.397   9.717  17.101  0.00  0.00    +0.000 Cl
BRANCH  13  18
ATOM     18  C   UNL     1      -1.032  13.062  22.141  0.00  0.00    +0.000 C 
ATOM     19  F   UNL     1      -1.920  14.094  22.156  0.00  0.00    +0.000 F 
ATOM     20  F   UNL     1      -1.296  12.327  23.255  0.00  0.00    +0.000 F 
ATOM     21  F   UNL     1       0.194  13.619  22.339  0.00  0.00    +0.000 F 
ENDBRANCH  13  18
ENDBRANCH   8  11
ENDBRANCH   4   7
BRANCH   1  22
ATOM     22  C   UNL     1       4.820   4.252  18.368  0.00  0.00    +0.000 C 
BRANCH  22  28
ATOM     23  C   UNL     1       6.674   5.181  16.900  0.00  0.00    +0.000 A 
ATOM     24  C   UNL     1       6.909   5.093  15.544  0.00  0.00    +0.000 A 
ATOM     25  C   UNL     1       5.831   4.352  15.020  0.00  0.00    +0.000 A 
ATOM     26  C   UNL     1       5.575   3.997  13.604  0.00  0.00    +0.000 C 
ATOM     27  N   UNL     1       4.979   3.977  15.981  0.00  0.00    +0.000 NA
ATOM     28  N   UNL     1       5.521   4.463  17.117  0.00  0.00    +0.000 N 
BRANCH  23  30
ATOM     29  C   UNL     1       7.585   7.380  17.632  0.00  0.00    +0.000 C 
ATOM     30  C   UNL     1       7.452   5.897  17.952  0.00  0.00    +0.000 C 
ENDBRANCH  23  30
ENDBRANCH  22  28
ENDBRANCH   1  22
TORSDOF 6
ENDMDL
MODEL 8
REMARK VINA RESULT:      -8.0      4.180      9.842
REMARK  Name = 
REMARK  8 active torsions:
REMARK  status: ('A' for Active; 'I' for Inactive)
REMARK    1  A    between atoms: C_1  and  C_2
REMARK    2  A    between atoms: C_2  and  C_3
REMARK    3  A    between atoms: C_5  and  C_6
REMARK    4  A    between atoms: N_8  and  C_9
REMARK    5  A    between atoms: C_9  and  C_10
REMARK    6  A    between atoms: C_13  and  N_14
REMARK    7  A    between atoms: C_15  and  C_17
REMARK    8  A    between atoms: C_19  and  C_20
REMARK                            x       y       z     vdW  Elec       q    Type
REMARK                         _______ _______ _______ _____ _____    ______ ____
ROOT
ATOM      1  C   UNL     1      -0.978  11.074  20.051  0.00  0.00    +0.000 C 
ATOM      2  C   UNL     1      -0.342  10.990  18.651  0.00  0.00    +0.000 C 
ATOM      3  C   UNL     1       0.293   9.621  18.396  0.00  0.00    +0.000 C 
ATOM      4  C   UNL     1       1.326   9.281  19.474  0.00  0.00    +0.000 C 
ATOM      5  C   UNL     1       0.689   9.325  20.864  0.00  0.00    +0.000 C 
ATOM      6  C   UNL     1       0.045  10.681  21.132  0.00  0.00    +0.000 C 
ENDROOT
BRANCH   4   7
ATOM      7  N   UNL     1       1.941   7.983  19.235  0.00  0.00    +0.000 N 
ATOM      8  C   UNL     1       2.623   7.722  18.069  0.00  0.00    +0.000 C 
ATOM      9  O   UNL     1       2.801   8.568  17.196  0.00  0.00    +0.000 OA
ATOM     10  H   UNL     1       1.705   7.216  19.852  0.00  0.00    +0.000 HD
BRANCH   8  11
ATOM     11  C   UNL     1       3.239   6.376  17.900  0.00  0.00    +0.000 A 
ATOM     12  C   UNL     1       2.393   5.285  18.181  0.00  0.00    +0.000 A 
ATOM     13  C   UNL     1       2.841   3.958  18.079  0.00  0.00    +0.000 A 
ATOM     14  C   UNL     1       4.166   3.729  17.690  0.00  0.00    +0.000 A 
ATOM     15  C   UNL     1       5.017   4.804  17.412  0.00  0.00    +0.000 A 
ATOM     16  C   UNL     1       4.562   6.126  17.517  0.00  0.00    +0.000 A 
ATOM     17 CL   UNL     1       5.719   7.369  17.197  0.00  0.00    +0.000 Cl
BRANCH  13  18
ATOM     18  C   UNL     1       1.921   2.801  18.390  0.00  0.00    +0.000 C 
ATOM     19  F   UNL     1       2.063   2.311  19.651  0.00  0.00    +0.000 F 
ATOM     20  F   UNL     1       0.608   3.139  18.267  0.00  0.00    +0.000 F 
ATOM     21  F   UNL     1       2.116   1.745  17.553  0.00  0.00    +0.000 F 
ENDBRANCH  13  18
ENDBRANCH   8  11
ENDBRANCH   4   7
BRANCH   1  22
ATOM     22  C   UNL     1      -1.525  12.479  20.381  0.00  0.00    +0.000 C 
BRANCH  22  28
ATOM     23  C   UNL     1      -3.604  12.602  21.836  0.00  0.00    +0.000 A 
ATOM     24  C   UNL     1      -4.947  12.636  21.526  0.00  0.00    +0.000 A 
ATOM     25  C   UNL     1      -5.013  12.552  20.120  0.00  0.00    +0.000 A 
ATOM     26  C   UNL     1      -6.225  12.514  19.268  0.00  0.00    +0.000 C 
ATOM     27  N   UNL     1      -3.794  12.490  19.574  0.00  0.00    +0.000 NA
ATOM     28  N   UNL     1      -2.952  12.550  20.626  0.00  0.00    +0.000 N 
BRANCH  23  30
ATOM     29  C   UNL     1      -3.962  12.564  24.300  0.00  0.00    +0.000 C 
ATOM     30  C   UNL     1      -2.940  12.601  23.172  0.00  0.00    +0.000 C 
ENDBRANCH  23  30
ENDBRANCH  22  28
ENDBRANCH   1  22
TORSDOF 6
ENDMDL
MODEL 9
REMARK VINA RESULT:      -7.9      2.405      2.783
REMARK  Name = 
REMARK  8 active torsions:
REMARK  status: ('A' for Active; 'I' for Inactive)
REMARK    1  A    between atoms: C_1  and  C_2
REMARK    2  A    between atoms: C_2  and  C_3
REMARK    3  A    between atoms: C_5  and  C_6
REMARK    4  A    between atoms: N_8  and  C_9
REMARK    5  A    between atoms: C_9  and  C_10
REMARK    6  A    between atoms: C_13  and  N_14
REMARK    7  A    between atoms: C_15  and  C_17
REMARK    8  A    between atoms: C_19  and  C_20
REMARK                            x       y       z     vdW  Elec       q    Type
REMARK                         _______ _______ _______ _____ _____    ______ ____
ROOT
ATOM      1  C   UNL     1       2.824   4.912  18.734  0.00  0.00    +0.000 C 
ATOM      2  C   UNL     1       2.529   5.247  20.208  0.00  0.00    +0.000 C 
ATOM      3  C   UNL     1       1.605   6.459  20.342  0.00  0.00    +0.000 C 
ATOM      4  C   UNL     1       2.187   7.680  19.623  0.00  0.00    +0.000 C 
ATOM      5  C   UNL     1       2.446   7.365  18.148  0.00  0.00    +0.000 C 
ATOM      6  C   UNL     1       3.359   6.153  17.997  0.00  0.00    +0.000 C 
ENDROOT
BRANCH   4   7
ATOM      7  N   UNL     1       1.318   8.840  19.752  0.00  0.00    +0.000 N 
ATOM      8  C   UNL     1       1.139   9.466  20.964  0.00  0.00    +0.000 C 
ATOM      9  O   UNL     1       1.733   9.124  21.985  0.00  0.00    +0.000 OA
ATOM     10  H   UNL     1       0.703   9.072  18.981  0.00  0.00    +0.000 HD
BRANCH   8  11
ATOM     11  C   UNL     1       0.247  10.658  21.017  0.00  0.00    +0.000 A 
ATOM     12  C   UNL     1       0.385  11.564  19.946  0.00  0.00    +0.000 A 
ATOM     13  C   UNL     1      -0.380  12.739  19.871  0.00  0.00    +0.000 A 
ATOM     14  C   UNL     1      -1.297  13.005  20.894  0.00  0.00    +0.000 A 
ATOM     15  C   UNL     1      -1.441  12.116  21.964  0.00  0.00    +0.000 A 
ATOM     16  C   UNL     1      -0.672  10.944  22.032  0.00  0.00    +0.000 A 
ATOM     17 CL   UNL     1      -0.902   9.950  23.427  0.00  0.00    +0.000 Cl
BRANCH  13  18
ATOM     18  C   UNL     1      -0.215  13.701  18.717  0.00  0.00    +0.000 C 
ATOM     19  F   UNL     1       1.082  13.925  18.373  0.00  0.00    +0.000 F 
ATOM     20  F   UNL     1      -0.831  13.261  17.586  0.00  0.00    +0.000 F 
ATOM     21  F   UNL     1      -0.748  14.924  18.984  0.00  0.00    +0.000 F 
ENDBRANCH  13  18
ENDBRANCH   8  11
ENDBRANCH   4   7
BRANCH   1  22
ATOM     22  C   UNL     1       3.844   3.766  18.569  0.00  0.00    +0.000 C 
BRANCH  22  28
ATOM     23  C   UNL     1       6.129   4.693  17.957  0.00  0.00    +0.000 A 
ATOM     24  C   UNL     1       6.830   4.713  16.769  0.00  0.00    +0.000 A 
ATOM     25  C   UNL     1       5.985   4.100  15.821  0.00  0.00    +0.000 A 
ATOM     26  C   UNL     1       6.240   3.894  14.376  0.00  0.00    +0.000 C 
ATOM     27  N   UNL     1       4.836   3.699  16.374  0.00  0.00    +0.000 NA
ATOM     28  N   UNL     1       4.952   4.041  17.674  0.00  0.00    +0.000 N 
BRANCH  23  30
ATOM     29  C   UNL     1       7.918   5.819  19.274  0.00  0.00    +0.000 C 
ATOM     30  C   UNL     1       6.504   5.254  19.287  0.00  0.00    +0.000 C 
ENDBRANCH  23  30
ENDBRANCH  22  28
ENDBRANCH   1  22
TORSDOF 6
ENDMDL
