MODEL 1
REMARK VINA RESULT:      -8.4      0.000      0.000
REMARK  Name = 
REMARK  2 active torsions:
REMARK  status: ('A' for Active; 'I' for Inactive)
REMARK    1  A    between atoms: C_5  and  C_6
REMARK    2  A    between atoms: C_8  and  C_9
REMARK                            x       y       z     vdW  Elec       q    Type
REMARK                         _______ _______ _______ _____ _____    ______ ____
ROOT
ATOM      1  C   UNL     1       3.712   6.398  17.916  0.00  0.00    +0.000 C 
ATOM      2  C   UNL     1       4.732   5.986  18.994  0.00  0.00    +0.000 C 
ATOM      3  C   UNL     1       5.538   4.779  18.469  0.00  0.00    +0.000 C 
ATOM      4  N   UNL     1       5.969   5.044  17.101  0.00  0.00    +0.000 N 
ATOM      5  N   UNL     1       6.925   4.342  16.461  0.00  0.00    +0.000 NA
ATOM      6  C   UNL     1       6.895   4.925  15.257  0.00  0.00    +0.000 A 
ATOM      7  N   UNL     1       5.989   5.942  15.110  0.00  0.00    +0.000 NA
ATOM      8  C   UNL     1       5.424   6.008  16.286  0.00  0.00    +0.000 A 
ATOM      9  N   UNL     1       4.450   6.834  16.736  0.00  0.00    +0.000 N 
ATOM     10  H   UNL     1       3.913   7.319  16.021  0.00  0.00    +0.000 HD
ENDROOT
BRANCH   1  15
ATOM     11 CL   UNL     1      -0.039  10.712  19.921  0.00  0.00    +0.000 Cl
ATOM     12  C   UNL     1       1.012   9.454  19.376  0.00  0.00    +0.000 A 
ATOM     13  C   UNL     1       1.456   9.498  18.051  0.00  0.00    +0.000 A 
ATOM     14  C   UNL     1       2.314   8.509  17.556  0.00  0.00    +0.000 A 
ATOM     15  C   UNL     1       2.748   7.467  18.385  0.00  0.00    +0.000 A 
ATOM     16  C   UNL     1       2.288   7.429  19.714  0.00  0.00    +0.000 A 
ATOM     17  C   UNL     1       1.428   8.415  20.210  0.00  0.00    +0.000 A 
ATOM     18 CL   UNL     1       0.932   8.286  21.861  0.00  0.00    +0.000 Cl
ENDBRANCH   1  15
BRANCH   3  19
ATOM     19  C   UNL     1       4.708   3.528  18.555  0.00  0.00    +0.000 A 
ATOM     20  C   UNL     1       3.796   2.900  17.728  0.00  0.00    +0.000 A 
ATOM     21  C   UNL     1       3.296   1.788  18.449  0.00  0.00    +0.000 A 
ATOM     22  C   UNL     1       3.945   1.791  19.659  0.00  0.00    +0.000 A 
ATOM     23  O   UNL     1       4.803   2.838  19.732  0.00  0.00    +0.000 OA
ENDBRANCH   3  19
TORSDOF 2
ENDMDL
MODEL 2
REMARK VINA RESULT:      -8.3      2.579      3.820
REMARK  Name = 
REMARK  2 active torsions:
REMARK  status: ('A' for Active; 'I' for Inactive)
REMARK    1  A    between atoms: C_5  and  C_6
REMARK    2  A    between atoms: C_8  and  C_9
REMARK                            x       y       z     vdW  Elec       q    Type
REMARK                         _______ _______ _______ _____ _____    ______ ____
ROOT
ATOM      1  C   UNL     1       2.700   6.486  19.449  0.00  0.00    +0.000 C 
ATOM      2  C   UNL     1       2.680   5.616  18.177  0.00  0.00    +0.000 C 
ATOM      3  C   UNL     1       3.486   4.329  18.452  0.00  0.00    +0.000 C 
ATOM      4  N   UNL     1       3.083   3.773  19.739  0.00  0.00    +0.000 N 
ATOM      5  N   UNL     1       3.366   2.519  20.141  0.00  0.00    +0.000 NA
ATOM      6  C   UNL     1       2.847   2.532  21.375  0.00  0.00    +0.000 A 
ATOM      7  N   UNL     1       2.260   3.708  21.762  0.00  0.00    +0.000 NA
ATOM      8  C   UNL     1       2.410   4.472  20.713  0.00  0.00    +0.000 A 
ATOM      9  N   UNL     1       2.021   5.753  20.511  0.00  0.00    +0.000 N 
ATOM     10  H   UNL     1       1.786   6.284  21.346  0.00  0.00    +0.000 HD
ENDROOT
BRANCH   1  15
ATOM     11 CL   UNL     1       0.322  12.017  18.770  0.00  0.00    +0.000 Cl
ATOM     12  C   UNL     1       0.969  10.430  18.991  0.00  0.00    +0.000 A 
ATOM     13  C   UNL     1       1.650   9.844  17.920  0.00  0.00    +0.000 A 
ATOM     14  C   UNL     1       2.200   8.563  18.042  0.00  0.00    +0.000 A 
ATOM     15  C   UNL     1       2.084   7.854  19.245  0.00  0.00    +0.000 A 
ATOM     16  C   UNL     1       1.389   8.451  20.313  0.00  0.00    +0.000 A 
ATOM     17  C   UNL     1       0.836   9.730  20.191  0.00  0.00    +0.000 A 
ATOM     18 CL   UNL     1       0.014  10.379  21.566  0.00  0.00    +0.000 Cl
ENDBRANCH   1  15
BRANCH   3  19
ATOM     19  C   UNL     1       4.959   4.625  18.414  0.00  0.00    +0.000 A 
ATOM     20  C   UNL     1       5.862   5.214  19.278  0.00  0.00    +0.000 A 
ATOM     21  C   UNL     1       7.101   5.270  18.592  0.00  0.00    +0.000 A 
ATOM     22  C   UNL     1       6.886   4.695  17.364  0.00  0.00    +0.000 A 
ATOM     23  O   UNL     1       5.594   4.298  17.247  0.00  0.00    +0.000 OA
ENDBRANCH   3  19
TORSDOF 2
ENDMDL
MODEL 3
REMARK VINA RESULT:      -8.2      2.187      3.520
REMARK  Name = 
REMARK  2 active torsions:
REMARK  status: ('A' for Active; 'I' for Inactive)
REMARK    1  A    between atoms: C_5  and  C_6
REMARK    2  A    between atoms: C_8  and  C_9
REMARK                            x       y       z     vdW  Elec       q    Type
REMARK                         _______ _______ _______ _____ _____    ______ ____
ROOT
ATOM      1  C   UNL     1       3.129   6.470  19.259  0.00  0.00    +0.000 C 
ATOM      2  C   UNL     1       3.553   5.974  17.864  0.00  0.00    +0.000 C 
ATOM      3  C   UNL     1       4.621   4.873  18.041  0.00  0.00    +0.000 C 
ATOM      4  N   UNL     1       4.178   3.930  19.061  0.00  0.00    +0.000 N 
ATOM      5  N   UNL     1       4.720   2.710  19.248  0.00  0.00    +0.000 NA
ATOM      6  C   UNL     1       4.022   2.291  20.310  0.00  0.00    +0.000 A 
ATOM      7  N   UNL     1       3.083   3.166  20.790  0.00  0.00    +0.000 NA
ATOM      8  C   UNL     1       3.191   4.187  19.982  0.00  0.00    +0.000 A 
ATOM      9  N   UNL     1       2.508   5.356  19.967  0.00  0.00    +0.000 N 
ATOM     10  H   UNL     1       2.005   5.588  20.820  0.00  0.00    +0.000 HD
ENDROOT
BRANCH   1  15
ATOM     11 CL   UNL     1      -0.466  11.346  19.187  0.00  0.00    +0.000 Cl
ATOM     12  C   UNL     1       0.535   9.939  19.238  0.00  0.00    +0.000 A 
ATOM     13  C   UNL     1       1.157   9.532  18.054  0.00  0.00    +0.000 A 
ATOM     14  C   UNL     1       1.984   8.403  18.037  0.00  0.00    +0.000 A 
ATOM     15  C   UNL     1       2.207   7.670  19.210  0.00  0.00    +0.000 A 
ATOM     16  C   UNL     1       1.569   8.085  20.394  0.00  0.00    +0.000 A 
ATOM     17  C   UNL     1       0.740   9.211  20.412  0.00  0.00    +0.000 A 
ATOM     18 CL   UNL     1       0.015   9.645  21.919  0.00  0.00    +0.000 Cl
ENDBRANCH   1  15
BRANCH   3  19
ATOM     19  C   UNL     1       5.944   5.491  18.394  0.00  0.00    +0.000 A 
ATOM     20  C   UNL     1       6.826   6.346  17.761  0.00  0.00    +0.000 A 
ATOM     21  C   UNL     1       7.952   6.469  18.612  0.00  0.00    +0.000 A 
ATOM     22  C   UNL     1       7.683   5.702  19.718  0.00  0.00    +0.000 A 
ATOM     23  O   UNL     1       6.469   5.109  19.599  0.00  0.00    +0.000 OA
ENDBRANCH   3  19
TORSDOF 2
ENDMDL
MODEL 4
REMARK VINA RESULT:      -8.0      2.259      3.541
REMARK  Name = 
REMARK  2 active torsions:
REMARK  status: ('A' for Active; 'I' for Inactive)
REMARK    1  A    between atoms: C_5  and  C_6
REMARK    2  A    between atoms: C_8  and  C_9
REMARK                            x       y       z     vdW  Elec       q    Type
REMARK                         _______ _______ _______ _____ _____    ______ ____
ROOT
ATOM      1  C   UNL     1       2.821   6.494  19.239  0.00  0.00    +0.000 C 
ATOM      2  C   UNL     1       3.155   6.332  17.744  0.00  0.00    +0.000 C 
ATOM      3  C   UNL     1       4.100   5.123  17.583  0.00  0.00    +0.000 C 
ATOM      4  N   UNL     1       3.582   3.999  18.354  0.00  0.00    +0.000 N 
ATOM      5  N   UNL     1       3.992   2.724  18.200  0.00  0.00    +0.000 NA
ATOM      6  C   UNL     1       3.279   2.118  19.157  0.00  0.00    +0.000 A 
ATOM      7  N   UNL     1       2.453   2.930  19.888  0.00  0.00    +0.000 NA
ATOM      8  C   UNL     1       2.651   4.108  19.359  0.00  0.00    +0.000 A 
ATOM      9  N   UNL     1       2.100   5.304  19.674  0.00  0.00    +0.000 N 
ATOM     10  H   UNL     1       1.645   5.358  20.582  0.00  0.00    +0.000 HD
ENDROOT
BRANCH   1  15
ATOM     11 CL   UNL     1      -0.215  11.564  20.573  0.00  0.00    +0.000 Cl
ATOM     12  C   UNL     1       0.627  10.098  20.222  0.00  0.00    +0.000 A 
ATOM     13  C   UNL     1       1.102   9.910  18.921  0.00  0.00    +0.000 A 
ATOM     14  C   UNL     1       1.797   8.744  18.579  0.00  0.00    +0.000 A 
ATOM     15  C   UNL     1       2.034   7.753  19.541  0.00  0.00    +0.000 A 
ATOM     16  C   UNL     1       1.544   7.950  20.845  0.00  0.00    +0.000 A 
ATOM     17  C   UNL     1       0.847   9.113  21.187  0.00  0.00    +0.000 A 
ATOM     18 CL   UNL     1       0.298   9.265  22.818  0.00  0.00    +0.000 Cl
ENDBRANCH   1  15
BRANCH   3  19
ATOM     19  C   UNL     1       5.492   5.495  18.013  0.00  0.00    +0.000 A 
ATOM     20  C   UNL     1       6.265   5.262  19.134  0.00  0.00    +0.000 A 
ATOM     21  C   UNL     1       7.473   5.978  18.948  0.00  0.00    +0.000 A 
ATOM     22  C   UNL     1       7.374   6.586  17.721  0.00  0.00    +0.000 A 
ATOM     23  O   UNL     1       6.181   6.298  17.145  0.00  0.00    +0.000 OA
ENDBRANCH   3  19
TORSDOF 2
ENDMDL
MODEL 5
REMARK VINA RESULT:      -7.9      2.094      3.369
REMARK  Name = 
REMARK  2 active torsions:
REMARK  status: ('A' for Active; 'I' for Inactive)
REMARK    1  A    between atoms: C_5  and  C_6
REMARK    2  A    between atoms: C_8  and  C_9
REMARK                            x       y       z     vdW  Elec       q    Type
REMARK                         _______ _______ _______ _____ _____    ______ ____
ROOT
ATOM      1  C   UNL     1       3.102   6.868  18.486  0.00  0.00    +0.000 C 
ATOM      2  C   UNL     1       3.620   7.002  17.042  0.00  0.00    +0.000 C 
ATOM      3  C   UNL     1       4.651   5.882  16.787  0.00  0.00    +0.000 C 
ATOM      4  N   UNL     1       4.116   4.614  17.269  0.00  0.00    +0.000 N 
ATOM      5  N   UNL     1       4.619   3.408  16.940  0.00  0.00    +0.000 NA
ATOM      6  C   UNL     1       3.836   2.606  17.671  0.00  0.00    +0.000 A 
ATOM      7  N   UNL     1       2.881   3.233  18.426  0.00  0.00    +0.000 NA
ATOM      8  C   UNL     1       3.067   4.496  18.150  0.00  0.00    +0.000 A 
ATOM      9  N   UNL     1       2.409   5.590  18.603  0.00  0.00    +0.000 N 
ATOM     10  H   UNL     1       1.848   5.455  19.440  0.00  0.00    +0.000 HD
ENDROOT
BRANCH   1  15
ATOM     11 CL   UNL     1      -0.359  11.498  20.299  0.00  0.00    +0.000 Cl
ATOM     12  C   UNL     1       0.608  10.152  19.811  0.00  0.00    +0.000 A 
ATOM     13  C   UNL     1       1.041  10.104  18.482  0.00  0.00    +0.000 A 
ATOM     14  C   UNL     1       1.832   9.041  18.031  0.00  0.00    +0.000 A 
ATOM     15  C   UNL     1       2.209   8.016  18.908  0.00  0.00    +0.000 A 
ATOM     16  C   UNL     1       1.760   8.072  20.241  0.00  0.00    +0.000 A 
ATOM     17  C   UNL     1       0.967   9.131  20.693  0.00  0.00    +0.000 A 
ATOM     18 CL   UNL     1       0.479   9.114  22.350  0.00  0.00    +0.000 Cl
ENDBRANCH   1  15
BRANCH   3  19
ATOM     19  C   UNL     1       5.956   6.221  17.451  0.00  0.00    +0.000 A 
ATOM     20  C   UNL     1       6.673   5.711  18.517  0.00  0.00    +0.000 A 
ATOM     21  C   UNL     1       7.798   6.555  18.688  0.00  0.00    +0.000 A 
ATOM     22  C   UNL     1       7.712   7.513  17.709  0.00  0.00    +0.000 A 
ATOM     23  O   UNL     1       6.603   7.318  16.953  0.00  0.00    +0.000 OA
ENDBRANCH   3  19
TORSDOF 2
ENDMDL
MODEL 6
REMARK VINA RESULT:      -7.9      1.055      1.713
REMARK  Name = 
REMARK  2 active torsions:
REMARK  status: ('A' for Active; 'I' for Inactive)
REMARK    1  A    between atoms: C_5  and  C_6
REMARK    2  A    between atoms: C_8  and  C_9
REMARK                            x       y       z     vdW  Elec       q    Type
REMARK                         _______ _______ _______ _____ _____    ______ ____
ROOT
ATOM      1  C   UNL     1       3.162   6.527  18.435  0.00  0.00    +0.000 C 
ATOM      2  C   UNL     1       4.170   5.767  19.318  0.00  0.00    +0.000 C 
ATOM      3  C   UNL     1       4.850   4.680  18.458  0.00  0.00    +0.000 C 
ATOM      4  N   UNL     1       5.265   5.260  17.186  0.00  0.00    +0.000 N 
ATOM      5  N   UNL     1       6.137   4.677  16.340  0.00  0.00    +0.000 NA
ATOM      6  C   UNL     1       6.125   5.556  15.330  0.00  0.00    +0.000 A 
ATOM      7  N   UNL     1       5.310   6.644  15.497  0.00  0.00    +0.000 NA
ATOM      8  C   UNL     1       4.787   6.443  16.677  0.00  0.00    +0.000 A 
ATOM      9  N   UNL     1       3.903   7.197  17.373  0.00  0.00    +0.000 N 
ATOM     10  H   UNL     1       3.392   7.893  16.835  0.00  0.00    +0.000 HD
ENDROOT
BRANCH   1  15
ATOM     11 CL   UNL     1      -0.364  10.446  21.421  0.00  0.00    +0.000 Cl
ATOM     12  C   UNL     1       0.659   9.361  20.548  0.00  0.00    +0.000 A 
ATOM     13  C   UNL     1       1.062   8.184  21.185  0.00  0.00    +0.000 A 
ATOM     14  C   UNL     1       1.886   7.265  20.525  0.00  0.00    +0.000 A 
ATOM     15  C   UNL     1       2.310   7.508  19.212  0.00  0.00    +0.000 A 
ATOM     16  C   UNL     1       1.904   8.700  18.585  0.00  0.00    +0.000 A 
ATOM     17  C   UNL     1       1.084   9.621  19.244  0.00  0.00    +0.000 A 
ATOM     18 CL   UNL     1       0.630  11.048  18.381  0.00  0.00    +0.000 Cl
ENDBRANCH   1  15
BRANCH   3  19
ATOM     19  C   UNL     1       3.914   3.521  18.259  0.00  0.00    +0.000 A 
ATOM     20  C   UNL     1       2.963   3.181  17.316  0.00  0.00    +0.000 A 
ATOM     21  C   UNL     1       2.360   1.981  17.764  0.00  0.00    +0.000 A 
ATOM     22  C   UNL     1       2.989   1.649  18.939  0.00  0.00    +0.000 A 
ATOM     23  O   UNL     1       3.934   2.572  19.245  0.00  0.00    +0.000 OA
ENDBRANCH   3  19
TORSDOF 2
ENDMDL
MODEL 7
REMARK VINA RESULT:      -7.8      2.249      3.746
REMARK  Name = 
REMARK  2 active torsions:
REMARK  status: ('A' for Active; 'I' for Inactive)
REMARK    1  A    between atoms: C_5  and  C_6
REMARK    2  A    between atoms: C_8  and  C_9
REMARK                            x       y       z     vdW  Elec       q    Type
REMARK                         _______ _______ _______ _____ _____    ______ ____
ROOT
ATOM      1  C   UNL     1       2.830   6.341  19.293  0.00  0.00    +0.000 C 
ATOM      2  C   UNL     1       3.174   6.482  17.798  0.00  0.00    +0.000 C 
ATOM      3  C   UNL     1       4.136   5.340  17.408  0.00  0.00    +0.000 C 
ATOM      4  N   UNL     1       3.629   4.079  17.938  0.00  0.00    +0.000 N 
ATOM      5  N   UNL     1       4.056   2.865  17.537  0.00  0.00    +0.000 NA
ATOM      6  C   UNL     1       3.346   2.073  18.349  0.00  0.00    +0.000 A 
ATOM      7  N   UNL     1       2.505   2.714  19.221  0.00  0.00    +0.000 NA
ATOM      8  C   UNL     1       2.691   3.976  18.937  0.00  0.00    +0.000 A 
ATOM      9  N   UNL     1       2.123   5.079  19.479  0.00  0.00    +0.000 N 
ATOM     10  H   UNL     1       1.663   4.947  20.376  0.00  0.00    +0.000 HD
ENDROOT
BRANCH   1  15
ATOM     11 CL   UNL     1      -0.487  10.990  21.312  0.00  0.00    +0.000 Cl
ATOM     12  C   UNL     1       0.483   9.692  20.715  0.00  0.00    +0.000 A 
ATOM     13  C   UNL     1       0.644   8.566  21.527  0.00  0.00    +0.000 A 
ATOM     14  C   UNL     1       1.414   7.480  21.092  0.00  0.00    +0.000 A 
ATOM     15  C   UNL     1       2.026   7.505  19.833  0.00  0.00    +0.000 A 
ATOM     16  C   UNL     1       1.864   8.648  19.028  0.00  0.00    +0.000 A 
ATOM     17  C   UNL     1       1.097   9.734  19.462  0.00  0.00    +0.000 A 
ATOM     18 CL   UNL     1       0.948  11.084  18.393  0.00  0.00    +0.000 Cl
ENDBRANCH   1  15
BRANCH   3  19
ATOM     19  C   UNL     1       5.520   5.636  17.914  0.00  0.00    +0.000 A 
ATOM     20  C   UNL     1       6.276   5.225  18.996  0.00  0.00    +0.000 A 
ATOM     21  C   UNL     1       7.486   5.959  18.946  0.00  0.00    +0.000 A 
ATOM     22  C   UNL     1       7.407   6.755  17.830  0.00  0.00    +0.000 A 
ATOM     23  O   UNL     1       6.223   6.564  17.196  0.00  0.00    +0.000 OA
ENDBRANCH   3  19
TORSDOF 2
ENDMDL
MODEL 8
REMARK VINA RESULT:      -7.6      2.231      3.860
REMARK  Name = 
REMARK  2 active torsions:
REMARK  status: ('A' for Active; 'I' for Inactive)
REMARK    1  A    between atoms: C_5  and  C_6
REMARK    2  A    between atoms: C_8  and  C_9
REMARK                            x       y       z     vdW  Elec       q    Type
REMARK                         _______ _______ _______ _____ _____    ______ ____
ROOT
ATOM      1  C   UNL     1       2.700   6.576  19.608  0.00  0.00    +0.000 C 
ATOM      2  C   UNL     1       2.662   6.349  18.085  0.00  0.00    +0.000 C 
ATOM      3  C   UNL     1       3.709   5.273  17.725  0.00  0.00    +0.000 C 
ATOM      4  N   UNL     1       3.583   4.150  18.647  0.00  0.00    +0.000 N 
ATOM      5  N   UNL     1       4.130   2.936  18.437  0.00  0.00    +0.000 NA
ATOM      6  C   UNL     1       3.786   2.311  19.570  0.00  0.00    +0.000 A 
ATOM      7  N   UNL     1       3.060   3.054  20.463  0.00  0.00    +0.000 NA
ATOM      8  C   UNL     1       2.934   4.205  19.857  0.00  0.00    +0.000 A 
ATOM      9  N   UNL     1       2.305   5.333  20.262  0.00  0.00    +0.000 N 
ATOM     10  H   UNL     1       2.094   5.393  21.255  0.00  0.00    +0.000 HD
ENDROOT
BRANCH   1  15
ATOM     11 CL   UNL     1      -0.858  11.189  21.272  0.00  0.00    +0.000 Cl
ATOM     12  C   UNL     1       0.181   9.901  20.776  0.00  0.00    +0.000 A 
ATOM     13  C   UNL     1       0.319   8.803  21.631  0.00  0.00    +0.000 A 
ATOM     14  C   UNL     1       1.143   7.728  21.279  0.00  0.00    +0.000 A 
ATOM     15  C   UNL     1       1.833   7.733  20.060  0.00  0.00    +0.000 A 
ATOM     16  C   UNL     1       1.693   8.846  19.212  0.00  0.00    +0.000 A 
ATOM     17  C   UNL     1       0.872   9.924  19.563  0.00  0.00    +0.000 A 
ATOM     18 CL   UNL     1       0.756  11.237  18.447  0.00  0.00    +0.000 Cl
ENDBRANCH   1  15
BRANCH   3  19
ATOM     19  C   UNL     1       5.090   5.865  17.760  0.00  0.00    +0.000 A 
ATOM     20  C   UNL     1       5.788   6.767  16.978  0.00  0.00    +0.000 A 
ATOM     21  C   UNL     1       7.100   6.829  17.507  0.00  0.00    +0.000 A 
ATOM     22  C   UNL     1       7.120   5.981  18.588  0.00  0.00    +0.000 A 
ATOM     23  O   UNL     1       5.907   5.396  18.751  0.00  0.00    +0.000 OA
ENDBRANCH   3  19
TORSDOF 2
ENDMDL
MODEL 9
REMARK VINA RESULT:      -7.6      4.374      6.541
REMARK  Name = 
REMARK  2 active torsions:
REMARK  status: ('A' for Active; 'I' for Inactive)
REMARK    1  A    between atoms: C_5  and  C_6
REMARK    2  A    between atoms: C_8  and  C_9
REMARK                            x       y       z     vdW  Elec       q    Type
REMARK                         _______ _______ _______ _____ _____    ______ ____
ROOT
ATOM      1  C   UNL     1       3.956   4.810  17.322  0.00  0.00    +0.000 C 
ATOM      2  C   UNL     1       4.455   5.006  18.767  0.00  0.00    +0.000 C 
ATOM      3  C   UNL     1       3.228   5.098  19.699  0.00  0.00    +0.000 C 
ATOM      4  N   UNL     1       2.294   4.027  19.375  0.00  0.00    +0.000 N 
ATOM      5  N   UNL     1       1.280   3.641  20.175  0.00  0.00    +0.000 NA
ATOM      6  C   UNL     1       0.708   2.701  19.413  0.00  0.00    +0.000 A 
ATOM      7  N   UNL     1       1.302   2.476  18.199  0.00  0.00    +0.000 NA
ATOM      8  C   UNL     1       2.304   3.313  18.200  0.00  0.00    +0.000 A 
ATOM      9  N   UNL     1       3.249   3.536  17.256  0.00  0.00    +0.000 N 
ATOM     10  H   UNL     1       3.038   3.185  16.325  0.00  0.00    +0.000 HD
ENDROOT
BRANCH   1  15
ATOM     11 CL   UNL     1       8.285   5.131  13.096  0.00  0.00    +0.000 Cl
ATOM     12  C   UNL     1       7.041   5.001  14.287  0.00  0.00    +0.000 A 
ATOM     13  C   UNL     1       7.225   5.664  15.504  0.00  0.00    +0.000 A 
ATOM     14  C   UNL     1       6.248   5.599  16.504  0.00  0.00    +0.000 A 
ATOM     15  C   UNL     1       5.067   4.875  16.294  0.00  0.00    +0.000 A 
ATOM     16  C   UNL     1       4.897   4.205  15.069  0.00  0.00    +0.000 A 
ATOM     17  C   UNL     1       5.873   4.267  14.070  0.00  0.00    +0.000 A 
ATOM     18 CL   UNL     1       5.562   3.421  12.595  0.00  0.00    +0.000 Cl
ENDBRANCH   1  15
BRANCH   3  19
ATOM     19  C   UNL     1       2.585   6.451  19.572  0.00  0.00    +0.000 A 
ATOM     20  C   UNL     1       2.546   7.429  18.596  0.00  0.00    +0.000 A 
ATOM     21  C   UNL     1       1.830   8.520  19.146  0.00  0.00    +0.000 A 
ATOM     22  C   UNL     1       1.458   8.138  20.412  0.00  0.00    +0.000 A 
ATOM     23  O   UNL     1       1.907   6.886  20.678  0.00  0.00    +0.000 OA
ENDBRANCH   3  19
TORSDOF 2
ENDMDL
