MODEL 1
REMARK VINA RESULT:      -7.9      0.000      0.000
REMARK  Name = 
REMARK  6 active torsions:
REMARK  status: ('A' for Active; 'I' for Inactive)
REMARK    1  A    between atoms: C_1  and  C_2
REMARK    2  A    between atoms: C_7  and  N_8
REMARK    3  A    between atoms: C_9  and  C_10
REMARK    4  A    between atoms: C_18  and  C_19
REMARK    5  A    between atoms: C_19  and  N_20
REMARK    6  A    between atoms: C_26  and  C_27
REMARK                            x       y       z     vdW  Elec       q    Type
REMARK                         _______ _______ _______ _____ _____    ______ ____
ROOT
ATOM      1  N   UNL     1       3.730   5.232  18.575  0.00  0.00    +0.000 N 
ATOM      2  C   UNL     1       3.599   6.589  18.152  0.00  0.00    +0.000 A 
ATOM      3  C   UNL     1       4.644   6.847  17.281  0.00  0.00    +0.000 A 
ATOM      4  C   UNL     1       5.471   5.711  17.171  0.00  0.00    +0.000 A 
ATOM      5  C   UNL     1       4.879   4.718  17.938  0.00  0.00    +0.000 A 
ATOM      6  C   UNL     1       5.361   3.309  17.990  0.00  0.00    +0.000 C 
ENDROOT
BRANCH   1  13
ATOM      7  C   UNL     1       1.078   3.892  17.490  0.00  0.00    +0.000 C 
ATOM      8  C   UNL     1       1.572   3.913  18.909  0.00  0.00    +0.000 A 
ATOM      9  C   UNL     1       0.734   3.219  19.813  0.00  0.00    +0.000 A 
ATOM     10  C   UNL     1       1.095   3.017  21.139  0.00  0.00    +0.000 A 
ATOM     11  C   UNL     1       2.278   3.556  21.608  0.00  0.00    +0.000 A 
ATOM     12  C   UNL     1       3.081   4.322  20.756  0.00  0.00    +0.000 A 
ATOM     13  C   UNL     1       2.774   4.494  19.386  0.00  0.00    +0.000 A 
ENDBRANCH   1  13
BRANCH   2  14
ATOM     14  C   UNL     1       2.601   7.610  18.573  0.00  0.00    +0.000 A 
ATOM     15  C   UNL     1       2.104   7.689  19.882  0.00  0.00    +0.000 A 
ATOM     16  C   UNL     1       1.148   8.650  20.233  0.00  0.00    +0.000 A 
ATOM     17  C   UNL     1       0.734   9.591  19.298  0.00  0.00    +0.000 A 
ATOM     18  F   UNL     1      -0.164  10.517  19.643  0.00  0.00    +0.000 F 
ATOM     19  C   UNL     1       1.252   9.577  18.011  0.00  0.00    +0.000 A 
ATOM     20  C   UNL     1       2.171   8.585  17.648  0.00  0.00    +0.000 A 
ENDBRANCH   2  14
BRANCH   4  21
ATOM     21  C   UNL     1       6.713   5.604  16.329  0.00  0.00    +0.000 C 
BRANCH  21  22
ATOM     22  N   UNL     1       6.368   5.449  14.897  0.00  0.00    +0.000 NA
ATOM     23  C   UNL     1       5.496   4.265  14.716  0.00  0.00    +0.000 C 
ATOM     24  C   UNL     1       5.145   3.891  13.272  0.00  0.00    +0.000 C 
ATOM     25  S   UNL     1       6.622   3.521  12.290  0.00  0.00    +0.000 S 
ATOM     26  C   UNL     1       7.471   5.089  12.619  0.00  0.00    +0.000 C 
ATOM     27  C   UNL     1       7.626   5.345  14.123  0.00  0.00    +0.000 C 
ENDBRANCH  21  22
ENDBRANCH   4  21
TORSDOF 4
ENDMDL
MODEL 2
REMARK VINA RESULT:      -6.8      3.774      6.798
REMARK  Name = 
REMARK  6 active torsions:
REMARK  status: ('A' for Active; 'I' for Inactive)
REMARK    1  A    between atoms: C_1  and  C_2
REMARK    2  A    between atoms: C_7  and  N_8
REMARK    3  A    between atoms: C_9  and  C_10
REMARK    4  A    between atoms: C_18  and  C_19
REMARK    5  A    between atoms: C_19  and  N_20
REMARK    6  A    between atoms: C_26  and  C_27
REMARK                            x       y       z     vdW  Elec       q    Type
REMARK                         _______ _______ _______ _____ _____    ______ ____
ROOT
ATOM      1  N   UNL     1       2.107   6.509  19.325  0.00  0.00    +0.000 N 
ATOM      2  C   UNL     1       3.078   7.000  18.401  0.00  0.00    +0.000 A 
ATOM      3  C   UNL     1       2.898   8.371  18.312  0.00  0.00    +0.000 A 
ATOM      4  C   UNL     1       1.808   8.766  19.113  0.00  0.00    +0.000 A 
ATOM      5  C   UNL     1       1.357   7.622  19.756  0.00  0.00    +0.000 A 
ATOM      6  C   UNL     1       0.296   7.621  20.803  0.00  0.00    +0.000 C 
ENDROOT
BRANCH   1  13
ATOM      7  C   UNL     1       1.252   3.994  17.607  0.00  0.00    +0.000 C 
ATOM      8  C   UNL     1       1.610   4.020  19.065  0.00  0.00    +0.000 A 
ATOM      9  C   UNL     1       1.572   2.747  19.683  0.00  0.00    +0.000 A 
ATOM     10  C   UNL     1       2.000   2.553  20.990  0.00  0.00    +0.000 A 
ATOM     11  C   UNL     1       2.424   3.640  21.731  0.00  0.00    +0.000 A 
ATOM     12  C   UNL     1       2.388   4.922  21.172  0.00  0.00    +0.000 A 
ATOM     13  C   UNL     1       2.017   5.146  19.826  0.00  0.00    +0.000 A 
ENDBRANCH   1  13
BRANCH   2  14
ATOM     14  C   UNL     1       4.077   6.243  17.600  0.00  0.00    +0.000 A 
ATOM     15  C   UNL     1       4.493   6.652  16.325  0.00  0.00    +0.000 A 
ATOM     16  C   UNL     1       5.419   5.900  15.592  0.00  0.00    +0.000 A 
ATOM     17  C   UNL     1       5.996   4.769  16.157  0.00  0.00    +0.000 A 
ATOM     18  F   UNL     1       6.892   4.064  15.461  0.00  0.00    +0.000 F 
ATOM     19  C   UNL     1       5.651   4.371  17.441  0.00  0.00    +0.000 A 
ATOM     20  C   UNL     1       4.689   5.097  18.152  0.00  0.00    +0.000 A 
ENDBRANCH   2  14
BRANCH   4  21
ATOM     21  C   UNL     1       1.295  10.172  19.269  0.00  0.00    +0.000 C 
BRANCH  21  22
ATOM     22  N   UNL     1      -0.179  10.214  19.125  0.00  0.00    +0.000 NA
ATOM     23  C   UNL     1      -0.561   9.810  17.752  0.00  0.00    +0.000 C 
ATOM     24  C   UNL     1      -2.049   9.918  17.399  0.00  0.00    +0.000 C 
ATOM     25  S   UNL     1      -2.662  11.615  17.560  0.00  0.00    +0.000 S 
ATOM     26  C   UNL     1      -2.141  11.847  19.281  0.00  0.00    +0.000 C 
ATOM     27  C   UNL     1      -0.640  11.581  19.458  0.00  0.00    +0.000 C 
ENDBRANCH  21  22
ENDBRANCH   4  21
TORSDOF 4
ENDMDL
MODEL 3
REMARK VINA RESULT:      -6.5      3.764      6.687
REMARK  Name = 
REMARK  6 active torsions:
REMARK  status: ('A' for Active; 'I' for Inactive)
REMARK    1  A    between atoms: C_1  and  C_2
REMARK    2  A    between atoms: C_7  and  N_8
REMARK    3  A    between atoms: C_9  and  C_10
REMARK    4  A    between atoms: C_18  and  C_19
REMARK    5  A    between atoms: C_19  and  N_20
REMARK    6  A    between atoms: C_26  and  C_27
REMARK                            x       y       z     vdW  Elec       q    Type
REMARK                         _______ _______ _______ _____ _____    ______ ____
ROOT
ATOM      1  N   UNL     1       2.057   6.465  19.509  0.00  0.00    +0.000 N 
ATOM      2  C   UNL     1       3.038   7.004  18.622  0.00  0.00    +0.000 A 
ATOM      3  C   UNL     1       2.885   8.381  18.636  0.00  0.00    +0.000 A 
ATOM      4  C   UNL     1       1.804   8.737  19.466  0.00  0.00    +0.000 A 
ATOM      5  C   UNL     1       1.331   7.558  20.023  0.00  0.00    +0.000 A 
ATOM      6  C   UNL     1       0.271   7.500  21.070  0.00  0.00    +0.000 C 
ENDROOT
BRANCH   1  13
ATOM      7  C   UNL     1       1.194   4.096  17.598  0.00  0.00    +0.000 C 
ATOM      8  C   UNL     1       1.530   4.009  19.059  0.00  0.00    +0.000 A 
ATOM      9  C   UNL     1       1.464   2.695  19.582  0.00  0.00    +0.000 A 
ATOM     10  C   UNL     1       1.870   2.400  20.877  0.00  0.00    +0.000 A 
ATOM     11  C   UNL     1       2.297   3.423  21.702  0.00  0.00    +0.000 A 
ATOM     12  C   UNL     1       2.288   4.743  21.238  0.00  0.00    +0.000 A 
ATOM     13  C   UNL     1       1.941   5.070  19.906  0.00  0.00    +0.000 A 
ENDBRANCH   1  13
BRANCH   2  14
ATOM     14  C   UNL     1       4.021   6.289  17.764  0.00  0.00    +0.000 A 
ATOM     15  C   UNL     1       4.373   6.735  16.482  0.00  0.00    +0.000 A 
ATOM     16  C   UNL     1       5.286   6.021  15.696  0.00  0.00    +0.000 A 
ATOM     17  C   UNL     1       5.913   4.894  16.212  0.00  0.00    +0.000 A 
ATOM     18  F   UNL     1       6.796   4.226  15.465  0.00  0.00    +0.000 F 
ATOM     19  C   UNL     1       5.631   4.461  17.500  0.00  0.00    +0.000 A 
ATOM     20  C   UNL     1       4.682   5.148  18.265  0.00  0.00    +0.000 A 
ENDBRANCH   2  14
BRANCH   4  21
ATOM     21  C   UNL     1       1.319  10.137  19.728  0.00  0.00    +0.000 C 
BRANCH  21  22
ATOM     22  N   UNL     1       0.488  10.626  18.603  0.00  0.00    +0.000 NA
ATOM     23  C   UNL     1      -0.028  11.980  18.914  0.00  0.00    +0.000 C 
ATOM     24  C   UNL     1      -1.009  12.583  17.903  0.00  0.00    +0.000 C 
ATOM     25  S   UNL     1      -2.495  11.565  17.709  0.00  0.00    +0.000 S 
ATOM     26  C   UNL     1      -1.624  10.030  17.292  0.00  0.00    +0.000 C 
ATOM     27  C   UNL     1      -0.599   9.650  18.369  0.00  0.00    +0.000 C 
ENDBRANCH  21  22
ENDBRANCH   4  21
TORSDOF 4
ENDMDL
MODEL 4
REMARK VINA RESULT:      -6.5      3.845      6.888
REMARK  Name = 
REMARK  6 active torsions:
REMARK  status: ('A' for Active; 'I' for Inactive)
REMARK    1  A    between atoms: C_1  and  C_2
REMARK    2  A    between atoms: C_7  and  N_8
REMARK    3  A    between atoms: C_9  and  C_10
REMARK    4  A    between atoms: C_18  and  C_19
REMARK    5  A    between atoms: C_19  and  N_20
REMARK    6  A    between atoms: C_26  and  C_27
REMARK                            x       y       z     vdW  Elec       q    Type
REMARK                         _______ _______ _______ _____ _____    ______ ____
ROOT
ATOM      1  N   UNL     1       2.556   6.359  19.103  0.00  0.00    +0.000 N 
ATOM      2  C   UNL     1       3.267   6.707  17.915  0.00  0.00    +0.000 A 
ATOM      3  C   UNL     1       3.064   8.060  17.701  0.00  0.00    +0.000 A 
ATOM      4  C   UNL     1       2.202   8.579  18.687  0.00  0.00    +0.000 A 
ATOM      5  C   UNL     1       1.929   7.536  19.560  0.00  0.00    +0.000 A 
ATOM      6  C   UNL     1       1.159   7.692  20.826  0.00  0.00    +0.000 C 
ENDROOT
BRANCH   1  13
ATOM      7  C   UNL     1       5.196   4.766  19.808  0.00  0.00    +0.000 C 
ATOM      8  C   UNL     1       3.780   4.342  20.074  0.00  0.00    +0.000 A 
ATOM      9  C   UNL     1       3.674   3.098  20.740  0.00  0.00    +0.000 A 
ATOM     10  C   UNL     1       2.454   2.608  21.187  0.00  0.00    +0.000 A 
ATOM     11  C   UNL     1       1.301   3.324  20.927  0.00  0.00    +0.000 A 
ATOM     12  C   UNL     1       1.369   4.513  20.194  0.00  0.00    +0.000 A 
ATOM     13  C   UNL     1       2.600   5.071  19.778  0.00  0.00    +0.000 A 
ENDBRANCH   1  13
BRANCH   2  14
ATOM     14  C   UNL     1       4.043   5.831  16.996  0.00  0.00    +0.000 A 
ATOM     15  C   UNL     1       3.765   4.466  16.836  0.00  0.00    +0.000 A 
ATOM     16  C   UNL     1       4.533   3.669  15.979  0.00  0.00    +0.000 A 
ATOM     17  C   UNL     1       5.540   4.245  15.213  0.00  0.00    +0.000 A 
ATOM     18  F   UNL     1       6.258   3.485  14.383  0.00  0.00    +0.000 F 
ATOM     19  C   UNL     1       5.801   5.605  15.303  0.00  0.00    +0.000 A 
ATOM     20  C   UNL     1       5.064   6.390  16.198  0.00  0.00    +0.000 A 
ENDBRANCH   2  14
BRANCH   4  21
ATOM     21  C   UNL     1       1.735  10.006  18.785  0.00  0.00    +0.000 C 
BRANCH  21  22
ATOM     22  N   UNL     1       0.285  10.068  19.086  0.00  0.00    +0.000 NA
ATOM     23  C   UNL     1      -0.492   9.966  17.830  0.00  0.00    +0.000 C 
ATOM     24  C   UNL     1      -2.011  10.136  17.952  0.00  0.00    +0.000 C 
ATOM     25  S   UNL     1      -2.459  11.754  18.633  0.00  0.00    +0.000 S 
ATOM     26  C   UNL     1      -1.458  11.614  20.138  0.00  0.00    +0.000 C 
ATOM     27  C   UNL     1       0.014  11.327  19.815  0.00  0.00    +0.000 C 
ENDBRANCH  21  22
ENDBRANCH   4  21
TORSDOF 4
ENDMDL
MODEL 5
REMARK VINA RESULT:      -6.5      6.016      9.787
REMARK  Name = 
REMARK  6 active torsions:
REMARK  status: ('A' for Active; 'I' for Inactive)
REMARK    1  A    between atoms: C_1  and  C_2
REMARK    2  A    between atoms: C_7  and  N_8
REMARK    3  A    between atoms: C_9  and  C_10
REMARK    4  A    between atoms: C_18  and  C_19
REMARK    5  A    between atoms: C_19  and  N_20
REMARK    6  A    between atoms: C_26  and  C_27
REMARK                            x       y       z     vdW  Elec       q    Type
REMARK                         _______ _______ _______ _____ _____    ______ ____
ROOT
ATOM      1  N   UNL     1      -0.419  10.797  18.753  0.00  0.00    +0.000 N 
ATOM      2  C   UNL     1      -0.212  12.180  19.037  0.00  0.00    +0.000 A 
ATOM      3  C   UNL     1      -1.435  12.813  18.889  0.00  0.00    +0.000 A 
ATOM      4  C   UNL     1      -2.409  11.886  18.470  0.00  0.00    +0.000 A 
ATOM      5  C   UNL     1      -1.782  10.649  18.427  0.00  0.00    +0.000 A 
ATOM      6  C   UNL     1      -2.493   9.367  18.158  0.00  0.00    +0.000 C 
ENDROOT
BRANCH   1  13
ATOM      7  C   UNL     1       0.105   9.203  21.435  0.00  0.00    +0.000 C 
ATOM      8  C   UNL     1       0.818   9.035  20.123  0.00  0.00    +0.000 A 
ATOM      9  C   UNL     1       1.803   8.020  20.137  0.00  0.00    +0.000 A 
ATOM     10  C   UNL     1       2.471   7.630  18.983  0.00  0.00    +0.000 A 
ATOM     11  C   UNL     1       2.210   8.288  17.796  0.00  0.00    +0.000 A 
ATOM     12  C   UNL     1       1.304   9.354  17.774  0.00  0.00    +0.000 A 
ATOM     13  C   UNL     1       0.562   9.735  18.916  0.00  0.00    +0.000 A 
ENDBRANCH   1  13
BRANCH   2  14
ATOM     14  C   UNL     1       1.053  12.890  19.368  0.00  0.00    +0.000 A 
ATOM     15  C   UNL     1       1.466  13.128  20.688  0.00  0.00    +0.000 A 
ATOM     16  C   UNL     1       2.652  13.820  20.959  0.00  0.00    +0.000 A 
ATOM     17  C   UNL     1       3.477  14.218  19.915  0.00  0.00    +0.000 A 
ATOM     18  F   UNL     1       4.617  14.862  20.178  0.00  0.00    +0.000 F 
ATOM     19  C   UNL     1       3.128  13.945  18.599  0.00  0.00    +0.000 A 
ATOM     20  C   UNL     1       1.917  13.296  18.329  0.00  0.00    +0.000 A 
ENDBRANCH   2  14
BRANCH   4  21
ATOM     21  C   UNL     1      -3.855  12.195  18.190  0.00  0.00    +0.000 C 
BRANCH  21  22
ATOM     22  N   UNL     1      -4.712  11.779  19.325  0.00  0.00    +0.000 NA
ATOM     23  C   UNL     1      -6.008  11.274  18.815  0.00  0.00    +0.000 C 
ATOM     24  C   UNL     1      -7.062  10.914  19.869  0.00  0.00    +0.000 C 
ATOM     25  S   UNL     1      -7.503  12.338  20.899  0.00  0.00    +0.000 S 
ATOM     26  C   UNL     1      -5.813  12.724  21.430  0.00  0.00    +0.000 C 
ATOM     27  C   UNL     1      -4.877  12.936  20.233  0.00  0.00    +0.000 C 
ENDBRANCH  21  22
ENDBRANCH   4  21
TORSDOF 4
ENDMDL
MODEL 6
REMARK VINA RESULT:      -6.5      8.029     11.944
REMARK  Name = 
REMARK  6 active torsions:
REMARK  status: ('A' for Active; 'I' for Inactive)
REMARK    1  A    between atoms: C_1  and  C_2
REMARK    2  A    between atoms: C_7  and  N_8
REMARK    3  A    between atoms: C_9  and  C_10
REMARK    4  A    between atoms: C_18  and  C_19
REMARK    5  A    between atoms: C_19  and  N_20
REMARK    6  A    between atoms: C_26  and  C_27
REMARK                            x       y       z     vdW  Elec       q    Type
REMARK                         _______ _______ _______ _____ _____    ______ ____
ROOT
ATOM      1  N   UNL     1      -1.384  12.415  20.270  0.00  0.00    +0.000 N 
ATOM      2  C   UNL     1      -2.629  12.042  19.680  0.00  0.00    +0.000 A 
ATOM      3  C   UNL     1      -3.614  12.270  20.627  0.00  0.00    +0.000 A 
ATOM      4  C   UNL     1      -3.031  12.730  21.824  0.00  0.00    +0.000 A 
ATOM      5  C   UNL     1      -1.671  12.851  21.580  0.00  0.00    +0.000 A 
ATOM      6  C   UNL     1      -0.702  13.438  22.548  0.00  0.00    +0.000 C 
ENDROOT
BRANCH   1  13
ATOM      7  C   UNL     1       0.664  10.013  20.061  0.00  0.00    +0.000 C 
ATOM      8  C   UNL     1       0.833  11.403  19.516  0.00  0.00    +0.000 A 
ATOM      9  C   UNL     1       2.048  11.596  18.817  0.00  0.00    +0.000 A 
ATOM     10  C   UNL     1       2.320  12.772  18.131  0.00  0.00    +0.000 A 
ATOM     11  C   UNL     1       1.406  13.808  18.176  0.00  0.00    +0.000 A 
ATOM     12  C   UNL     1       0.237  13.675  18.932  0.00  0.00    +0.000 A 
ATOM     13  C   UNL     1      -0.099  12.469  19.591  0.00  0.00    +0.000 A 
ENDBRANCH   1  13
BRANCH   2  14
ATOM     14  C   UNL     1      -2.892  11.451  18.339  0.00  0.00    +0.000 A 
ATOM     15  C   UNL     1      -2.041  10.506  17.748  0.00  0.00    +0.000 A 
ATOM     16  C   UNL     1      -2.310   9.991  16.474  0.00  0.00    +0.000 A 
ATOM     17  C   UNL     1      -3.473  10.359  15.808  0.00  0.00    +0.000 A 
ATOM     18  F   UNL     1      -3.734   9.852  14.601  0.00  0.00    +0.000 F 
ATOM     19  C   UNL     1      -4.366  11.247  16.392  0.00  0.00    +0.000 A 
ATOM     20  C   UNL     1      -4.070  11.798  17.644  0.00  0.00    +0.000 A 
ENDBRANCH   2  14
BRANCH   4  21
ATOM     21  C   UNL     1      -3.773  13.077  23.087  0.00  0.00    +0.000 C 
BRANCH  21  22
ATOM     22  N   UNL     1      -5.211  13.300  22.810  0.00  0.00    +0.000 NA
ATOM     23  C   UNL     1      -5.450  14.734  22.526  0.00  0.00    +0.000 C 
ATOM     24  C   UNL     1      -6.911  15.157  22.338  0.00  0.00    +0.000 C 
ATOM     25  S   UNL     1      -7.911  14.814  23.809  0.00  0.00    +0.000 S 
ATOM     26  C   UNL     1      -7.505  13.050  23.912  0.00  0.00    +0.000 C 
ATOM     27  C   UNL     1      -5.989  12.820  23.975  0.00  0.00    +0.000 C 
ENDBRANCH  21  22
ENDBRANCH   4  21
TORSDOF 4
ENDMDL
MODEL 7
REMARK VINA RESULT:      -6.4      0.869      1.509
REMARK  Name = 
REMARK  6 active torsions:
REMARK  status: ('A' for Active; 'I' for Inactive)
REMARK    1  A    between atoms: C_1  and  C_2
REMARK    2  A    between atoms: C_7  and  N_8
REMARK    3  A    between atoms: C_9  and  C_10
REMARK    4  A    between atoms: C_18  and  C_19
REMARK    5  A    between atoms: C_19  and  N_20
REMARK    6  A    between atoms: C_26  and  C_27
REMARK                            x       y       z     vdW  Elec       q    Type
REMARK                         _______ _______ _______ _____ _____    ______ ____
ROOT
ATOM      1  N   UNL     1       3.806   4.811  17.872  0.00  0.00    +0.000 N 
ATOM      2  C   UNL     1       3.778   6.234  17.766  0.00  0.00    +0.000 A 
ATOM      3  C   UNL     1       4.847   6.604  16.967  0.00  0.00    +0.000 A 
ATOM      4  C   UNL     1       5.590   5.464  16.600  0.00  0.00    +0.000 A 
ATOM      5  C   UNL     1       4.920   4.370  17.129  0.00  0.00    +0.000 A 
ATOM      6  C   UNL     1       5.299   2.955  16.860  0.00  0.00    +0.000 C 
ENDROOT
BRANCH   1  13
ATOM      7  C   UNL     1       4.260   3.030  20.447  0.00  0.00    +0.000 C 
ATOM      8  C   UNL     1       2.998   3.162  19.644  0.00  0.00    +0.000 A 
ATOM      9  C   UNL     1       1.916   2.407  20.156  0.00  0.00    +0.000 A 
ATOM     10  C   UNL     1       0.637   2.507  19.626  0.00  0.00    +0.000 A 
ATOM     11  C   UNL     1       0.419   3.323  18.532  0.00  0.00    +0.000 A 
ATOM     12  C   UNL     1       1.490   4.012  17.953  0.00  0.00    +0.000 A 
ATOM     13  C   UNL     1       2.792   3.981  18.504  0.00  0.00    +0.000 A 
ENDBRANCH   1  13
BRANCH   2  14
ATOM     14  C   UNL     1       2.853   7.204  18.412  0.00  0.00    +0.000 A 
ATOM     15  C   UNL     1       2.445   7.088  19.749  0.00  0.00    +0.000 A 
ATOM     16  C   UNL     1       1.555   8.008  20.314  0.00  0.00    +0.000 A 
ATOM     17  C   UNL     1       1.120   9.099  19.571  0.00  0.00    +0.000 A 
ATOM     18  F   UNL     1       0.285   9.985  20.120  0.00  0.00    +0.000 F 
ATOM     19  C   UNL     1       1.553   9.276  18.264  0.00  0.00    +0.000 A 
ATOM     20  C   UNL     1       2.404   8.328  17.686  0.00  0.00    +0.000 A 
ENDBRANCH   2  14
BRANCH   4  21
ATOM     21  C   UNL     1       6.829   5.459  15.746  0.00  0.00    +0.000 C 
BRANCH  21  22
ATOM     22  N   UNL     1       6.484   5.289  14.315  0.00  0.00    +0.000 NA
ATOM     23  C   UNL     1       5.653   4.075  14.142  0.00  0.00    +0.000 C 
ATOM     24  C   UNL     1       5.309   3.685  12.700  0.00  0.00    +0.000 C 
ATOM     25  S   UNL     1       6.795   3.363  11.713  0.00  0.00    +0.000 S 
ATOM     26  C   UNL     1       7.589   4.961  12.034  0.00  0.00    +0.000 C 
ATOM     27  C   UNL     1       7.741   5.226  13.537  0.00  0.00    +0.000 C 
ENDBRANCH  21  22
ENDBRANCH   4  21
TORSDOF 4
ENDMDL
MODEL 8
REMARK VINA RESULT:      -6.4      7.374      9.203
REMARK  Name = 
REMARK  6 active torsions:
REMARK  status: ('A' for Active; 'I' for Inactive)
REMARK    1  A    between atoms: C_1  and  C_2
REMARK    2  A    between atoms: C_7  and  N_8
REMARK    3  A    between atoms: C_9  and  C_10
REMARK    4  A    between atoms: C_18  and  C_19
REMARK    5  A    between atoms: C_19  and  N_20
REMARK    6  A    between atoms: C_26  and  C_27
REMARK                            x       y       z     vdW  Elec       q    Type
REMARK                         _______ _______ _______ _____ _____    ______ ____
ROOT
ATOM      1  N   UNL     1       0.089  12.568  20.245  0.00  0.00    +0.000 N 
ATOM      2  C   UNL     1      -0.761  12.910  19.150  0.00  0.00    +0.000 A 
ATOM      3  C   UNL     1      -0.189  14.001  18.516  0.00  0.00    +0.000 A 
ATOM      4  C   UNL     1       0.975  14.400  19.201  0.00  0.00    +0.000 A 
ATOM      5  C   UNL     1       1.155  13.492  20.234  0.00  0.00    +0.000 A 
ATOM      6  C   UNL     1       2.350  13.472  21.124  0.00  0.00    +0.000 C 
ENDROOT
BRANCH   1  13
ATOM      7  C   UNL     1      -1.376  12.541  23.048  0.00  0.00    +0.000 C 
ATOM      8  C   UNL     1      -0.685  11.392  22.372  0.00  0.00    +0.000 A 
ATOM      9  C   UNL     1      -0.751  10.180  23.100  0.00  0.00    +0.000 A 
ATOM     10  C   UNL     1      -0.286   8.982  22.574  0.00  0.00    +0.000 A 
ATOM     11  C   UNL     1       0.310   8.977  21.327  0.00  0.00    +0.000 A 
ATOM     12  C   UNL     1       0.466  10.176  20.624  0.00  0.00    +0.000 A 
ATOM     13  C   UNL     1      -0.050  11.402  21.103  0.00  0.00    +0.000 A 
ENDBRANCH   1  13
BRANCH   2  14
ATOM     14  C   UNL     1      -2.058  12.304  18.746  0.00  0.00    +0.000 A 
ATOM     15  C   UNL     1      -2.183  11.446  17.644  0.00  0.00    +0.000 A 
ATOM     16  C   UNL     1      -3.426  10.914  17.281  0.00  0.00    +0.000 A 
ATOM     17  C   UNL     1      -4.546  11.173  18.062  0.00  0.00    +0.000 A 
ATOM     18  F   UNL     1      -5.727  10.648  17.723  0.00  0.00    +0.000 F 
ATOM     19  C   UNL     1      -4.445  11.969  19.194  0.00  0.00    +0.000 A 
ATOM     20  C   UNL     1      -3.210  12.540  19.526  0.00  0.00    +0.000 A 
ENDBRANCH   2  14
BRANCH   4  21
ATOM     21  C   UNL     1       1.866  15.553  18.825  0.00  0.00    +0.000 C 
BRANCH  21  22
ATOM     22  N   UNL     1       3.284  15.241  19.117  0.00  0.00    +0.000 NA
ATOM     23  C   UNL     1       3.891  16.348  19.893  0.00  0.00    +0.000 C 
ATOM     24  C   UNL     1       5.393  16.240  20.175  0.00  0.00    +0.000 C 
ATOM     25  S   UNL     1       6.366  16.170  18.647  0.00  0.00    +0.000 S 
ATOM     26  C   UNL     1       5.494  14.753  17.928  0.00  0.00    +0.000 C 
ATOM     27  C   UNL     1       3.983  15.005  17.834  0.00  0.00    +0.000 C 
ENDBRANCH  21  22
ENDBRANCH   4  21
TORSDOF 4
ENDMDL
MODEL 9
REMARK VINA RESULT:      -6.4      7.749     10.241
REMARK  Name = 
REMARK  6 active torsions:
REMARK  status: ('A' for Active; 'I' for Inactive)
REMARK    1  A    between atoms: C_1  and  C_2
REMARK    2  A    between atoms: C_7  and  N_8
REMARK    3  A    between atoms: C_9  and  C_10
REMARK    4  A    between atoms: C_18  and  C_19
REMARK    5  A    between atoms: C_19  and  N_20
REMARK    6  A    between atoms: C_26  and  C_27
REMARK                            x       y       z     vdW  Elec       q    Type
REMARK                         _______ _______ _______ _____ _____    ______ ____
ROOT
ATOM      1  N   UNL     1      -0.043  12.450  20.171  0.00  0.00    +0.000 N 
ATOM      2  C   UNL     1      -0.950  12.776  19.118  0.00  0.00    +0.000 A 
ATOM      3  C   UNL     1      -0.416  13.859  18.441  0.00  0.00    +0.000 A 
ATOM      4  C   UNL     1       0.782  14.269  19.058  0.00  0.00    +0.000 A 
ATOM      5  C   UNL     1       1.018  13.375  20.093  0.00  0.00    +0.000 A 
ATOM      6  C   UNL     1       2.257  13.370  20.920  0.00  0.00    +0.000 C 
ENDROOT
BRANCH   1  13
ATOM      7  C   UNL     1      -1.374  12.455  23.041  0.00  0.00    +0.000 C 
ATOM      8  C   UNL     1      -0.709  11.300  22.349  0.00  0.00    +0.000 A 
ATOM      9  C   UNL     1      -0.733  10.098  23.096  0.00  0.00    +0.000 A 
ATOM     10  C   UNL     1      -0.286   8.895  22.565  0.00  0.00    +0.000 A 
ATOM     11  C   UNL     1       0.250   8.876  21.291  0.00  0.00    +0.000 A 
ATOM     12  C   UNL     1       0.365  10.066  20.565  0.00  0.00    +0.000 A 
ATOM     13  C   UNL     1      -0.135  11.296  21.052  0.00  0.00    +0.000 A 
ENDBRANCH   1  13
BRANCH   2  14
ATOM     14  C   UNL     1      -2.266  12.162  18.791  0.00  0.00    +0.000 A 
ATOM     15  C   UNL     1      -2.418  11.178  17.802  0.00  0.00    +0.000 A 
ATOM     16  C   UNL     1      -3.676  10.641  17.507  0.00  0.00    +0.000 A 
ATOM     17  C   UNL     1      -4.787  11.027  18.248  0.00  0.00    +0.000 A 
ATOM     18  F   UNL     1      -5.982  10.499  17.975  0.00  0.00    +0.000 F 
ATOM     19  C   UNL     1      -4.660  11.954  19.274  0.00  0.00    +0.000 A 
ATOM     20  C   UNL     1      -3.409  12.525  19.534  0.00  0.00    +0.000 A 
ENDBRANCH   2  14
BRANCH   4  21
ATOM     21  C   UNL     1       1.649  15.419  18.621  0.00  0.00    +0.000 C 
BRANCH  21  22
ATOM     22  N   UNL     1       1.020  16.715  18.965  0.00  0.00    +0.000 NA
ATOM     23  C   UNL     1       0.699  16.748  20.411  0.00  0.00    +0.000 C 
ATOM     24  C   UNL     1      -0.071  17.976  20.910  0.00  0.00    +0.000 C 
ATOM     25  S   UNL     1      -1.674  18.152  20.086  0.00  0.00    +0.000 S 
ATOM     26  C   UNL     1      -1.023  18.142  18.393  0.00  0.00    +0.000 C 
ATOM     27  C   UNL     1      -0.182  16.889  18.118  0.00  0.00    +0.000 C 
ENDBRANCH  21  22
ENDBRANCH   4  21
TORSDOF 4
ENDMDL
