MODEL 1
REMARK VINA RESULT:      -7.4      0.000      0.000
REMARK  Name = 
REMARK  12 active torsions:
REMARK  status: ('A' for Active; 'I' for Inactive)
REMARK    1  A    between atoms: C_1  and  C_2
REMARK    2  A    between atoms: C_2  and  O_3
REMARK    3  A    between atoms: O_3  and  C_4
REMARK    4  A    between atoms: C_4  and  C_6
REMARK    5  A    between atoms: C_8  and  C_9
REMARK    6  A    between atoms: C_12  and  C_13
REMARK    7  A    between atoms: N_16  and  C_17
REMARK    8  A    between atoms: C_17  and  C_18
REMARK    9  A    between atoms: N_20  and  C_21
REMARK   10  A    between atoms: C_23  and  C_24
REMARK   11  A    between atoms: C_27  and  C_28
REMARK   12  A    between atoms: C_29  and  C_30
REMARK                            x       y       z     vdW  Elec       q    Type
REMARK                         _______ _______ _______ _____ _____    ______ ____
ROOT
ATOM      1  C   UNL     1       1.774   7.722  20.117  0.00  0.00    +0.000 A 
ATOM      2  C   UNL     1       1.135   8.446  21.160  0.00  0.00    +0.000 A 
ATOM      3  C   UNL     1       0.758   9.705  20.703  0.00  0.00    +0.000 A 
ATOM      4  N   UNL     1       1.191   9.763  19.377  0.00  0.00    +0.000 N 
ATOM      5  C   UNL     1       1.741   8.544  19.000  0.00  0.00    +0.000 A 
ATOM      6  C   UNL     1       2.219   8.226  17.618  0.00  0.00    +0.000 C 
ENDROOT
BRANCH   3   7
ATOM      7  C   UNL     1       0.085  10.779  21.473  0.00  0.00    +0.000 A 
ATOM      8  C   UNL     1       0.521  12.103  21.346  0.00  0.00    +0.000 A 
ATOM      9  C   UNL     1      -0.072  13.144  22.082  0.00  0.00    +0.000 A 
ATOM     10  C   UNL     1      -1.125  12.883  22.960  0.00  0.00    +0.000 A 
ATOM     11  C   UNL     1      -1.790  13.968  23.751  0.00  0.00    +0.000 C 
ATOM     12  C   UNL     1      -1.567  11.573  23.099  0.00  0.00    +0.000 A 
ATOM     13  C   UNL     1      -0.961  10.542  22.376  0.00  0.00    +0.000 A 
ENDBRANCH   3   7
BRANCH   1  14
ATOM     14  C   UNL     1       2.308   6.362  20.149  0.00  0.00    +0.000 C 
ATOM     15  O   UNL     1       3.417   6.055  19.727  0.00  0.00    +0.000 OA
BRANCH  14  16
ATOM     16  O   UNL     1       1.390   5.462  20.607  0.00  0.00    +0.000 OA
BRANCH  16  18
ATOM     17  C   UNL     1       1.881   3.356  21.596  0.00  0.00    +0.000 C 
ATOM     18  C   UNL     1       1.695   4.100  20.284  0.00  0.00    +0.000 C 
ENDBRANCH  16  18
ENDBRANCH  14  16
ENDBRANCH   1  14
BRANCH   4  19
ATOM     19  C   UNL     1       1.178  10.939  18.520  0.00  0.00    +0.000 C 
BRANCH  19  20
ATOM     20  C   UNL     1      -0.192  11.521  18.203  0.00  0.00    +0.000 C 
ATOM     21  O   UNL     1      -0.322  12.747  18.205  0.00  0.00    +0.000 OA
ATOM     22  N   UNL     1      -1.241  10.625  18.021  0.00  0.00    +0.000 N 
ATOM     23  H   UNL     1      -1.142   9.734  18.498  0.00  0.00    +0.000 HD
BRANCH  22  24
ATOM     24  C   UNL     1      -2.576  11.056  17.836  0.00  0.00    +0.000 A 
ATOM     25  C   UNL     1      -3.233  11.633  18.936  0.00  0.00    +0.000 A 
ATOM     26  C   UNL     1      -4.553  12.093  18.826  0.00  0.00    +0.000 A 
ATOM     27  C   UNL     1      -5.252  12.763  19.974  0.00  0.00    +0.000 C 
ATOM     28  C   UNL     1      -5.230  11.925  17.615  0.00  0.00    +0.000 A 
ATOM     29  C   UNL     1      -4.594  11.312  16.532  0.00  0.00    +0.000 A 
ATOM     30  C   UNL     1      -3.266  10.864  16.626  0.00  0.00    +0.000 A 
ATOM     31  C   UNL     1      -2.679  10.110  15.466  0.00  0.00    +0.000 C 
ENDBRANCH  22  24
ENDBRANCH  19  20
ENDBRANCH   4  19
TORSDOF 7
ENDMDL
MODEL 2
REMARK VINA RESULT:      -7.3      0.754      1.391
REMARK  Name = 
REMARK  12 active torsions:
REMARK  status: ('A' for Active; 'I' for Inactive)
REMARK    1  A    between atoms: C_1  and  C_2
REMARK    2  A    between atoms: C_2  and  O_3
REMARK    3  A    between atoms: O_3  and  C_4
REMARK    4  A    between atoms: C_4  and  C_6
REMARK    5  A    between atoms: C_8  and  C_9
REMARK    6  A    between atoms: C_12  and  C_13
REMARK    7  A    between atoms: N_16  and  C_17
REMARK    8  A    between atoms: C_17  and  C_18
REMARK    9  A    between atoms: N_20  and  C_21
REMARK   10  A    between atoms: C_23  and  C_24
REMARK   11  A    between atoms: C_27  and  C_28
REMARK   12  A    between atoms: C_29  and  C_30
REMARK                            x       y       z     vdW  Elec       q    Type
REMARK                         _______ _______ _______ _____ _____    ______ ____
ROOT
ATOM      1  C   UNL     1       1.684   7.746  20.230  0.00  0.00    +0.000 A 
ATOM      2  C   UNL     1       1.092   8.511  21.272  0.00  0.00    +0.000 A 
ATOM      3  C   UNL     1       0.741   9.771  20.796  0.00  0.00    +0.000 A 
ATOM      4  N   UNL     1       1.144   9.788  19.460  0.00  0.00    +0.000 N 
ATOM      5  C   UNL     1       1.649   8.546  19.097  0.00  0.00    +0.000 A 
ATOM      6  C   UNL     1       2.083   8.185  17.711  0.00  0.00    +0.000 C 
ENDROOT
BRANCH   3   7
ATOM      7  C   UNL     1       0.118  10.879  21.559  0.00  0.00    +0.000 A 
ATOM      8  C   UNL     1      -0.901  10.602  22.480  0.00  0.00    +0.000 A 
ATOM      9  C   UNL     1      -1.537  11.628  23.200  0.00  0.00    +0.000 A 
ATOM     10  C   UNL     1      -1.160  12.961  23.022  0.00  0.00    +0.000 A 
ATOM     11  C   UNL     1      -1.806  14.080  23.781  0.00  0.00    +0.000 C 
ATOM     12  C   UNL     1      -0.153  13.251  22.110  0.00  0.00    +0.000 A 
ATOM     13  C   UNL     1       0.462  12.226  21.386  0.00  0.00    +0.000 A 
ENDBRANCH   3   7
BRANCH   1  14
ATOM     14  C   UNL     1       2.178   6.372  20.278  0.00  0.00    +0.000 C 
ATOM     15  O   UNL     1       1.563   5.444  20.790  0.00  0.00    +0.000 OA
BRANCH  14  16
ATOM     16  O   UNL     1       3.445   6.266  19.781  0.00  0.00    +0.000 OA
BRANCH  16  18
ATOM     17  C   UNL     1       3.529   4.769  17.935  0.00  0.00    +0.000 C 
ATOM     18  C   UNL     1       3.821   4.933  19.417  0.00  0.00    +0.000 C 
ENDBRANCH  16  18
ENDBRANCH  14  16
ENDBRANCH   1  14
BRANCH   4  19
ATOM     19  C   UNL     1       1.144  10.946  18.579  0.00  0.00    +0.000 C 
BRANCH  19  20
ATOM     20  C   UNL     1      -0.220  11.519  18.225  0.00  0.00    +0.000 C 
ATOM     21  O   UNL     1      -0.321  12.738  18.071  0.00  0.00    +0.000 OA
ATOM     22  N   UNL     1      -1.295  10.636  18.189  0.00  0.00    +0.000 N 
ATOM     23  H   UNL     1      -1.202   9.812  18.775  0.00  0.00    +0.000 HD
BRANCH  22  24
ATOM     24  C   UNL     1      -2.624  11.075  17.984  0.00  0.00    +0.000 A 
ATOM     25  C   UNL     1      -3.258  11.748  19.043  0.00  0.00    +0.000 A 
ATOM     26  C   UNL     1      -4.571  12.222  18.911  0.00  0.00    +0.000 A 
ATOM     27  C   UNL     1      -5.245  12.991  20.011  0.00  0.00    +0.000 C 
ATOM     28  C   UNL     1      -5.265  11.973  17.724  0.00  0.00    +0.000 A 
ATOM     29  C   UNL     1      -4.652  11.267  16.686  0.00  0.00    +0.000 A 
ATOM     30  C   UNL     1      -3.332  10.803  16.801  0.00  0.00    +0.000 A 
ATOM     31  C   UNL     1      -2.771   9.951  15.697  0.00  0.00    +0.000 C 
ENDBRANCH  22  24
ENDBRANCH  19  20
ENDBRANCH   4  19
TORSDOF 7
ENDMDL
MODEL 3
REMARK VINA RESULT:      -7.3      0.804      1.852
REMARK  Name = 
REMARK  12 active torsions:
REMARK  status: ('A' for Active; 'I' for Inactive)
REMARK    1  A    between atoms: C_1  and  C_2
REMARK    2  A    between atoms: C_2  and  O_3
REMARK    3  A    between atoms: O_3  and  C_4
REMARK    4  A    between atoms: C_4  and  C_6
REMARK    5  A    between atoms: C_8  and  C_9
REMARK    6  A    between atoms: C_12  and  C_13
REMARK    7  A    between atoms: N_16  and  C_17
REMARK    8  A    between atoms: C_17  and  C_18
REMARK    9  A    between atoms: N_20  and  C_21
REMARK   10  A    between atoms: C_23  and  C_24
REMARK   11  A    between atoms: C_27  and  C_28
REMARK   12  A    between atoms: C_29  and  C_30
REMARK                            x       y       z     vdW  Elec       q    Type
REMARK                         _______ _______ _______ _____ _____    ______ ____
ROOT
ATOM      1  C   UNL     1       1.902   7.394  20.205  0.00  0.00    +0.000 A 
ATOM      2  C   UNL     1       1.193   8.098  21.216  0.00  0.00    +0.000 A 
ATOM      3  C   UNL     1       0.888   9.383  20.776  0.00  0.00    +0.000 A 
ATOM      4  N   UNL     1       1.437   9.476  19.497  0.00  0.00    +0.000 N 
ATOM      5  C   UNL     1       1.988   8.258  19.122  0.00  0.00    +0.000 A 
ATOM      6  C   UNL     1       2.577   7.976  17.775  0.00  0.00    +0.000 C 
ENDROOT
BRANCH   3   7
ATOM      7  C   UNL     1       0.177  10.446  21.527  0.00  0.00    +0.000 A 
ATOM      8  C   UNL     1       0.531  11.787  21.334  0.00  0.00    +0.000 A 
ATOM      9  C   UNL     1      -0.100  12.821  22.048  0.00  0.00    +0.000 A 
ATOM     10  C   UNL     1      -1.109  12.536  22.969  0.00  0.00    +0.000 A 
ATOM     11  C   UNL     1      -1.813  13.612  23.740  0.00  0.00    +0.000 C 
ATOM     12  C   UNL     1      -1.469  11.209  23.174  0.00  0.00    +0.000 A 
ATOM     13  C   UNL     1      -0.825  10.187  22.471  0.00  0.00    +0.000 A 
ENDBRANCH   3   7
BRANCH   1  14
ATOM     14  C   UNL     1       2.398   6.020  20.230  0.00  0.00    +0.000 C 
ATOM     15  O   UNL     1       3.521   5.694  19.862  0.00  0.00    +0.000 OA
BRANCH  14  16
ATOM     16  O   UNL     1       1.433   5.134  20.612  0.00  0.00    +0.000 OA
BRANCH  16  18
ATOM     17  C   UNL     1       1.598   2.767  20.462  0.00  0.00    +0.000 C 
ATOM     18  C   UNL     1       1.934   3.985  21.305  0.00  0.00    +0.000 C 
ENDBRANCH  16  18
ENDBRANCH  14  16
ENDBRANCH   1  14
BRANCH   4  19
ATOM     19  C   UNL     1       1.527  10.683  18.687  0.00  0.00    +0.000 C 
BRANCH  19  20
ATOM     20  C   UNL     1       0.236  11.146  18.031  0.00  0.00    +0.000 C 
ATOM     21  O   UNL     1       0.108  12.346  17.773  0.00  0.00    +0.000 OA
ATOM     22  N   UNL     1      -0.764  10.198  17.845  0.00  0.00    +0.000 N 
ATOM     23  H   UNL     1      -0.751   9.417  18.495  0.00  0.00    +0.000 HD
BRANCH  22  24
ATOM     24  C   UNL     1      -2.046  10.539  17.350  0.00  0.00    +0.000 A 
ATOM     25  C   UNL     1      -2.335  10.213  16.014  0.00  0.00    +0.000 A 
ATOM     26  C   UNL     1      -3.587  10.510  15.456  0.00  0.00    +0.000 A 
ATOM     27  C   UNL     1      -3.934  10.120  14.048  0.00  0.00    +0.000 C 
ATOM     28  C   UNL     1      -4.533  11.183  16.235  0.00  0.00    +0.000 A 
ATOM     29  C   UNL     1      -4.232  11.547  17.550  0.00  0.00    +0.000 A 
ATOM     30  C   UNL     1      -2.988  11.239  18.124  0.00  0.00    +0.000 A 
ATOM     31  C   UNL     1      -2.684  11.758  19.501  0.00  0.00    +0.000 C 
ENDBRANCH  22  24
ENDBRANCH  19  20
ENDBRANCH   4  19
TORSDOF 7
ENDMDL
MODEL 4
REMARK VINA RESULT:      -7.2      0.921      1.244
REMARK  Name = 
REMARK  12 active torsions:
REMARK  status: ('A' for Active; 'I' for Inactive)
REMARK    1  A    between atoms: C_1  and  C_2
REMARK    2  A    between atoms: C_2  and  O_3
REMARK    3  A    between atoms: O_3  and  C_4
REMARK    4  A    between atoms: C_4  and  C_6
REMARK    5  A    between atoms: C_8  and  C_9
REMARK    6  A    between atoms: C_12  and  C_13
REMARK    7  A    between atoms: N_16  and  C_17
REMARK    8  A    between atoms: C_17  and  C_18
REMARK    9  A    between atoms: N_20  and  C_21
REMARK   10  A    between atoms: C_23  and  C_24
REMARK   11  A    between atoms: C_27  and  C_28
REMARK   12  A    between atoms: C_29  and  C_30
REMARK                            x       y       z     vdW  Elec       q    Type
REMARK                         _______ _______ _______ _____ _____    ______ ____
ROOT
ATOM      1  C   UNL     1       1.535   8.121  20.198  0.00  0.00    +0.000 A 
ATOM      2  C   UNL     1       0.918   8.825  21.268  0.00  0.00    +0.000 A 
ATOM      3  C   UNL     1       0.542  10.096  20.845  0.00  0.00    +0.000 A 
ATOM      4  N   UNL     1       0.952  10.181  19.514  0.00  0.00    +0.000 N 
ATOM      5  C   UNL     1       1.488   8.968  19.101  0.00  0.00    +0.000 A 
ATOM      6  C   UNL     1       1.940   8.678  17.703  0.00  0.00    +0.000 C 
ENDROOT
BRANCH   3   7
ATOM      7  C   UNL     1      -0.112  11.156  21.651  0.00  0.00    +0.000 A 
ATOM      8  C   UNL     1       0.307  12.486  21.520  0.00  0.00    +0.000 A 
ATOM      9  C   UNL     1      -0.267  13.514  22.288  0.00  0.00    +0.000 A 
ATOM     10  C   UNL     1      -1.283  13.235  23.203  0.00  0.00    +0.000 A 
ATOM     11  C   UNL     1      -1.927  14.307  24.030  0.00  0.00    +0.000 C 
ATOM     12  C   UNL     1      -1.707  11.920  23.347  0.00  0.00    +0.000 A 
ATOM     13  C   UNL     1      -1.119  10.902  22.591  0.00  0.00    +0.000 A 
ENDBRANCH   3   7
BRANCH   1  14
ATOM     14  C   UNL     1       2.061   6.757  20.190  0.00  0.00    +0.000 C 
ATOM     15  O   UNL     1       1.592   5.842  20.857  0.00  0.00    +0.000 OA
BRANCH  14  16
ATOM     16  O   UNL     1       3.193   6.650  19.436  0.00  0.00    +0.000 OA
BRANCH  16  18
ATOM     17  C   UNL     1       5.095   5.441  18.675  0.00  0.00    +0.000 C 
ATOM     18  C   UNL     1       3.892   5.411  19.603  0.00  0.00    +0.000 C 
ENDBRANCH  16  18
ENDBRANCH  14  16
ENDBRANCH   1  14
BRANCH   4  19
ATOM     19  C   UNL     1       0.931  11.377  18.684  0.00  0.00    +0.000 C 
BRANCH  19  20
ATOM     20  C   UNL     1      -0.443  11.876  18.265  0.00  0.00    +0.000 C 
ATOM     21  O   UNL     1      -0.576  13.074  18.003  0.00  0.00    +0.000 OA
ATOM     22  N   UNL     1      -1.492  10.963  18.293  0.00  0.00    +0.000 N 
ATOM     23  H   UNL     1      -1.386  10.196  18.950  0.00  0.00    +0.000 HD
BRANCH  22  24
ATOM     24  C   UNL     1      -2.831  11.343  18.034  0.00  0.00    +0.000 A 
ATOM     25  C   UNL     1      -3.597  11.807  19.117  0.00  0.00    +0.000 A 
ATOM     26  C   UNL     1      -4.927  12.212  18.937  0.00  0.00    +0.000 A 
ATOM     27  C   UNL     1      -5.744  12.762  20.071  0.00  0.00    +0.000 C 
ATOM     28  C   UNL     1      -5.502  12.102  17.668  0.00  0.00    +0.000 A 
ATOM     29  C   UNL     1      -4.756  11.601  16.598  0.00  0.00    +0.000 A 
ATOM     30  C   UNL     1      -3.418  11.209  16.764  0.00  0.00    +0.000 A 
ATOM     31  C   UNL     1      -2.707  10.572  15.603  0.00  0.00    +0.000 C 
ENDBRANCH  22  24
ENDBRANCH  19  20
ENDBRANCH   4  19
TORSDOF 7
ENDMDL
MODEL 5
REMARK VINA RESULT:      -7.1      3.535      8.952
REMARK  Name = 
REMARK  12 active torsions:
REMARK  status: ('A' for Active; 'I' for Inactive)
REMARK    1  A    between atoms: C_1  and  C_2
REMARK    2  A    between atoms: C_2  and  O_3
REMARK    3  A    between atoms: O_3  and  C_4
REMARK    4  A    between atoms: C_4  and  C_6
REMARK    5  A    between atoms: C_8  and  C_9
REMARK    6  A    between atoms: C_12  and  C_13
REMARK    7  A    between atoms: N_16  and  C_17
REMARK    8  A    between atoms: C_17  and  C_18
REMARK    9  A    between atoms: N_20  and  C_21
REMARK   10  A    between atoms: C_23  and  C_24
REMARK   11  A    between atoms: C_27  and  C_28
REMARK   12  A    between atoms: C_29  and  C_30
REMARK                            x       y       z     vdW  Elec       q    Type
REMARK                         _______ _______ _______ _____ _____    ______ ____
ROOT
ATOM      1  C   UNL     1       0.994   8.568  21.235  0.00  0.00    +0.000 A 
ATOM      2  C   UNL     1       1.181   7.161  21.312  0.00  0.00    +0.000 A 
ATOM      3  C   UNL     1       1.722   6.688  20.121  0.00  0.00    +0.000 A 
ATOM      4  N   UNL     1       1.845   7.808  19.298  0.00  0.00    +0.000 N 
ATOM      5  C   UNL     1       1.471   8.953  19.990  0.00  0.00    +0.000 A 
ATOM      6  C   UNL     1       1.571  10.342  19.440  0.00  0.00    +0.000 C 
ENDROOT
BRANCH   3   7
ATOM      7  C   UNL     1       2.053   5.283  19.778  0.00  0.00    +0.000 A 
ATOM      8  C   UNL     1       3.034   4.603  20.509  0.00  0.00    +0.000 A 
ATOM      9  C   UNL     1       3.397   3.281  20.196  0.00  0.00    +0.000 A 
ATOM     10  C   UNL     1       2.776   2.604  19.144  0.00  0.00    +0.000 A 
ATOM     11  C   UNL     1       3.127   1.191  18.788  0.00  0.00    +0.000 C 
ATOM     12  C   UNL     1       1.803   3.268  18.407  0.00  0.00    +0.000 A 
ATOM     13  C   UNL     1       1.460   4.587  18.716  0.00  0.00    +0.000 A 
ENDBRANCH   3   7
BRANCH   1  14
ATOM     14  C   UNL     1       0.473   9.474  22.256  0.00  0.00    +0.000 C 
ATOM     15  O   UNL     1       0.996   9.637  23.353  0.00  0.00    +0.000 OA
BRANCH  14  16
ATOM     16  O   UNL     1      -0.714  10.036  21.886  0.00  0.00    +0.000 OA
BRANCH  16  18
ATOM     17  C   UNL     1      -1.902  11.658  23.157  0.00  0.00    +0.000 C 
ATOM     18  C   UNL     1      -0.798  11.444  22.135  0.00  0.00    +0.000 C 
ENDBRANCH  16  18
ENDBRANCH  14  16
ENDBRANCH   1  14
BRANCH   4  19
ATOM     19  C   UNL     1       2.208   7.802  17.888  0.00  0.00    +0.000 C 
BRANCH  19  20
ATOM     20  C   UNL     1       3.617   7.333  17.562  0.00  0.00    +0.000 C 
ATOM     21  O   UNL     1       4.508   8.179  17.466  0.00  0.00    +0.000 OA
ATOM     22  N   UNL     1       3.796   5.978  17.299  0.00  0.00    +0.000 N 
ATOM     23  H   UNL     1       2.980   5.492  16.940  0.00  0.00    +0.000 HD
BRANCH  22  24
ATOM     24  C   UNL     1       5.038   5.450  16.874  0.00  0.00    +0.000 A 
ATOM     25  C   UNL     1       5.156   5.067  15.527  0.00  0.00    +0.000 A 
ATOM     26  C   UNL     1       6.358   4.545  15.029  0.00  0.00    +0.000 A 
ATOM     27  C   UNL     1       6.520   4.182  13.581  0.00  0.00    +0.000 C 
ATOM     28  C   UNL     1       7.431   4.363  15.906  0.00  0.00    +0.000 A 
ATOM     29  C   UNL     1       7.303   4.703  17.255  0.00  0.00    +0.000 A 
ATOM     30  C   UNL     1       6.109   5.243  17.760  0.00  0.00    +0.000 A 
ATOM     31  C   UNL     1       5.997   5.479  19.240  0.00  0.00    +0.000 C 
ENDBRANCH  22  24
ENDBRANCH  19  20
ENDBRANCH   4  19
TORSDOF 7
ENDMDL
MODEL 6
REMARK VINA RESULT:      -7.1      2.657      6.866
REMARK  Name = 
REMARK  12 active torsions:
REMARK  status: ('A' for Active; 'I' for Inactive)
REMARK    1  A    between atoms: C_1  and  C_2
REMARK    2  A    between atoms: C_2  and  O_3
REMARK    3  A    between atoms: O_3  and  C_4
REMARK    4  A    between atoms: C_4  and  C_6
REMARK    5  A    between atoms: C_8  and  C_9
REMARK    6  A    between atoms: C_12  and  C_13
REMARK    7  A    between atoms: N_16  and  C_17
REMARK    8  A    between atoms: C_17  and  C_18
REMARK    9  A    between atoms: N_20  and  C_21
REMARK   10  A    between atoms: C_23  and  C_24
REMARK   11  A    between atoms: C_27  and  C_28
REMARK   12  A    between atoms: C_29  and  C_30
REMARK                            x       y       z     vdW  Elec       q    Type
REMARK                         _______ _______ _______ _____ _____    ______ ____
ROOT
ATOM      1  C   UNL     1      -5.515  11.872  19.321  0.00  0.00    +0.000 A 
ATOM      2  C   UNL     1      -5.167  12.469  20.564  0.00  0.00    +0.000 A 
ATOM      3  C   UNL     1      -3.816  12.803  20.569  0.00  0.00    +0.000 A 
ATOM      4  N   UNL     1      -3.326  12.385  19.331  0.00  0.00    +0.000 N 
ATOM      5  C   UNL     1      -4.361  11.887  18.550  0.00  0.00    +0.000 A 
ATOM      6  C   UNL     1      -4.207  11.440  17.130  0.00  0.00    +0.000 C 
ENDROOT
BRANCH   3   7
ATOM      7  C   UNL     1      -3.047  13.425  21.674  0.00  0.00    +0.000 A 
ATOM      8  C   UNL     1      -3.247  14.776  21.983  0.00  0.00    +0.000 A 
ATOM      9  C   UNL     1      -2.516  15.410  23.004  0.00  0.00    +0.000 A 
ATOM     10  C   UNL     1      -1.570  14.700  23.747  0.00  0.00    +0.000 A 
ATOM     11  C   UNL     1      -0.782  15.337  24.850  0.00  0.00    +0.000 C 
ATOM     12  C   UNL     1      -1.360  13.359  23.449  0.00  0.00    +0.000 A 
ATOM     13  C   UNL     1      -2.079  12.742  22.422  0.00  0.00    +0.000 A 
ENDBRANCH   3   7
BRANCH   1  14
ATOM     14  C   UNL     1      -6.821  11.391  18.877  0.00  0.00    +0.000 C 
ATOM     15  O   UNL     1      -7.374  11.769  17.851  0.00  0.00    +0.000 OA
BRANCH  14  16
ATOM     16  O   UNL     1      -7.394  10.552  19.788  0.00  0.00    +0.000 OA
BRANCH  16  18
ATOM     17  C   UNL     1      -7.771   8.385  20.693  0.00  0.00    +0.000 C 
ATOM     18  C   UNL     1      -7.032   9.176  19.626  0.00  0.00    +0.000 C 
ENDBRANCH  16  18
ENDBRANCH  14  16
ENDBRANCH   1  14
BRANCH   4  19
ATOM     19  C   UNL     1      -1.929  12.364  18.923  0.00  0.00    +0.000 C 
BRANCH  19  20
ATOM     20  C   UNL     1      -1.234  11.013  18.986  0.00  0.00    +0.000 C 
ATOM     21  O   UNL     1      -1.860  10.016  18.618  0.00  0.00    +0.000 OA
ATOM     22  N   UNL     1       0.039  10.972  19.545  0.00  0.00    +0.000 N 
ATOM     23  H   UNL     1       0.243  11.704  20.219  0.00  0.00    +0.000 HD
BRANCH  22  24
ATOM     24  C   UNL     1       0.731   9.757  19.758  0.00  0.00    +0.000 A 
ATOM     25  C   UNL     1       1.489   9.243  18.692  0.00  0.00    +0.000 A 
ATOM     26  C   UNL     1       2.212   8.049  18.831  0.00  0.00    +0.000 A 
ATOM     27  C   UNL     1       3.071   7.515  17.721  0.00  0.00    +0.000 C 
ATOM     28  C   UNL     1       2.128   7.345  20.034  0.00  0.00    +0.000 A 
ATOM     29  C   UNL     1       1.341   7.830  21.081  0.00  0.00    +0.000 A 
ATOM     30  C   UNL     1       0.628   9.034  20.959  0.00  0.00    +0.000 A 
ATOM     31  C   UNL     1      -0.290   9.441  22.077  0.00  0.00    +0.000 C 
ENDBRANCH  22  24
ENDBRANCH  19  20
ENDBRANCH   4  19
TORSDOF 7
ENDMDL
MODEL 7
REMARK VINA RESULT:      -7.1      3.111      7.247
REMARK  Name = 
REMARK  12 active torsions:
REMARK  status: ('A' for Active; 'I' for Inactive)
REMARK    1  A    between atoms: C_1  and  C_2
REMARK    2  A    between atoms: C_2  and  O_3
REMARK    3  A    between atoms: O_3  and  C_4
REMARK    4  A    between atoms: C_4  and  C_6
REMARK    5  A    between atoms: C_8  and  C_9
REMARK    6  A    between atoms: C_12  and  C_13
REMARK    7  A    between atoms: N_16  and  C_17
REMARK    8  A    between atoms: C_17  and  C_18
REMARK    9  A    between atoms: N_20  and  C_21
REMARK   10  A    between atoms: C_23  and  C_24
REMARK   11  A    between atoms: C_27  and  C_28
REMARK   12  A    between atoms: C_29  and  C_30
REMARK                            x       y       z     vdW  Elec       q    Type
REMARK                         _______ _______ _______ _____ _____    ______ ____
ROOT
ATOM      1  C   UNL     1      -2.112  11.230  18.877  0.00  0.00    +0.000 A 
ATOM      2  C   UNL     1      -1.329  10.139  18.410  0.00  0.00    +0.000 A 
ATOM      3  C   UNL     1      -0.177  10.018  19.180  0.00  0.00    +0.000 A 
ATOM      4  N   UNL     1      -0.241  11.056  20.109  0.00  0.00    +0.000 N 
ATOM      5  C   UNL     1      -1.439  11.746  19.974  0.00  0.00    +0.000 A 
ATOM      6  C   UNL     1      -1.877  12.860  20.873  0.00  0.00    +0.000 C 
ENDROOT
BRANCH   3   7
ATOM      7  C   UNL     1       0.915   9.027  19.016  0.00  0.00    +0.000 A 
ATOM      8  C   UNL     1       1.196   8.127  20.052  0.00  0.00    +0.000 A 
ATOM      9  C   UNL     1       2.241   7.193  19.948  0.00  0.00    +0.000 A 
ATOM     10  C   UNL     1       3.027   7.131  18.795  0.00  0.00    +0.000 A 
ATOM     11  C   UNL     1       4.141   6.141  18.642  0.00  0.00    +0.000 C 
ATOM     12  C   UNL     1       2.762   8.020  17.760  0.00  0.00    +0.000 A 
ATOM     13  C   UNL     1       1.731   8.956  17.880  0.00  0.00    +0.000 A 
ENDBRANCH   3   7
BRANCH   1  14
ATOM     14  C   UNL     1      -3.402  11.703  18.378  0.00  0.00    +0.000 C 
ATOM     15  O   UNL     1      -4.390  11.862  19.086  0.00  0.00    +0.000 OA
BRANCH  14  16
ATOM     16  O   UNL     1      -3.405  11.848  17.021  0.00  0.00    +0.000 OA
BRANCH  16  18
ATOM     17  C   UNL     1      -3.405  10.571  15.015  0.00  0.00    +0.000 C 
ATOM     18  C   UNL     1      -4.129  10.827  16.326  0.00  0.00    +0.000 C 
ENDBRANCH  16  18
ENDBRANCH  14  16
ENDBRANCH   1  14
BRANCH   4  19
ATOM     19  C   UNL     1       0.816  11.452  21.029  0.00  0.00    +0.000 C 
BRANCH  19  20
ATOM     20  C   UNL     1       1.661  12.644  20.605  0.00  0.00    +0.000 C 
ATOM     21  O   UNL     1       2.147  13.358  21.484  0.00  0.00    +0.000 OA
ATOM     22  N   UNL     1       1.755  12.910  19.243  0.00  0.00    +0.000 N 
ATOM     23  H   UNL     1       0.973  12.588  18.680  0.00  0.00    +0.000 HD
BRANCH  22  24
ATOM     24  C   UNL     1       2.418  14.056  18.742  0.00  0.00    +0.000 A 
ATOM     25  C   UNL     1       3.804  13.965  18.530  0.00  0.00    +0.000 A 
ATOM     26  C   UNL     1       4.528  15.055  18.025  0.00  0.00    +0.000 A 
ATOM     27  C   UNL     1       5.999  14.960  17.740  0.00  0.00    +0.000 C 
ATOM     28  C   UNL     1       3.858  16.257  17.781  0.00  0.00    +0.000 A 
ATOM     29  C   UNL     1       2.488  16.363  18.032  0.00  0.00    +0.000 A 
ATOM     30  C   UNL     1       1.750  15.272  18.520  0.00  0.00    +0.000 A 
ATOM     31  C   UNL     1       0.306  15.484  18.878  0.00  0.00    +0.000 C 
ENDBRANCH  22  24
ENDBRANCH  19  20
ENDBRANCH   4  19
TORSDOF 7
ENDMDL
MODEL 8
REMARK VINA RESULT:      -7.0      2.800      8.097
REMARK  Name = 
REMARK  12 active torsions:
REMARK  status: ('A' for Active; 'I' for Inactive)
REMARK    1  A    between atoms: C_1  and  C_2
REMARK    2  A    between atoms: C_2  and  O_3
REMARK    3  A    between atoms: O_3  and  C_4
REMARK    4  A    between atoms: C_4  and  C_6
REMARK    5  A    between atoms: C_8  and  C_9
REMARK    6  A    between atoms: C_12  and  C_13
REMARK    7  A    between atoms: N_16  and  C_17
REMARK    8  A    between atoms: C_17  and  C_18
REMARK    9  A    between atoms: N_20  and  C_21
REMARK   10  A    between atoms: C_23  and  C_24
REMARK   11  A    between atoms: C_27  and  C_28
REMARK   12  A    between atoms: C_29  and  C_30
REMARK                            x       y       z     vdW  Elec       q    Type
REMARK                         _______ _______ _______ _____ _____    ______ ____
ROOT
ATOM      1  C   UNL     1      -4.799  13.039  22.131  0.00  0.00    +0.000 A 
ATOM      2  C   UNL     1      -5.080  12.401  20.892  0.00  0.00    +0.000 A 
ATOM      3  C   UNL     1      -3.954  12.434  20.074  0.00  0.00    +0.000 A 
ATOM      4  N   UNL     1      -2.984  13.118  20.807  0.00  0.00    +0.000 N 
ATOM      5  C   UNL     1      -3.467  13.423  22.073  0.00  0.00    +0.000 A 
ATOM      6  C   UNL     1      -2.656  14.071  23.152  0.00  0.00    +0.000 C 
ENDROOT
BRANCH   3   7
ATOM      7  C   UNL     1      -3.827  11.900  18.696  0.00  0.00    +0.000 A 
ATOM      8  C   UNL     1      -4.898  12.026  17.802  0.00  0.00    +0.000 A 
ATOM      9  C   UNL     1      -4.827  11.507  16.497  0.00  0.00    +0.000 A 
ATOM     10  C   UNL     1      -3.675  10.854  16.053  0.00  0.00    +0.000 A 
ATOM     11  C   UNL     1      -3.558  10.299  14.666  0.00  0.00    +0.000 C 
ATOM     12  C   UNL     1      -2.606  10.719  16.931  0.00  0.00    +0.000 A 
ATOM     13  C   UNL     1      -2.692  11.224  18.231  0.00  0.00    +0.000 A 
ENDBRANCH   3   7
BRANCH   1  14
ATOM     14  C   UNL     1      -5.678  13.215  23.284  0.00  0.00    +0.000 C 
ATOM     15  O   UNL     1      -5.929  12.328  24.093  0.00  0.00    +0.000 OA
BRANCH  14  16
ATOM     16  O   UNL     1      -6.267  14.446  23.296  0.00  0.00    +0.000 OA
BRANCH  16  18
ATOM     17  C   UNL     1      -7.645  15.452  21.639  0.00  0.00    +0.000 C 
ATOM     18  C   UNL     1      -7.606  14.460  22.789  0.00  0.00    +0.000 C 
ENDBRANCH  16  18
ENDBRANCH  14  16
ENDBRANCH   1  14
BRANCH   4  19
ATOM     19  C   UNL     1      -1.685  13.555  20.314  0.00  0.00    +0.000 C 
BRANCH  19  20
ATOM     20  C   UNL     1      -0.583  12.507  20.314  0.00  0.00    +0.000 C 
ATOM     21  O   UNL     1       0.534  12.832  19.904  0.00  0.00    +0.000 OA
ATOM     22  N   UNL     1      -0.929  11.213  20.690  0.00  0.00    +0.000 N 
ATOM     23  H   UNL     1      -1.901  10.959  20.538  0.00  0.00    +0.000 HD
BRANCH  22  24
ATOM     24  C   UNL     1      -0.015  10.136  20.618  0.00  0.00    +0.000 A 
ATOM     25  C   UNL     1       0.517   9.817  19.357  0.00  0.00    +0.000 A 
ATOM     26  C   UNL     1       1.437   8.769  19.207  0.00  0.00    +0.000 A 
ATOM     27  C   UNL     1       2.058   8.450  17.878  0.00  0.00    +0.000 C 
ATOM     28  C   UNL     1       1.785   8.009  20.327  0.00  0.00    +0.000 A 
ATOM     29  C   UNL     1       1.225   8.296  21.574  0.00  0.00    +0.000 A 
ATOM     30  C   UNL     1       0.316   9.354  21.738  0.00  0.00    +0.000 A 
ATOM     31  C   UNL     1      -0.337   9.538  23.079  0.00  0.00    +0.000 C 
ENDBRANCH  22  24
ENDBRANCH  19  20
ENDBRANCH   4  19
TORSDOF 7
ENDMDL
MODEL 9
REMARK VINA RESULT:      -6.9      4.200      8.165
REMARK  Name = 
REMARK  12 active torsions:
REMARK  status: ('A' for Active; 'I' for Inactive)
REMARK    1  A    between atoms: C_1  and  C_2
REMARK    2  A    between atoms: C_2  and  O_3
REMARK    3  A    between atoms: O_3  and  C_4
REMARK    4  A    between atoms: C_4  and  C_6
REMARK    5  A    between atoms: C_8  and  C_9
REMARK    6  A    between atoms: C_12  and  C_13
REMARK    7  A    between atoms: N_16  and  C_17
REMARK    8  A    between atoms: C_17  and  C_18
REMARK    9  A    between atoms: N_20  and  C_21
REMARK   10  A    between atoms: C_23  and  C_24
REMARK   11  A    between atoms: C_27  and  C_28
REMARK   12  A    between atoms: C_29  and  C_30
REMARK                            x       y       z     vdW  Elec       q    Type
REMARK                         _______ _______ _______ _____ _____    ______ ____
ROOT
ATOM      1  C   UNL     1       2.606   4.301  20.512  0.00  0.00    +0.000 A 
ATOM      2  C   UNL     1       1.809   5.477  20.461  0.00  0.00    +0.000 A 
ATOM      3  C   UNL     1       2.471   6.469  19.743  0.00  0.00    +0.000 A 
ATOM      4  N   UNL     1       3.693   5.905  19.373  0.00  0.00    +0.000 N 
ATOM      5  C   UNL     1       3.749   4.577  19.775  0.00  0.00    +0.000 A 
ATOM      6  C   UNL     1       4.877   3.646  19.457  0.00  0.00    +0.000 C 
ENDROOT
BRANCH   3   7
ATOM      7  C   UNL     1       2.001   7.849  19.472  0.00  0.00    +0.000 A 
ATOM      8  C   UNL     1       1.406   8.594  20.498  0.00  0.00    +0.000 A 
ATOM      9  C   UNL     1       0.921   9.894  20.273  0.00  0.00    +0.000 A 
ATOM     10  C   UNL     1       1.028  10.484  19.012  0.00  0.00    +0.000 A 
ATOM     11  C   UNL     1       0.534  11.872  18.737  0.00  0.00    +0.000 C 
ATOM     12  C   UNL     1       1.612   9.755  17.983  0.00  0.00    +0.000 A 
ATOM     13  C   UNL     1       2.077   8.457  18.212  0.00  0.00    +0.000 A 
ENDBRANCH   3   7
BRANCH   1  14
ATOM     14  C   UNL     1       2.296   3.019  21.141  0.00  0.00    +0.000 C 
ATOM     15  O   UNL     1       2.373   2.815  22.347  0.00  0.00    +0.000 OA
BRANCH  14  16
ATOM     16  O   UNL     1       2.014   2.052  20.220  0.00  0.00    +0.000 OA
BRANCH  16  18
ATOM     17  C   UNL     1       1.560   2.447  17.919  0.00  0.00    +0.000 C 
ATOM     18  C   UNL     1       0.960   2.396  19.314  0.00  0.00    +0.000 C 
ENDBRANCH  16  18
ENDBRANCH  14  16
ENDBRANCH   1  14
BRANCH   4  19
ATOM     19  C   UNL     1       4.807   6.605  18.750  0.00  0.00    +0.000 C 
BRANCH  19  20
ATOM     20  C   UNL     1       5.047   6.302  17.279  0.00  0.00    +0.000 C 
ATOM     21  O   UNL     1       4.298   6.817  16.445  0.00  0.00    +0.000 OA
ATOM     22  N   UNL     1       6.045   5.384  16.969  0.00  0.00    +0.000 N 
ATOM     23  H   UNL     1       6.246   4.698  17.690  0.00  0.00    +0.000 HD
BRANCH  22  24
ATOM     24  C   UNL     1       6.279   4.942  15.645  0.00  0.00    +0.000 A 
ATOM     25  C   UNL     1       7.262   5.614  14.898  0.00  0.00    +0.000 A 
ATOM     26  C   UNL     1       7.558   5.226  13.583  0.00  0.00    +0.000 A 
ATOM     27  C   UNL     1       8.642   5.896  12.789  0.00  0.00    +0.000 C 
ATOM     28  C   UNL     1       6.824   4.188  13.003  0.00  0.00    +0.000 A 
ATOM     29  C   UNL     1       5.816   3.547  13.728  0.00  0.00    +0.000 A 
ATOM     30  C   UNL     1       5.524   3.915  15.051  0.00  0.00    +0.000 A 
ATOM     31  C   UNL     1       4.354   3.266  15.736  0.00  0.00    +0.000 C 
ENDBRANCH  22  24
ENDBRANCH  19  20
ENDBRANCH   4  19
TORSDOF 7
ENDMDL
