MODEL 1
REMARK VINA RESULT:      -8.2      0.000      0.000
REMARK  Name = 
REMARK  4 active torsions:
REMARK  status: ('A' for Active; 'I' for Inactive)
REMARK    1  A    between atoms: N_6  and  C_7
REMARK    2  A    between atoms: C_7  and  C_8
REMARK    3  A    between atoms: C_16  and  C_17
REMARK    4  A    between atoms: C_17  and  C_18
REMARK                            x       y       z     vdW  Elec       q    Type
REMARK                         _______ _______ _______ _____ _____    ______ ____
ROOT
ATOM      1  O   UNL     1       4.805   7.222  15.503  0.00  0.00    +0.000 OA
ATOM      2  C   UNL     1       5.189   6.353  16.284  0.00  0.00    +0.000 C 
ATOM      3  N   UNL     1       6.368   5.687  16.022  0.00  0.00    +0.000 N 
ATOM      4  C   UNL     1       6.770   4.496  16.739  0.00  0.00    +0.000 C 
ATOM      5  C   UNL     1       6.241   4.475  18.170  0.00  0.00    +0.000 C 
ATOM      6  N   UNL     1       4.795   4.767  18.242  0.00  0.00    +0.000 NA
ATOM      7  C   UNL     1       4.552   6.118  17.670  0.00  0.00    +0.000 C 
ATOM      8  H   UNL     1       6.768   5.882  15.113  0.00  0.00    +0.000 HD
ENDROOT
BRANCH   6   9
ATOM      9  C   UNL     1       3.939   3.680  17.709  0.00  0.00    +0.000 C 
BRANCH   9  10
ATOM     10  C   UNL     1       2.958   3.232  18.778  0.00  0.00    +0.000 A 
ATOM     11  C   UNL     1       1.616   3.618  18.632  0.00  0.00    +0.000 A 
ATOM     12  F   UNL     1       1.182   4.103  17.458  0.00  0.00    +0.000 F 
ATOM     13  C   UNL     1       0.727   3.599  19.701  0.00  0.00    +0.000 A 
ATOM     14  C   UNL     1       1.147   3.112  20.934  0.00  0.00    +0.000 A 
ATOM     15  C   UNL     1       2.433   2.588  21.064  0.00  0.00    +0.000 A 
ATOM     16  C   UNL     1       3.335   2.641  19.993  0.00  0.00    +0.000 A 
ATOM     17 CL   UNL     1       4.916   2.000  20.259  0.00  0.00    +0.000 Cl
ENDBRANCH   9  10
ENDBRANCH   6   9
BRANCH   7  18
ATOM     18  C   UNL     1       3.173   6.738  17.874  0.00  0.00    +0.000 C 
BRANCH  18  19
ATOM     19  C   UNL     1       2.670   7.035  19.279  0.00  0.00    +0.000 C 
ATOM     20  O   UNL     1       2.853   6.298  20.238  0.00  0.00    +0.000 OA
ATOM     21  N   UNL     1       1.905   8.191  19.332  0.00  0.00    +0.000 N 
ATOM     22  C   UNL     1       1.307   8.784  20.524  0.00  0.00    +0.000 C 
ATOM     23  C   UNL     1      -0.022   9.417  20.111  0.00  0.00    +0.000 C 
ATOM     24  C   UNL     1       0.134  10.315  18.877  0.00  0.00    +0.000 C 
ATOM     25  C   UNL     1       1.023   9.679  17.811  0.00  0.00    +0.000 C 
ATOM     26  O   UNL     1       2.235   9.207  18.401  0.00  0.00    +0.000 OA
ENDBRANCH  18  19
ENDBRANCH   7  18
TORSDOF 4
ENDMDL
MODEL 2
REMARK VINA RESULT:      -7.3      2.280      4.642
REMARK  Name = 
REMARK  4 active torsions:
REMARK  status: ('A' for Active; 'I' for Inactive)
REMARK    1  A    between atoms: N_6  and  C_7
REMARK    2  A    between atoms: C_7  and  C_8
REMARK    3  A    between atoms: C_16  and  C_17
REMARK    4  A    between atoms: C_17  and  C_18
REMARK                            x       y       z     vdW  Elec       q    Type
REMARK                         _______ _______ _______ _____ _____    ______ ____
ROOT
ATOM      1  O   UNL     1       1.983   4.685  21.240  0.00  0.00    +0.000 OA
ATOM      2  C   UNL     1       2.406   4.089  20.252  0.00  0.00    +0.000 C 
ATOM      3  N   UNL     1       2.141   2.742  20.114  0.00  0.00    +0.000 N 
ATOM      4  C   UNL     1       2.796   1.913  19.125  0.00  0.00    +0.000 C 
ATOM      5  C   UNL     1       3.179   2.696  17.873  0.00  0.00    +0.000 C 
ATOM      6  N   UNL     1       3.899   3.947  18.188  0.00  0.00    +0.000 NA
ATOM      7  C   UNL     1       3.021   4.804  19.030  0.00  0.00    +0.000 C 
ATOM      8  H   UNL     1       1.719   2.312  20.927  0.00  0.00    +0.000 HD
ENDROOT
BRANCH   6   9
ATOM      9  C   UNL     1       5.272   3.732  18.703  0.00  0.00    +0.000 C 
BRANCH   9  10
ATOM     10  C   UNL     1       6.234   4.677  18.003  0.00  0.00    +0.000 A 
ATOM     11  C   UNL     1       6.919   5.612  18.794  0.00  0.00    +0.000 A 
ATOM     12  F   UNL     1       6.938   5.475  20.129  0.00  0.00    +0.000 F 
ATOM     13  C   UNL     1       7.512   6.743  18.244  0.00  0.00    +0.000 A 
ATOM     14  C   UNL     1       7.502   6.922  16.866  0.00  0.00    +0.000 A 
ATOM     15  C   UNL     1       6.954   5.932  16.048  0.00  0.00    +0.000 A 
ATOM     16  C   UNL     1       6.328   4.811  16.610  0.00  0.00    +0.000 A 
ATOM     17 CL   UNL     1       5.648   3.658  15.521  0.00  0.00    +0.000 Cl
ENDBRANCH   9  10
ENDBRANCH   6   9
BRANCH   7  18
ATOM     18  C   UNL     1       3.450   6.250  19.262  0.00  0.00    +0.000 C 
BRANCH  18  19
ATOM     19  C   UNL     1       3.214   7.297  18.184  0.00  0.00    +0.000 C 
ATOM     20  O   UNL     1       3.820   7.329  17.121  0.00  0.00    +0.000 OA
ATOM     21  N   UNL     1       2.299   8.263  18.577  0.00  0.00    +0.000 N 
ATOM     22  C   UNL     1       1.817   9.382  17.774  0.00  0.00    +0.000 C 
ATOM     23  C   UNL     1       1.581  10.563  18.717  0.00  0.00    +0.000 C 
ATOM     24  C   UNL     1       0.747  10.158  19.940  0.00  0.00    +0.000 C 
ATOM     25  C   UNL     1       1.188   8.815  20.518  0.00  0.00    +0.000 C 
ATOM     26  O   UNL     1       1.289   7.842  19.477  0.00  0.00    +0.000 OA
ENDBRANCH  18  19
ENDBRANCH   7  18
TORSDOF 4
ENDMDL
MODEL 3
REMARK VINA RESULT:      -7.2      1.008      1.694
REMARK  Name = 
REMARK  4 active torsions:
REMARK  status: ('A' for Active; 'I' for Inactive)
REMARK    1  A    between atoms: N_6  and  C_7
REMARK    2  A    between atoms: C_7  and  C_8
REMARK    3  A    between atoms: C_16  and  C_17
REMARK    4  A    between atoms: C_17  and  C_18
REMARK                            x       y       z     vdW  Elec       q    Type
REMARK                         _______ _______ _______ _____ _____    ______ ____
ROOT
ATOM      1  O   UNL     1       4.936   7.235  15.722  0.00  0.00    +0.000 OA
ATOM      2  C   UNL     1       5.203   6.580  16.727  0.00  0.00    +0.000 C 
ATOM      3  N   UNL     1       6.488   6.108  16.901  0.00  0.00    +0.000 N 
ATOM      4  C   UNL     1       6.834   5.133  17.912  0.00  0.00    +0.000 C 
ATOM      5  C   UNL     1       5.938   5.233  19.144  0.00  0.00    +0.000 C 
ATOM      6  N   UNL     1       4.503   5.264  18.797  0.00  0.00    +0.000 NA
ATOM      7  C   UNL     1       4.247   6.446  17.931  0.00  0.00    +0.000 C 
ATOM      8  H   UNL     1       7.093   6.232  16.099  0.00  0.00    +0.000 HD
ENDROOT
BRANCH   6   9
ATOM      9  C   UNL     1       3.983   3.971  18.291  0.00  0.00    +0.000 C 
BRANCH   9  10
ATOM     10  C   UNL     1       3.014   3.380  19.300  0.00  0.00    +0.000 A 
ATOM     11  C   UNL     1       1.671   3.780  19.224  0.00  0.00    +0.000 A 
ATOM     12  F   UNL     1       1.223   4.420  18.133  0.00  0.00    +0.000 F 
ATOM     13  C   UNL     1       0.795   3.613  20.291  0.00  0.00    +0.000 A 
ATOM     14  C   UNL     1       1.229   2.963  21.440  0.00  0.00    +0.000 A 
ATOM     15  C   UNL     1       2.517   2.428  21.482  0.00  0.00    +0.000 A 
ATOM     16  C   UNL     1       3.406   2.628  20.418  0.00  0.00    +0.000 A 
ATOM     17 CL   UNL     1       4.990   1.959  20.575  0.00  0.00    +0.000 Cl
ENDBRANCH   9  10
ENDBRANCH   6   9
BRANCH   7  18
ATOM     18  C   UNL     1       2.794   6.827  17.661  0.00  0.00    +0.000 C 
BRANCH  18  19
ATOM     19  C   UNL     1       2.331   8.261  17.868  0.00  0.00    +0.000 C 
ATOM     20  O   UNL     1       2.520   9.161  17.060  0.00  0.00    +0.000 OA
ATOM     21  N   UNL     1       1.749   8.455  19.112  0.00  0.00    +0.000 N 
ATOM     22  C   UNL     1       1.164   9.693  19.616  0.00  0.00    +0.000 C 
ATOM     23  C   UNL     1       1.434   9.757  21.120  0.00  0.00    +0.000 C 
ATOM     24  C   UNL     1       1.041   8.451  21.824  0.00  0.00    +0.000 C 
ATOM     25  C   UNL     1       1.478   7.219  21.037  0.00  0.00    +0.000 C 
ATOM     26  O   UNL     1       1.076   7.340  19.672  0.00  0.00    +0.000 OA
ENDBRANCH  18  19
ENDBRANCH   7  18
TORSDOF 4
ENDMDL
MODEL 4
REMARK VINA RESULT:      -7.0      1.487      1.768
REMARK  Name = 
REMARK  4 active torsions:
REMARK  status: ('A' for Active; 'I' for Inactive)
REMARK    1  A    between atoms: N_6  and  C_7
REMARK    2  A    between atoms: C_7  and  C_8
REMARK    3  A    between atoms: C_16  and  C_17
REMARK    4  A    between atoms: C_17  and  C_18
REMARK                            x       y       z     vdW  Elec       q    Type
REMARK                         _______ _______ _______ _____ _____    ______ ____
ROOT
ATOM      1  O   UNL     1       4.871   7.133  15.271  0.00  0.00    +0.000 OA
ATOM      2  C   UNL     1       5.307   6.347  16.109  0.00  0.00    +0.000 C 
ATOM      3  N   UNL     1       6.489   5.683  15.857  0.00  0.00    +0.000 N 
ATOM      4  C   UNL     1       6.948   4.570  16.660  0.00  0.00    +0.000 C 
ATOM      5  C   UNL     1       6.480   4.667  18.109  0.00  0.00    +0.000 C 
ATOM      6  N   UNL     1       5.031   4.936  18.217  0.00  0.00    +0.000 NA
ATOM      7  C   UNL     1       4.733   6.226  17.537  0.00  0.00    +0.000 C 
ATOM      8  H   UNL     1       6.847   5.802  14.918  0.00  0.00    +0.000 HD
ENDROOT
BRANCH   6   9
ATOM      9  C   UNL     1       4.180   3.789  17.820  0.00  0.00    +0.000 C 
BRANCH   9  10
ATOM     10  C   UNL     1       3.141   3.528  18.897  0.00  0.00    +0.000 A 
ATOM     11  C   UNL     1       3.584   2.971  20.107  0.00  0.00    +0.000 A 
ATOM     12  F   UNL     1       4.894   2.949  20.395  0.00  0.00    +0.000 F 
ATOM     13  C   UNL     1       2.709   2.352  20.992  0.00  0.00    +0.000 A 
ATOM     14  C   UNL     1       1.345   2.348  20.720  0.00  0.00    +0.000 A 
ATOM     15  C   UNL     1       0.867   3.023  19.596  0.00  0.00    +0.000 A 
ATOM     16  C   UNL     1       1.756   3.616  18.690  0.00  0.00    +0.000 A 
ATOM     17 CL   UNL     1       1.074   4.398  17.311  0.00  0.00    +0.000 Cl
ENDBRANCH   9  10
ENDBRANCH   6   9
BRANCH   7  18
ATOM     18  C   UNL     1       3.349   6.834  17.743  0.00  0.00    +0.000 C 
BRANCH  18  19
ATOM     19  C   UNL     1       2.840   7.110  19.150  0.00  0.00    +0.000 C 
ATOM     20  O   UNL     1       3.062   6.385  20.110  0.00  0.00    +0.000 OA
ATOM     21  N   UNL     1       2.021   8.229  19.205  0.00  0.00    +0.000 N 
ATOM     22  C   UNL     1       1.401   8.795  20.398  0.00  0.00    +0.000 C 
ATOM     23  C   UNL     1       0.041   9.363  19.991  0.00  0.00    +0.000 C 
ATOM     24  C   UNL     1       0.148  10.265  18.754  0.00  0.00    +0.000 C 
ATOM     25  C   UNL     1       1.061   9.669  17.685  0.00  0.00    +0.000 C 
ATOM     26  O   UNL     1       2.297   9.257  18.269  0.00  0.00    +0.000 OA
ENDBRANCH  18  19
ENDBRANCH   7  18
TORSDOF 4
ENDMDL
MODEL 5
REMARK VINA RESULT:      -7.0      4.242      8.230
REMARK  Name = 
REMARK  4 active torsions:
REMARK  status: ('A' for Active; 'I' for Inactive)
REMARK    1  A    between atoms: N_6  and  C_7
REMARK    2  A    between atoms: C_7  and  C_8
REMARK    3  A    between atoms: C_16  and  C_17
REMARK    4  A    between atoms: C_17  and  C_18
REMARK                            x       y       z     vdW  Elec       q    Type
REMARK                         _______ _______ _______ _____ _____    ______ ____
ROOT
ATOM      1  O   UNL     1       1.534  10.959  21.674  0.00  0.00    +0.000 OA
ATOM      2  C   UNL     1       0.888  11.498  20.778  0.00  0.00    +0.000 C 
ATOM      3  N   UNL     1       0.533  12.824  20.908  0.00  0.00    +0.000 N 
ATOM      4  C   UNL     1      -0.425  13.468  20.035  0.00  0.00    +0.000 C 
ATOM      5  C   UNL     1      -0.431  12.862  18.634  0.00  0.00    +0.000 C 
ATOM      6  N   UNL     1      -0.525  11.388  18.657  0.00  0.00    +0.000 NA
ATOM      7  C   UNL     1       0.644  10.846  19.400  0.00  0.00    +0.000 C 
ATOM      8  H   UNL     1       0.726  13.223  21.818  0.00  0.00    +0.000 HD
ENDROOT
BRANCH   6   9
ATOM      9  C   UNL     1      -1.850  10.881  19.086  0.00  0.00    +0.000 C 
BRANCH   9  10
ATOM     10  C   UNL     1      -2.745  10.700  17.872  0.00  0.00    +0.000 A 
ATOM     11  C   UNL     1      -2.226   9.983  16.783  0.00  0.00    +0.000 A 
ATOM     12  F   UNL     1      -1.111   9.252  16.931  0.00  0.00    +0.000 F 
ATOM     13  C   UNL     1      -2.784  10.077  15.512  0.00  0.00    +0.000 A 
ATOM     14  C   UNL     1      -3.934  10.834  15.321  0.00  0.00    +0.000 A 
ATOM     15  C   UNL     1      -4.550  11.437  16.418  0.00  0.00    +0.000 A 
ATOM     16  C   UNL     1      -3.965  11.367  17.690  0.00  0.00    +0.000 A 
ATOM     17 CL   UNL     1      -4.782  12.174  18.979  0.00  0.00    +0.000 Cl
ENDBRANCH   9  10
ENDBRANCH   6   9
BRANCH   7  18
ATOM     18  C   UNL     1       0.896   9.343  19.329  0.00  0.00    +0.000 C 
BRANCH  18  19
ATOM     19  C   UNL     1       1.892   8.783  18.325  0.00  0.00    +0.000 C 
ATOM     20  O   UNL     1       2.193   9.342  17.280  0.00  0.00    +0.000 OA
ATOM     21  N   UNL     1       2.354   7.525  18.685  0.00  0.00    +0.000 N 
ATOM     22  C   UNL     1       3.343   6.725  17.971  0.00  0.00    +0.000 C 
ATOM     23  C   UNL     1       2.954   5.254  18.130  0.00  0.00    +0.000 C 
ATOM     24  C   UNL     1       2.677   4.893  19.595  0.00  0.00    +0.000 C 
ATOM     25  C   UNL     1       1.856   5.966  20.306  0.00  0.00    +0.000 C 
ATOM     26  O   UNL     1       2.426   7.255  20.075  0.00  0.00    +0.000 OA
ENDBRANCH  18  19
ENDBRANCH   7  18
TORSDOF 4
ENDMDL
MODEL 6
REMARK VINA RESULT:      -6.9      1.992      4.475
REMARK  Name = 
REMARK  4 active torsions:
REMARK  status: ('A' for Active; 'I' for Inactive)
REMARK    1  A    between atoms: N_6  and  C_7
REMARK    2  A    between atoms: C_7  and  C_8
REMARK    3  A    between atoms: C_16  and  C_17
REMARK    4  A    between atoms: C_17  and  C_18
REMARK                            x       y       z     vdW  Elec       q    Type
REMARK                         _______ _______ _______ _____ _____    ______ ____
ROOT
ATOM      1  O   UNL     1       2.078   4.584  21.731  0.00  0.00    +0.000 OA
ATOM      2  C   UNL     1       2.132   4.040  20.630  0.00  0.00    +0.000 C 
ATOM      3  N   UNL     1       1.676   2.746  20.495  0.00  0.00    +0.000 N 
ATOM      4  C   UNL     1       1.923   1.948  19.313  0.00  0.00    +0.000 C 
ATOM      5  C   UNL     1       2.038   2.799  18.052  0.00  0.00    +0.000 C 
ATOM      6  N   UNL     1       2.966   3.936  18.221  0.00  0.00    +0.000 NA
ATOM      7  C   UNL     1       2.468   4.797  19.327  0.00  0.00    +0.000 C 
ATOM      8  H   UNL     1       1.445   2.288  21.368  0.00  0.00    +0.000 HD
ENDROOT
BRANCH   6   9
ATOM      9  C   UNL     1       4.390   3.536  18.309  0.00  0.00    +0.000 C 
BRANCH   9  10
ATOM     10  C   UNL     1       5.221   4.400  17.376  0.00  0.00    +0.000 A 
ATOM     11  C   UNL     1       4.994   4.273  15.997  0.00  0.00    +0.000 A 
ATOM     12  F   UNL     1       3.898   3.637  15.553  0.00  0.00    +0.000 F 
ATOM     13  C   UNL     1       5.922   4.709  15.058  0.00  0.00    +0.000 A 
ATOM     14  C   UNL     1       7.073   5.362  15.482  0.00  0.00    +0.000 A 
ATOM     15  C   UNL     1       7.250   5.630  16.841  0.00  0.00    +0.000 A 
ATOM     16  C   UNL     1       6.328   5.158  17.785  0.00  0.00    +0.000 A 
ATOM     17 CL   UNL     1       6.649   5.508  19.444  0.00  0.00    +0.000 Cl
ENDBRANCH   9  10
ENDBRANCH   6   9
BRANCH   7  18
ATOM     18  C   UNL     1       3.120   6.165  19.511  0.00  0.00    +0.000 C 
BRANCH  18  19
ATOM     19  C   UNL     1       2.668   7.345  18.665  0.00  0.00    +0.000 C 
ATOM     20  O   UNL     1       3.028   7.534  17.511  0.00  0.00    +0.000 OA
ATOM     21  N   UNL     1       1.871   8.230  19.377  0.00  0.00    +0.000 N 
ATOM     22  C   UNL     1       1.238   9.439  18.860  0.00  0.00    +0.000 C 
ATOM     23  C   UNL     1       1.226  10.475  19.985  0.00  0.00    +0.000 C 
ATOM     24  C   UNL     1       0.673   9.891  21.291  0.00  0.00    +0.000 C 
ATOM     25  C   UNL     1       1.213   8.490  21.569  0.00  0.00    +0.000 C 
ATOM     26  O   UNL     1       1.075   7.671  20.407  0.00  0.00    +0.000 OA
ENDBRANCH  18  19
ENDBRANCH   7  18
TORSDOF 4
ENDMDL
MODEL 7
REMARK VINA RESULT:      -6.8      2.706      4.707
REMARK  Name = 
REMARK  4 active torsions:
REMARK  status: ('A' for Active; 'I' for Inactive)
REMARK    1  A    between atoms: N_6  and  C_7
REMARK    2  A    between atoms: C_7  and  C_8
REMARK    3  A    between atoms: C_16  and  C_17
REMARK    4  A    between atoms: C_17  and  C_18
REMARK                            x       y       z     vdW  Elec       q    Type
REMARK                         _______ _______ _______ _____ _____    ______ ____
ROOT
ATOM      1  O   UNL     1       1.603   8.234  20.828  0.00  0.00    +0.000 OA
ATOM      2  C   UNL     1       2.067   7.438  20.013  0.00  0.00    +0.000 C 
ATOM      3  N   UNL     1       2.354   6.151  20.418  0.00  0.00    +0.000 N 
ATOM      4  C   UNL     1       3.122   5.229  19.609  0.00  0.00    +0.000 C 
ATOM      5  C   UNL     1       2.946   5.484  18.114  0.00  0.00    +0.000 C 
ATOM      6  N   UNL     1       3.135   6.905  17.758  0.00  0.00    +0.000 NA
ATOM      7  C   UNL     1       2.132   7.719  18.497  0.00  0.00    +0.000 C 
ATOM      8  H   UNL     1       2.281   5.998  21.416  0.00  0.00    +0.000 HD
ENDROOT
BRANCH   6   9
ATOM      9  C   UNL     1       4.540   7.366  17.864  0.00  0.00    +0.000 C 
BRANCH   9  10
ATOM     10  C   UNL     1       5.445   6.423  17.090  0.00  0.00    +0.000 A 
ATOM     11  C   UNL     1       5.262   6.338  15.701  0.00  0.00    +0.000 A 
ATOM     12  F   UNL     1       4.525   7.262  15.065  0.00  0.00    +0.000 F 
ATOM     13  C   UNL     1       5.749   5.267  14.962  0.00  0.00    +0.000 A 
ATOM     14  C   UNL     1       6.508   4.287  15.591  0.00  0.00    +0.000 A 
ATOM     15  C   UNL     1       6.826   4.426  16.943  0.00  0.00    +0.000 A 
ATOM     16  C   UNL     1       6.304   5.490  17.690  0.00  0.00    +0.000 A 
ATOM     17 CL   UNL     1       6.724   5.560  19.363  0.00  0.00    +0.000 Cl
ENDBRANCH   9  10
ENDBRANCH   6   9
BRANCH   7  18
ATOM     18  C   UNL     1       1.967   9.181  18.092  0.00  0.00    +0.000 C 
BRANCH  18  19
ATOM     19  C   UNL     1       0.578   9.796  18.004  0.00  0.00    +0.000 C 
ATOM     20  O   UNL     1      -0.374   9.252  17.462  0.00  0.00    +0.000 OA
ATOM     21  N   UNL     1       0.535  11.080  18.527  0.00  0.00    +0.000 N 
ATOM     22  C   UNL     1      -0.642  11.935  18.637  0.00  0.00    +0.000 C 
ATOM     23  C   UNL     1      -0.188  13.380  18.429  0.00  0.00    +0.000 C 
ATOM     24  C   UNL     1       1.023  13.729  19.304  0.00  0.00    +0.000 C 
ATOM     25  C   UNL     1       2.063  12.612  19.317  0.00  0.00    +0.000 C 
ATOM     26  O   UNL     1       1.435  11.358  19.587  0.00  0.00    +0.000 OA
ENDBRANCH  18  19
ENDBRANCH   7  18
TORSDOF 4
ENDMDL
MODEL 8
REMARK VINA RESULT:      -6.7      2.565      4.810
REMARK  Name = 
REMARK  4 active torsions:
REMARK  status: ('A' for Active; 'I' for Inactive)
REMARK    1  A    between atoms: N_6  and  C_7
REMARK    2  A    between atoms: C_7  and  C_8
REMARK    3  A    between atoms: C_16  and  C_17
REMARK    4  A    between atoms: C_17  and  C_18
REMARK                            x       y       z     vdW  Elec       q    Type
REMARK                         _______ _______ _______ _____ _____    ______ ____
ROOT
ATOM      1  O   UNL     1       1.308   4.740  20.582  0.00  0.00    +0.000 OA
ATOM      2  C   UNL     1       2.028   4.408  19.643  0.00  0.00    +0.000 C 
ATOM      3  N   UNL     1       2.009   3.099  19.209  0.00  0.00    +0.000 N 
ATOM      4  C   UNL     1       2.988   2.565  18.288  0.00  0.00    +0.000 C 
ATOM      5  C   UNL     1       3.521   3.626  17.329  0.00  0.00    +0.000 C 
ATOM      6  N   UNL     1       3.953   4.853  18.028  0.00  0.00    +0.000 NA
ATOM      7  C   UNL     1       2.787   5.421  18.759  0.00  0.00    +0.000 C 
ATOM      8  H   UNL     1       1.484   2.468  19.802  0.00  0.00    +0.000 HD
ENDROOT
BRANCH   6   9
ATOM      9  C   UNL     1       5.190   4.682  18.826  0.00  0.00    +0.000 C 
BRANCH   9  10
ATOM     10  C   UNL     1       6.265   5.624  18.310  0.00  0.00    +0.000 A 
ATOM     11  C   UNL     1       7.375   5.858  19.135  0.00  0.00    +0.000 A 
ATOM     12  F   UNL     1       7.607   5.061  20.190  0.00  0.00    +0.000 F 
ATOM     13  C   UNL     1       8.208   6.956  18.949  0.00  0.00    +0.000 A 
ATOM     14  C   UNL     1       7.990   7.808  17.872  0.00  0.00    +0.000 A 
ATOM     15  C   UNL     1       6.981   7.512  16.955  0.00  0.00    +0.000 A 
ATOM     16  C   UNL     1       6.124   6.423  17.166  0.00  0.00    +0.000 A 
ATOM     17 CL   UNL     1       4.883   6.157  15.997  0.00  0.00    +0.000 Cl
ENDBRANCH   9  10
ENDBRANCH   6   9
BRANCH   7  18
ATOM     18  C   UNL     1       2.929   6.824  19.340  0.00  0.00    +0.000 C 
BRANCH  18  19
ATOM     19  C   UNL     1       2.227   7.999  18.676  0.00  0.00    +0.000 C 
ATOM     20  O   UNL     1       2.352   8.287  17.493  0.00  0.00    +0.000 OA
ATOM     21  N   UNL     1       1.499   8.760  19.580  0.00  0.00    +0.000 N 
ATOM     22  C   UNL     1       0.679   9.926  19.272  0.00  0.00    +0.000 C 
ATOM     23  C   UNL     1       0.782  10.892  20.454  0.00  0.00    +0.000 C 
ATOM     24  C   UNL     1       0.532  10.184  21.792  0.00  0.00    +0.000 C 
ATOM     25  C   UNL     1       1.235   8.831  21.867  0.00  0.00    +0.000 C 
ATOM     26  O   UNL     1       0.958   8.067  20.692  0.00  0.00    +0.000 OA
ENDBRANCH  18  19
ENDBRANCH   7  18
TORSDOF 4
ENDMDL
MODEL 9
REMARK VINA RESULT:      -6.3      2.122      4.499
REMARK  Name = 
REMARK  4 active torsions:
REMARK  status: ('A' for Active; 'I' for Inactive)
REMARK    1  A    between atoms: N_6  and  C_7
REMARK    2  A    between atoms: C_7  and  C_8
REMARK    3  A    between atoms: C_16  and  C_17
REMARK    4  A    between atoms: C_17  and  C_18
REMARK                            x       y       z     vdW  Elec       q    Type
REMARK                         _______ _______ _______ _____ _____    ______ ____
ROOT
ATOM      1  O   UNL     1       2.419   4.406  21.571  0.00  0.00    +0.000 OA
ATOM      2  C   UNL     1       2.763   4.358  20.392  0.00  0.00    +0.000 C 
ATOM      3  N   UNL     1       3.086   3.138  19.835  0.00  0.00    +0.000 N 
ATOM      4  C   UNL     1       3.731   3.013  18.545  0.00  0.00    +0.000 C 
ATOM      5  C   UNL     1       3.363   4.154  17.600  0.00  0.00    +0.000 C 
ATOM      6  N   UNL     1       3.520   5.481  18.230  0.00  0.00    +0.000 NA
ATOM      7  C   UNL     1       2.632   5.551  19.422  0.00  0.00    +0.000 C 
ATOM      8  H   UNL     1       3.142   2.375  20.498  0.00  0.00    +0.000 HD
ENDROOT
BRANCH   6   9
ATOM      9  C   UNL     1       4.932   5.871  18.457  0.00  0.00    +0.000 C 
BRANCH   9  10
ATOM     10  C   UNL     1       5.709   5.753  17.157  0.00  0.00    +0.000 A 
ATOM     11  C   UNL     1       5.120   6.280  15.997  0.00  0.00    +0.000 A 
ATOM     12  F   UNL     1       4.063   7.101  16.095  0.00  0.00    +0.000 F 
ATOM     13  C   UNL     1       5.542   5.906  14.726  0.00  0.00    +0.000 A 
ATOM     14  C   UNL     1       6.628   5.049  14.588  0.00  0.00    +0.000 A 
ATOM     15  C   UNL     1       7.321   4.628  15.725  0.00  0.00    +0.000 A 
ATOM     16  C   UNL     1       6.870   4.981  17.004  0.00  0.00    +0.000 A 
ATOM     17 CL   UNL     1       7.770   4.385  18.350  0.00  0.00    +0.000 Cl
ENDBRANCH   9  10
ENDBRANCH   6   9
BRANCH   7  18
ATOM     18  C   UNL     1       2.432   6.914  20.079  0.00  0.00    +0.000 C 
BRANCH  18  19
ATOM     19  C   UNL     1       1.841   8.066  19.279  0.00  0.00    +0.000 C 
ATOM     20  O   UNL     1       2.066   8.257  18.092  0.00  0.00    +0.000 OA
ATOM     21  N   UNL     1       1.090   8.925  20.068  0.00  0.00    +0.000 N 
ATOM     22  C   UNL     1       0.355  10.102  19.616  0.00  0.00    +0.000 C 
ATOM     23  C   UNL     1       0.423  11.148  20.730  0.00  0.00    +0.000 C 
ATOM     24  C   UNL     1       0.040  10.556  22.092  0.00  0.00    +0.000 C 
ATOM     25  C   UNL     1       0.665   9.182  22.318  0.00  0.00    +0.000 C 
ATOM     26  O   UNL     1       0.435   8.345  21.183  0.00  0.00    +0.000 OA
ENDBRANCH  18  19
ENDBRANCH   7  18
TORSDOF 4
ENDMDL
