MODEL 1
REMARK VINA RESULT:      -6.7      0.000      0.000
REMARK  Name = 
REMARK  10 active torsions:
REMARK  status: ('A' for Active; 'I' for Inactive)
REMARK    1  A    between atoms: C_1  and  O_2
REMARK    2  A    between atoms: O_2  and  C_3
REMARK    3  A    between atoms: C_8  and  O_9
REMARK    4  A    between atoms: O_9  and  C_10
REMARK    5  A    between atoms: C_10  and  C_11
REMARK    6  A    between atoms: N_13  and  C_14
REMARK    7  A    between atoms: C_14  and  C_15
REMARK    8  A    between atoms: C_15  and  C_16
REMARK    9  A    between atoms: C_15  and  O_17
REMARK   10  A    between atoms: C_15  and  C_18
REMARK                            x       y       z     vdW  Elec       q    Type
REMARK                         _______ _______ _______ _____ _____    ______ ____
ROOT
ATOM      1  C   UNL     1       4.804   3.139  19.230  0.00  0.00    +0.000 C 
ATOM      2  O   UNL     1       4.958   2.576  20.306  0.00  0.00    +0.000 OA
ATOM      3  N   UNL     1       3.720   2.869  18.413  0.00  0.00    +0.000 N 
ATOM      4  H   UNL     1       3.679   3.338  17.515  0.00  0.00    +0.000 HD
ENDROOT
BRANCH   1   5
ATOM      5  C   UNL     1       5.771   4.212  18.718  0.00  0.00    +0.000 C 
BRANCH   5   6
ATOM      6  O   UNL     1       5.225   5.025  17.690  0.00  0.00    +0.000 OA
BRANCH   6  12
ATOM      7  C   UNL     1       6.990   5.539  15.985  0.00  0.00    +0.000 A 
ATOM      8  C   UNL     1       7.443   5.281  14.680  0.00  0.00    +0.000 A 
ATOM      9  C   UNL     1       6.684   4.513  13.801  0.00  0.00    +0.000 A 
ATOM     10  C   UNL     1       5.485   3.957  14.231  0.00  0.00    +0.000 A 
ATOM     11  C   UNL     1       5.061   4.153  15.549  0.00  0.00    +0.000 A 
ATOM     12  C   UNL     1       5.805   4.937  16.446  0.00  0.00    +0.000 A 
BRANCH   7  14
ATOM     13  C   UNL     1       7.091   7.541  17.242  0.00  0.00    +0.000 C 
ATOM     14  O   UNL     1       7.727   6.334  16.822  0.00  0.00    +0.000 OA
ENDBRANCH   7  14
ENDBRANCH   6  12
ENDBRANCH   5   6
ENDBRANCH   1   5
BRANCH   3  15
ATOM     15  C   UNL     1       2.617   2.024  18.851  0.00  0.00    +0.000 C 
BRANCH  15  16
ATOM     16  C   UNL     1       1.210   2.695  18.822  0.00  0.00    +0.000 C 
ATOM     17  C   UNL     1       1.217   3.920  17.908  0.00  0.00    +0.000 C 
BRANCH  16  18
ATOM     18  C   UNL     1       0.835   3.093  20.247  0.00  0.00    +0.000 C 
ATOM     19  C   UNL     1       1.671   2.705  21.446  0.00  0.00    +0.000 C 
ATOM     20  C   UNL     1       1.618   4.143  21.010  0.00  0.00    +0.000 C 
ENDBRANCH  16  18
BRANCH  16  21
ATOM     21  O   UNL     1       0.215   1.809  18.307  0.00  0.00    +0.000 OA
ATOM     22  H   UNL     1      -0.585   2.337  18.127  0.00  0.00    +0.000 HD
ENDBRANCH  16  21
ENDBRANCH  15  16
ENDBRANCH   3  15
TORSDOF 8
ENDMDL
MODEL 2
REMARK VINA RESULT:      -6.7      1.811      6.445
REMARK  Name = 
REMARK  10 active torsions:
REMARK  status: ('A' for Active; 'I' for Inactive)
REMARK    1  A    between atoms: C_1  and  O_2
REMARK    2  A    between atoms: O_2  and  C_3
REMARK    3  A    between atoms: C_8  and  O_9
REMARK    4  A    between atoms: O_9  and  C_10
REMARK    5  A    between atoms: C_10  and  C_11
REMARK    6  A    between atoms: N_13  and  C_14
REMARK    7  A    between atoms: C_14  and  C_15
REMARK    8  A    between atoms: C_15  and  C_16
REMARK    9  A    between atoms: C_15  and  O_17
REMARK   10  A    between atoms: C_15  and  C_18
REMARK                            x       y       z     vdW  Elec       q    Type
REMARK                         _______ _______ _______ _____ _____    ______ ____
ROOT
ATOM      1  C   UNL     1       4.440   3.181  18.303  0.00  0.00    +0.000 C 
ATOM      2  O   UNL     1       5.111   3.382  19.306  0.00  0.00    +0.000 OA
ATOM      3  N   UNL     1       4.869   3.569  17.047  0.00  0.00    +0.000 N 
ATOM      4  H   UNL     1       4.242   3.412  16.265  0.00  0.00    +0.000 HD
ENDROOT
BRANCH   1   5
ATOM      5  C   UNL     1       3.092   2.452  18.350  0.00  0.00    +0.000 C 
BRANCH   5   6
ATOM      6  O   UNL     1       1.976   3.308  18.151  0.00  0.00    +0.000 OA
BRANCH   6  12
ATOM      7  C   UNL     1       1.569   4.723  20.179  0.00  0.00    +0.000 A 
ATOM      8  C   UNL     1       1.677   6.013  20.726  0.00  0.00    +0.000 A 
ATOM      9  C   UNL     1       2.079   7.090  19.940  0.00  0.00    +0.000 A 
ATOM     10  C   UNL     1       2.419   6.880  18.609  0.00  0.00    +0.000 A 
ATOM     11  C   UNL     1       2.379   5.588  18.075  0.00  0.00    +0.000 A 
ATOM     12  C   UNL     1       1.962   4.493  18.848  0.00  0.00    +0.000 A 
BRANCH   7  14
ATOM     13  C   UNL     1       2.120   3.066  21.776  0.00  0.00    +0.000 C 
ATOM     14  O   UNL     1       1.128   3.684  20.956  0.00  0.00    +0.000 OA
ENDBRANCH   7  14
ENDBRANCH   6  12
ENDBRANCH   5   6
ENDBRANCH   1   5
BRANCH   3  15
ATOM     15  C   UNL     1       6.209   4.091  16.817  0.00  0.00    +0.000 C 
BRANCH  15  16
ATOM     16  C   UNL     1       6.414   4.834  15.462  0.00  0.00    +0.000 C 
ATOM     17  C   UNL     1       5.361   5.928  15.284  0.00  0.00    +0.000 C 
BRANCH  16  18
ATOM     18  C   UNL     1       6.320   3.812  14.332  0.00  0.00    +0.000 C 
ATOM     19  C   UNL     1       5.312   3.932  13.210  0.00  0.00    +0.000 C 
ATOM     20  C   UNL     1       6.774   4.142  12.924  0.00  0.00    +0.000 C 
ENDBRANCH  16  18
BRANCH  16  21
ATOM     21  O   UNL     1       7.687   5.481  15.403  0.00  0.00    +0.000 OA
ATOM     22  H   UNL     1       8.296   4.984  15.979  0.00  0.00    +0.000 HD
ENDBRANCH  16  21
ENDBRANCH  15  16
ENDBRANCH   3  15
TORSDOF 8
ENDMDL
MODEL 3
REMARK VINA RESULT:      -6.7      1.897      6.421
REMARK  Name = 
REMARK  10 active torsions:
REMARK  status: ('A' for Active; 'I' for Inactive)
REMARK    1  A    between atoms: C_1  and  O_2
REMARK    2  A    between atoms: O_2  and  C_3
REMARK    3  A    between atoms: C_8  and  O_9
REMARK    4  A    between atoms: O_9  and  C_10
REMARK    5  A    between atoms: C_10  and  C_11
REMARK    6  A    between atoms: N_13  and  C_14
REMARK    7  A    between atoms: C_14  and  C_15
REMARK    8  A    between atoms: C_15  and  C_16
REMARK    9  A    between atoms: C_15  and  O_17
REMARK   10  A    between atoms: C_15  and  C_18
REMARK                            x       y       z     vdW  Elec       q    Type
REMARK                         _______ _______ _______ _____ _____    ______ ____
ROOT
ATOM      1  C   UNL     1       6.370   5.014  18.291  0.00  0.00    +0.000 C 
ATOM      2  O   UNL     1       7.450   5.571  18.438  0.00  0.00    +0.000 OA
ATOM      3  N   UNL     1       6.044   4.346  17.125  0.00  0.00    +0.000 N 
ATOM      4  H   UNL     1       5.115   3.947  17.054  0.00  0.00    +0.000 HD
ENDROOT
BRANCH   1   5
ATOM      5  C   UNL     1       5.308   4.978  19.397  0.00  0.00    +0.000 C 
BRANCH   5   6
ATOM      6  O   UNL     1       4.897   3.665  19.746  0.00  0.00    +0.000 OA
BRANCH   6  12
ATOM      7  C   UNL     1       2.414   3.812  20.057  0.00  0.00    +0.000 A 
ATOM      8  C   UNL     1       1.165   3.363  19.595  0.00  0.00    +0.000 A 
ATOM      9  C   UNL     1       1.080   2.365  18.627  0.00  0.00    +0.000 A 
ATOM     10  C   UNL     1       2.242   1.837  18.080  0.00  0.00    +0.000 A 
ATOM     11  C   UNL     1       3.488   2.326  18.486  0.00  0.00    +0.000 A 
ATOM     12  C   UNL     1       3.595   3.321  19.470  0.00  0.00    +0.000 A 
BRANCH   7  14
ATOM     13  C   UNL     1       1.934   6.036  20.704  0.00  0.00    +0.000 C 
ATOM     14  O   UNL     1       2.479   4.761  21.042  0.00  0.00    +0.000 OA
ENDBRANCH   7  14
ENDBRANCH   6  12
ENDBRANCH   5   6
ENDBRANCH   1   5
BRANCH   3  15
ATOM     15  C   UNL     1       7.020   4.124  16.066  0.00  0.00    +0.000 C 
BRANCH  15  16
ATOM     16  C   UNL     1       6.657   4.744  14.683  0.00  0.00    +0.000 C 
ATOM     17  C   UNL     1       5.490   5.723  14.822  0.00  0.00    +0.000 C 
BRANCH  16  18
ATOM     18  C   UNL     1       6.295   3.612  13.725  0.00  0.00    +0.000 C 
ATOM     19  C   UNL     1       5.189   3.737  12.701  0.00  0.00    +0.000 C 
ATOM     20  C   UNL     1       6.622   3.688  12.248  0.00  0.00    +0.000 C 
ENDBRANCH  16  18
BRANCH  16  21
ATOM     21  O   UNL     1       7.748   5.488  14.136  0.00  0.00    +0.000 OA
ATOM     22  H   UNL     1       7.752   5.340  13.172  0.00  0.00    +0.000 HD
ENDBRANCH  16  21
ENDBRANCH  15  16
ENDBRANCH   3  15
TORSDOF 8
ENDMDL
MODEL 4
REMARK VINA RESULT:      -6.7      2.103      6.312
REMARK  Name = 
REMARK  10 active torsions:
REMARK  status: ('A' for Active; 'I' for Inactive)
REMARK    1  A    between atoms: C_1  and  O_2
REMARK    2  A    between atoms: O_2  and  C_3
REMARK    3  A    between atoms: C_8  and  O_9
REMARK    4  A    between atoms: O_9  and  C_10
REMARK    5  A    between atoms: C_10  and  C_11
REMARK    6  A    between atoms: N_13  and  C_14
REMARK    7  A    between atoms: C_14  and  C_15
REMARK    8  A    between atoms: C_15  and  C_16
REMARK    9  A    between atoms: C_15  and  O_17
REMARK   10  A    between atoms: C_15  and  C_18
REMARK                            x       y       z     vdW  Elec       q    Type
REMARK                         _______ _______ _______ _____ _____    ______ ____
ROOT
ATOM      1  C   UNL     1       4.651   3.549  17.415  0.00  0.00    +0.000 C 
ATOM      2  O   UNL     1       4.628   4.368  16.505  0.00  0.00    +0.000 OA
ATOM      3  N   UNL     1       5.332   3.786  18.595  0.00  0.00    +0.000 N 
ATOM      4  H   UNL     1       5.347   3.046  19.288  0.00  0.00    +0.000 HD
ENDROOT
BRANCH   1   5
ATOM      5  C   UNL     1       3.900   2.215  17.337  0.00  0.00    +0.000 C 
BRANCH   5   6
ATOM      6  O   UNL     1       2.500   2.339  17.540  0.00  0.00    +0.000 OA
BRANCH   6  12
ATOM      7  C   UNL     1       1.715   4.235  18.979  0.00  0.00    +0.000 A 
ATOM      8  C   UNL     1       1.268   4.603  20.260  0.00  0.00    +0.000 A 
ATOM      9  C   UNL     1       1.277   3.686  21.309  0.00  0.00    +0.000 A 
ATOM     10  C   UNL     1       1.691   2.380  21.077  0.00  0.00    +0.000 A 
ATOM     11  C   UNL     1       2.073   1.989  19.790  0.00  0.00    +0.000 A 
ATOM     12  C   UNL     1       2.085   2.902  18.724  0.00  0.00    +0.000 A 
BRANCH   7  14
ATOM     13  C   UNL     1       2.421   6.379  18.273  0.00  0.00    +0.000 C 
ATOM     14  O   UNL     1       1.742   5.161  17.971  0.00  0.00    +0.000 OA
ENDBRANCH   7  14
ENDBRANCH   6  12
ENDBRANCH   5   6
ENDBRANCH   1   5
BRANCH   3  15
ATOM     15  C   UNL     1       5.925   5.083  18.895  0.00  0.00    +0.000 C 
BRANCH  15  16
ATOM     16  C   UNL     1       7.397   5.270  18.415  0.00  0.00    +0.000 C 
ATOM     17  C   UNL     1       8.291   5.696  19.580  0.00  0.00    +0.000 C 
BRANCH  16  18
ATOM     18  C   UNL     1       7.415   6.325  17.313  0.00  0.00    +0.000 C 
ATOM     19  C   UNL     1       6.327   7.365  17.164  0.00  0.00    +0.000 C 
ATOM     20  C   UNL     1       7.699   7.783  17.614  0.00  0.00    +0.000 C 
ENDBRANCH  16  18
BRANCH  16  21
ATOM     21  O   UNL     1       7.944   4.052  17.907  0.00  0.00    +0.000 OA
ATOM     22  H   UNL     1       8.439   3.627  18.631  0.00  0.00    +0.000 HD
ENDBRANCH  16  21
ENDBRANCH  15  16
ENDBRANCH   3  15
TORSDOF 8
ENDMDL
MODEL 5
REMARK VINA RESULT:      -6.7      1.868      6.630
REMARK  Name = 
REMARK  10 active torsions:
REMARK  status: ('A' for Active; 'I' for Inactive)
REMARK    1  A    between atoms: C_1  and  O_2
REMARK    2  A    between atoms: O_2  and  C_3
REMARK    3  A    between atoms: C_8  and  O_9
REMARK    4  A    between atoms: O_9  and  C_10
REMARK    5  A    between atoms: C_10  and  C_11
REMARK    6  A    between atoms: N_13  and  C_14
REMARK    7  A    between atoms: C_14  and  C_15
REMARK    8  A    between atoms: C_15  and  C_16
REMARK    9  A    between atoms: C_15  and  O_17
REMARK   10  A    between atoms: C_15  and  C_18
REMARK                            x       y       z     vdW  Elec       q    Type
REMARK                         _______ _______ _______ _____ _____    ______ ____
ROOT
ATOM      1  C   UNL     1       6.585   5.199  18.249  0.00  0.00    +0.000 C 
ATOM      2  O   UNL     1       7.645   5.812  18.270  0.00  0.00    +0.000 OA
ATOM      3  N   UNL     1       6.211   4.422  17.168  0.00  0.00    +0.000 N 
ATOM      4  H   UNL     1       5.300   3.979  17.198  0.00  0.00    +0.000 HD
ENDROOT
BRANCH   1   5
ATOM      5  C   UNL     1       5.607   5.211  19.429  0.00  0.00    +0.000 C 
BRANCH   5   6
ATOM      6  O   UNL     1       4.266   5.488  19.052  0.00  0.00    +0.000 OA
BRANCH   6  12
ATOM      7  C   UNL     1       3.157   3.292  19.533  0.00  0.00    +0.000 A 
ATOM      8  C   UNL     1       2.097   2.657  20.203  0.00  0.00    +0.000 A 
ATOM      9  C   UNL     1       1.114   3.402  20.849  0.00  0.00    +0.000 A 
ATOM     10  C   UNL     1       1.204   4.788  20.870  0.00  0.00    +0.000 A 
ATOM     11  C   UNL     1       2.292   5.424  20.263  0.00  0.00    +0.000 A 
ATOM     12  C   UNL     1       3.285   4.691  19.595  0.00  0.00    +0.000 A 
BRANCH   7  14
ATOM     13  C   UNL     1       3.675   2.029  17.601  0.00  0.00    +0.000 C 
ATOM     14  O   UNL     1       4.090   2.545  18.865  0.00  0.00    +0.000 OA
ENDBRANCH   7  14
ENDBRANCH   6  12
ENDBRANCH   5   6
ENDBRANCH   1   5
BRANCH   3  15
ATOM     15  C   UNL     1       7.120   4.154  16.061  0.00  0.00    +0.000 C 
BRANCH  15  16
ATOM     16  C   UNL     1       6.704   4.772  14.691  0.00  0.00    +0.000 C 
ATOM     17  C   UNL     1       5.516   5.718  14.866  0.00  0.00    +0.000 C 
BRANCH  16  18
ATOM     18  C   UNL     1       6.347   3.636  13.736  0.00  0.00    +0.000 C 
ATOM     19  C   UNL     1       5.243   3.754  12.709  0.00  0.00    +0.000 C 
ATOM     20  C   UNL     1       6.677   3.708  12.259  0.00  0.00    +0.000 C 
ENDBRANCH  16  18
BRANCH  16  21
ATOM     21  O   UNL     1       7.761   5.547  14.121  0.00  0.00    +0.000 OA
ATOM     22  H   UNL     1       8.126   6.111  14.827  0.00  0.00    +0.000 HD
ENDBRANCH  16  21
ENDBRANCH  15  16
ENDBRANCH   3  15
TORSDOF 8
ENDMDL
MODEL 6
REMARK VINA RESULT:      -6.6      1.642      6.241
REMARK  Name = 
REMARK  10 active torsions:
REMARK  status: ('A' for Active; 'I' for Inactive)
REMARK    1  A    between atoms: C_1  and  O_2
REMARK    2  A    between atoms: O_2  and  C_3
REMARK    3  A    between atoms: C_8  and  O_9
REMARK    4  A    between atoms: O_9  and  C_10
REMARK    5  A    between atoms: C_10  and  C_11
REMARK    6  A    between atoms: N_13  and  C_14
REMARK    7  A    between atoms: C_14  and  C_15
REMARK    8  A    between atoms: C_15  and  C_16
REMARK    9  A    between atoms: C_15  and  O_17
REMARK   10  A    between atoms: C_15  and  C_18
REMARK                            x       y       z     vdW  Elec       q    Type
REMARK                         _______ _______ _______ _____ _____    ______ ____
ROOT
ATOM      1  C   UNL     1       4.280   2.731  18.956  0.00  0.00    +0.000 C 
ATOM      2  O   UNL     1       4.705   2.390  20.052  0.00  0.00    +0.000 OA
ATOM      3  N   UNL     1       4.875   3.742  18.223  0.00  0.00    +0.000 N 
ATOM      4  H   UNL     1       4.443   4.004  17.344  0.00  0.00    +0.000 HD
ENDROOT
BRANCH   1   5
ATOM      5  C   UNL     1       3.083   2.043  18.290  0.00  0.00    +0.000 C 
BRANCH   5   6
ATOM      6  O   UNL     1       1.991   2.917  18.043  0.00  0.00    +0.000 OA
BRANCH   6  12
ATOM      7  C   UNL     1       1.492   4.279  20.088  0.00  0.00    +0.000 A 
ATOM      8  C   UNL     1       1.574   5.554  20.673  0.00  0.00    +0.000 A 
ATOM      9  C   UNL     1       2.009   6.651  19.934  0.00  0.00    +0.000 A 
ATOM     10  C   UNL     1       2.409   6.476  18.615  0.00  0.00    +0.000 A 
ATOM     11  C   UNL     1       2.394   5.199  18.046  0.00  0.00    +0.000 A 
ATOM     12  C   UNL     1       1.944   4.084  18.770  0.00  0.00    +0.000 A 
BRANCH   7  14
ATOM     13  C   UNL     1       1.858   2.784  21.885  0.00  0.00    +0.000 C 
ATOM     14  O   UNL     1       1.018   3.220  20.816  0.00  0.00    +0.000 OA
ENDBRANCH   7  14
ENDBRANCH   6  12
ENDBRANCH   5   6
ENDBRANCH   1   5
BRANCH   3  15
ATOM     15  C   UNL     1       6.134   4.351  18.632  0.00  0.00    +0.000 C 
BRANCH  15  16
ATOM     16  C   UNL     1       7.091   4.752  17.469  0.00  0.00    +0.000 C 
ATOM     17  C   UNL     1       7.423   6.242  17.534  0.00  0.00    +0.000 C 
BRANCH  16  18
ATOM     18  C   UNL     1       6.411   4.412  16.145  0.00  0.00    +0.000 C 
ATOM     19  C   UNL     1       5.712   5.454  15.300  0.00  0.00    +0.000 C 
ATOM     20  C   UNL     1       6.999   4.845  14.817  0.00  0.00    +0.000 C 
ENDBRANCH  16  18
BRANCH  16  21
ATOM     21  O   UNL     1       8.336   4.054  17.547  0.00  0.00    +0.000 OA
ATOM     22  H   UNL     1       8.182   3.143  17.236  0.00  0.00    +0.000 HD
ENDBRANCH  16  21
ENDBRANCH  15  16
ENDBRANCH   3  15
TORSDOF 8
ENDMDL
MODEL 7
REMARK VINA RESULT:      -6.6      1.976      6.450
REMARK  Name = 
REMARK  10 active torsions:
REMARK  status: ('A' for Active; 'I' for Inactive)
REMARK    1  A    between atoms: C_1  and  O_2
REMARK    2  A    between atoms: O_2  and  C_3
REMARK    3  A    between atoms: C_8  and  O_9
REMARK    4  A    between atoms: O_9  and  C_10
REMARK    5  A    between atoms: C_10  and  C_11
REMARK    6  A    between atoms: N_13  and  C_14
REMARK    7  A    between atoms: C_14  and  C_15
REMARK    8  A    between atoms: C_15  and  C_16
REMARK    9  A    between atoms: C_15  and  O_17
REMARK   10  A    between atoms: C_15  and  C_18
REMARK                            x       y       z     vdW  Elec       q    Type
REMARK                         _______ _______ _______ _____ _____    ______ ____
ROOT
ATOM      1  C   UNL     1       3.848   4.408  17.511  0.00  0.00    +0.000 C 
ATOM      2  O   UNL     1       3.344   5.486  17.797  0.00  0.00    +0.000 OA
ATOM      3  N   UNL     1       5.134   4.078  17.898  0.00  0.00    +0.000 N 
ATOM      4  H   UNL     1       5.506   3.187  17.588  0.00  0.00    +0.000 HD
ENDROOT
BRANCH   1   5
ATOM      5  C   UNL     1       3.087   3.325  16.739  0.00  0.00    +0.000 C 
BRANCH   5   6
ATOM      6  O   UNL     1       2.705   2.217  17.541  0.00  0.00    +0.000 OA
BRANCH   6  12
ATOM      7  C   UNL     1       3.227   2.316  19.991  0.00  0.00    +0.000 A 
ATOM      8  C   UNL     1       2.745   2.681  21.259  0.00  0.00    +0.000 A 
ATOM      9  C   UNL     1       1.429   3.106  21.427  0.00  0.00    +0.000 A 
ATOM     10  C   UNL     1       0.595   3.212  20.321  0.00  0.00    +0.000 A 
ATOM     11  C   UNL     1       1.088   2.915  19.046  0.00  0.00    +0.000 A 
ATOM     12  C   UNL     1       2.406   2.471  18.859  0.00  0.00    +0.000 A 
BRANCH   7  14
ATOM     13  C   UNL     1       5.112   1.345  21.041  0.00  0.00    +0.000 C 
ATOM     14  O   UNL     1       4.510   1.856  19.852  0.00  0.00    +0.000 OA
ENDBRANCH   7  14
ENDBRANCH   6  12
ENDBRANCH   5   6
ENDBRANCH   1   5
BRANCH   3  15
ATOM     15  C   UNL     1       5.908   4.919  18.802  0.00  0.00    +0.000 C 
BRANCH  15  16
ATOM     16  C   UNL     1       7.363   5.234  18.340  0.00  0.00    +0.000 C 
ATOM     17  C   UNL     1       8.202   5.740  19.513  0.00  0.00    +0.000 C 
BRANCH  16  18
ATOM     18  C   UNL     1       7.303   6.283  17.233  0.00  0.00    +0.000 C 
ATOM     19  C   UNL     1       6.232   7.350  17.181  0.00  0.00    +0.000 C 
ATOM     20  C   UNL     1       7.652   7.734  17.495  0.00  0.00    +0.000 C 
ENDBRANCH  16  18
BRANCH  16  21
ATOM     21  O   UNL     1       8.022   4.067  17.843  0.00  0.00    +0.000 OA
ATOM     22  H   UNL     1       8.326   3.551  18.612  0.00  0.00    +0.000 HD
ENDBRANCH  16  21
ENDBRANCH  15  16
ENDBRANCH   3  15
TORSDOF 8
ENDMDL
MODEL 8
REMARK VINA RESULT:      -6.6      3.720      6.604
REMARK  Name = 
REMARK  10 active torsions:
REMARK  status: ('A' for Active; 'I' for Inactive)
REMARK    1  A    between atoms: C_1  and  O_2
REMARK    2  A    between atoms: O_2  and  C_3
REMARK    3  A    between atoms: C_8  and  O_9
REMARK    4  A    between atoms: O_9  and  C_10
REMARK    5  A    between atoms: C_10  and  C_11
REMARK    6  A    between atoms: N_13  and  C_14
REMARK    7  A    between atoms: C_14  and  C_15
REMARK    8  A    between atoms: C_15  and  C_16
REMARK    9  A    between atoms: C_15  and  O_17
REMARK   10  A    between atoms: C_15  and  C_18
REMARK                            x       y       z     vdW  Elec       q    Type
REMARK                         _______ _______ _______ _____ _____    ______ ____
ROOT
ATOM      1  C   UNL     1       3.868   4.593  19.404  0.00  0.00    +0.000 C 
ATOM      2  O   UNL     1       3.931   3.413  19.721  0.00  0.00    +0.000 OA
ATOM      3  N   UNL     1       4.991   5.312  19.036  0.00  0.00    +0.000 N 
ATOM      4  H   UNL     1       4.874   6.298  18.831  0.00  0.00    +0.000 HD
ENDROOT
BRANCH   1   5
ATOM      5  C   UNL     1       2.542   5.360  19.351  0.00  0.00    +0.000 C 
BRANCH   5   6
ATOM      6  O   UNL     1       2.483   6.457  20.251  0.00  0.00    +0.000 OA
BRANCH   6  12
ATOM      7  C   UNL     1       1.234   8.623  20.412  0.00  0.00    +0.000 A 
ATOM      8  C   UNL     1       0.888   9.808  19.741  0.00  0.00    +0.000 A 
ATOM      9  C   UNL     1       1.221   9.991  18.401  0.00  0.00    +0.000 A 
ATOM     10  C   UNL     1       1.941   9.010  17.731  0.00  0.00    +0.000 A 
ATOM     11  C   UNL     1       2.347   7.858  18.411  0.00  0.00    +0.000 A 
ATOM     12  C   UNL     1       2.008   7.649  19.757  0.00  0.00    +0.000 A 
BRANCH   7  14
ATOM     13  C   UNL     1       0.381   9.607  22.388  0.00  0.00    +0.000 C 
ATOM     14  O   UNL     1       0.858   8.441  21.717  0.00  0.00    +0.000 OA
ENDBRANCH   7  14
ENDBRANCH   6  12
ENDBRANCH   5   6
ENDBRANCH   1   5
BRANCH   3  15
ATOM     15  C   UNL     1       6.287   4.673  18.847  0.00  0.00    +0.000 C 
BRANCH  15  16
ATOM     16  C   UNL     1       6.945   4.899  17.452  0.00  0.00    +0.000 C 
ATOM     17  C   UNL     1       7.327   6.368  17.269  0.00  0.00    +0.000 C 
BRANCH  16  18
ATOM     18  C   UNL     1       5.955   4.465  16.374  0.00  0.00    +0.000 C 
ATOM     19  C   UNL     1       5.413   5.422  15.336  0.00  0.00    +0.000 C 
ATOM     20  C   UNL     1       6.369   4.338  14.922  0.00  0.00    +0.000 C 
ENDBRANCH  16  18
BRANCH  16  21
ATOM     21  O   UNL     1       8.151   4.145  17.310  0.00  0.00    +0.000 OA
ATOM     22  H   UNL     1       8.368   4.112  16.360  0.00  0.00    +0.000 HD
ENDBRANCH  16  21
ENDBRANCH  15  16
ENDBRANCH   3  15
TORSDOF 8
ENDMDL
MODEL 9
REMARK VINA RESULT:      -6.6      1.808      6.109
REMARK  Name = 
REMARK  10 active torsions:
REMARK  status: ('A' for Active; 'I' for Inactive)
REMARK    1  A    between atoms: C_1  and  O_2
REMARK    2  A    between atoms: O_2  and  C_3
REMARK    3  A    between atoms: C_8  and  O_9
REMARK    4  A    between atoms: O_9  and  C_10
REMARK    5  A    between atoms: C_10  and  C_11
REMARK    6  A    between atoms: N_13  and  C_14
REMARK    7  A    between atoms: C_14  and  C_15
REMARK    8  A    between atoms: C_15  and  C_16
REMARK    9  A    between atoms: C_15  and  O_17
REMARK   10  A    between atoms: C_15  and  C_18
REMARK                            x       y       z     vdW  Elec       q    Type
REMARK                         _______ _______ _______ _____ _____    ______ ____
ROOT
ATOM      1  C   UNL     1       4.368   2.974  18.278  0.00  0.00    +0.000 C 
ATOM      2  O   UNL     1       4.937   3.140  19.349  0.00  0.00    +0.000 OA
ATOM      3  N   UNL     1       4.824   3.558  17.110  0.00  0.00    +0.000 N 
ATOM      4  H   UNL     1       4.277   3.416  16.268  0.00  0.00    +0.000 HD
ENDROOT
BRANCH   1   5
ATOM      5  C   UNL     1       3.131   2.080  18.136  0.00  0.00    +0.000 C 
BRANCH   5   6
ATOM      6  O   UNL     1       1.908   2.802  18.117  0.00  0.00    +0.000 OA
BRANCH   6  12
ATOM      7  C   UNL     1       1.578   4.204  20.168  0.00  0.00    +0.000 A 
ATOM      8  C   UNL     1       1.640   5.503  20.700  0.00  0.00    +0.000 A 
ATOM      9  C   UNL     1       1.892   6.598  19.877  0.00  0.00    +0.000 A 
ATOM     10  C   UNL     1       2.129   6.401  18.522  0.00  0.00    +0.000 A 
ATOM     11  C   UNL     1       2.136   5.104  17.999  0.00  0.00    +0.000 A 
ATOM     12  C   UNL     1       1.869   3.990  18.809  0.00  0.00    +0.000 A 
BRANCH   7  14
ATOM     13  C   UNL     1       2.374   2.641  21.756  0.00  0.00    +0.000 C 
ATOM     14  O   UNL     1       1.284   3.143  20.984  0.00  0.00    +0.000 OA
ENDBRANCH   7  14
ENDBRANCH   6  12
ENDBRANCH   5   6
ENDBRANCH   1   5
BRANCH   3  15
ATOM     15  C   UNL     1       6.094   4.269  17.049  0.00  0.00    +0.000 C 
BRANCH  15  16
ATOM     16  C   UNL     1       6.016   5.800  17.333  0.00  0.00    +0.000 C 
ATOM     17  C   UNL     1       5.157   6.499  16.279  0.00  0.00    +0.000 C 
BRANCH  16  18
ATOM     18  C   UNL     1       7.433   6.366  17.329  0.00  0.00    +0.000 C 
ATOM     19  C   UNL     1       7.724   7.831  17.563  0.00  0.00    +0.000 C 
ATOM     20  C   UNL     1       8.110   6.819  18.606  0.00  0.00    +0.000 C 
ENDBRANCH  16  18
BRANCH  16  21
ATOM     21  O   UNL     1       5.408   6.071  18.597  0.00  0.00    +0.000 OA
ATOM     22  H   UNL     1       4.958   5.257  18.888  0.00  0.00    +0.000 HD
ENDBRANCH  16  21
ENDBRANCH  15  16
ENDBRANCH   3  15
TORSDOF 8
ENDMDL
