MODEL 1
REMARK VINA RESULT:      -8.1      0.000      0.000
REMARK  Name = 
REMARK  8 active torsions:
REMARK  status: ('A' for Active; 'I' for Inactive)
REMARK    1  A    between atoms: N_5  and  C_6
REMARK    2  A    between atoms: C_6  and  C_7
REMARK    3  A    between atoms: C_7  and  C_8
REMARK    4  A    between atoms: C_11  and  O_12
REMARK    5  A    between atoms: C_16  and  C_17
REMARK    6  A    between atoms: C_23  and  C_24
REMARK    7  A    between atoms: C_24  and  C_25
REMARK    8  A    between atoms: C_26  and  O_27
REMARK                            x       y       z     vdW  Elec       q    Type
REMARK                         _______ _______ _______ _____ _____    ______ ____
ROOT
ATOM      1  O   UNL     1      -4.342  11.644  16.831  0.00  0.00    +0.000 OA
ATOM      2  C   UNL     1      -3.404  11.556  17.611  0.00  0.00    +0.000 A 
ATOM      3  N   UNL     1      -2.282  10.841  17.316  0.00  0.00    +0.000 N 
ATOM      4  C   UNL     1      -1.206  10.797  18.143  0.00  0.00    +0.000 A 
ATOM      5  N   UNL     1      -0.149  10.033  17.713  0.00  0.00    +0.000 N 
ATOM      6  N   UNL     1      -1.199  11.430  19.270  0.00  0.00    +0.000 NA
ATOM      7  C   UNL     1      -2.316  12.119  19.656  0.00  0.00    +0.000 A 
ATOM      8  C   UNL     1      -3.461  12.184  18.950  0.00  0.00    +0.000 A 
ATOM      9  H   UNL     1      -2.288  10.295  16.471  0.00  0.00    +0.000 HD
ATOM     10  H   UNL     1       0.212  10.313  16.806  0.00  0.00    +0.000 HD
ENDROOT
BRANCH   7  11
ATOM     11  C   UNL     1      -2.227  12.776  20.968  0.00  0.00    +0.000 A 
ATOM     12  C   UNL     1      -2.294  12.005  22.133  0.00  0.00    +0.000 A 
ATOM     13  C   UNL     1      -2.208  12.617  23.383  0.00  0.00    +0.000 A 
ATOM     14  C   UNL     1      -2.049  14.000  23.473  0.00  0.00    +0.000 A 
ATOM     15  C   UNL     1      -1.989  14.781  22.317  0.00  0.00    +0.000 A 
ATOM     16  C   UNL     1      -2.084  14.167  21.063  0.00  0.00    +0.000 A 
ENDBRANCH   7  11
BRANCH   5  17
ATOM     17  C   UNL     1       0.875   9.632  18.684  0.00  0.00    +0.000 C 
BRANCH  17  18
ATOM     18  C   UNL     1       2.164   9.164  18.001  0.00  0.00    +0.000 C 
BRANCH  18  19
ATOM     19  C   UNL     1       2.575   7.772  18.439  0.00  0.00    +0.000 A 
ATOM     20  C   UNL     1       3.428   6.985  17.650  0.00  0.00    +0.000 A 
ATOM     21  C   UNL     1       3.800   5.700  18.059  0.00  0.00    +0.000 A 
ATOM     22  C   UNL     1       3.311   5.195  19.261  0.00  0.00    +0.000 A 
ATOM     23  C   UNL     1       2.461   5.955  20.052  0.00  0.00    +0.000 A 
ATOM     24  C   UNL     1       2.090   7.238  19.641  0.00  0.00    +0.000 A 
BRANCH  22  25
ATOM     25  O   UNL     1       3.649   3.948  19.701  0.00  0.00    +0.000 OA
ATOM     26  H   UNL     1       3.626   3.942  20.669  0.00  0.00    +0.000 HD
ENDBRANCH  22  25
ENDBRANCH  18  19
ENDBRANCH  17  18
ENDBRANCH   5  17
BRANCH   8  27
ATOM     27  C   UNL     1      -4.732  12.897  19.353  0.00  0.00    +0.000 C 
BRANCH  27  28
ATOM     28  C   UNL     1      -5.722  12.144  20.245  0.00  0.00    +0.000 A 
ATOM     29  C   UNL     1      -6.413  11.013  19.771  0.00  0.00    +0.000 A 
ATOM     30  C   UNL     1      -7.463  10.442  20.481  0.00  0.00    +0.000 A 
ATOM     31  C   UNL     1      -7.911  11.027  21.657  0.00  0.00    +0.000 A 
ATOM     32  C   UNL     1      -7.272  12.156  22.171  0.00  0.00    +0.000 A 
ATOM     33  C   UNL     1      -7.808  12.775  23.315  0.00  0.00    +0.000 A 
ATOM     34  C   UNL     1      -7.192  13.879  23.893  0.00  0.00    +0.000 A 
ATOM     35  C   UNL     1      -5.986  14.324  23.379  0.00  0.00    +0.000 A 
ATOM     36  C   UNL     1      -5.474  13.746  22.212  0.00  0.00    +0.000 A 
ATOM     37  C   UNL     1      -6.122  12.689  21.523  0.00  0.00    +0.000 A 
BRANCH  29  38
ATOM     38  O   UNL     1      -6.160  10.381  18.588  0.00  0.00    +0.000 OA
ATOM     39  H   UNL     1      -5.230  10.502  18.318  0.00  0.00    +0.000 HD
ENDBRANCH  29  38
ENDBRANCH  27  28
ENDBRANCH   8  27
TORSDOF 8
ENDMDL
MODEL 2
REMARK VINA RESULT:      -8.1      1.198      1.552
REMARK  Name = 
REMARK  8 active torsions:
REMARK  status: ('A' for Active; 'I' for Inactive)
REMARK    1  A    between atoms: N_5  and  C_6
REMARK    2  A    between atoms: C_6  and  C_7
REMARK    3  A    between atoms: C_7  and  C_8
REMARK    4  A    between atoms: C_11  and  O_12
REMARK    5  A    between atoms: C_16  and  C_17
REMARK    6  A    between atoms: C_23  and  C_24
REMARK    7  A    between atoms: C_24  and  C_25
REMARK    8  A    between atoms: C_26  and  O_27
REMARK                            x       y       z     vdW  Elec       q    Type
REMARK                         _______ _______ _______ _____ _____    ______ ____
ROOT
ATOM      1  O   UNL     1      -3.188  11.381  16.445  0.00  0.00    +0.000 OA
ATOM      2  C   UNL     1      -2.350  11.206  17.318  0.00  0.00    +0.000 A 
ATOM      3  N   UNL     1      -1.275  10.389  17.136  0.00  0.00    +0.000 N 
ATOM      4  C   UNL     1      -0.300  10.246  18.071  0.00  0.00    +0.000 A 
ATOM      5  N   UNL     1       0.720   9.385  17.749  0.00  0.00    +0.000 N 
ATOM      6  N   UNL     1      -0.353  10.877  19.198  0.00  0.00    +0.000 NA
ATOM      7  C   UNL     1      -1.434  11.669  19.471  0.00  0.00    +0.000 A 
ATOM      8  C   UNL     1      -2.488  11.839  18.649  0.00  0.00    +0.000 A 
ATOM      9  H   UNL     1      -1.242   9.845  16.291  0.00  0.00    +0.000 HD
ATOM     10  H   UNL     1       1.199   9.629  16.887  0.00  0.00    +0.000 HD
ENDROOT
BRANCH   7  11
ATOM     11  C   UNL     1      -1.423  12.316  20.791  0.00  0.00    +0.000 A 
ATOM     12  C   UNL     1      -1.527  11.534  21.945  0.00  0.00    +0.000 A 
ATOM     13  C   UNL     1      -1.515  12.138  23.202  0.00  0.00    +0.000 A 
ATOM     14  C   UNL     1      -1.392  13.523  23.310  0.00  0.00    +0.000 A 
ATOM     15  C   UNL     1      -1.296  14.314  22.163  0.00  0.00    +0.000 A 
ATOM     16  C   UNL     1      -1.317  13.710  20.903  0.00  0.00    +0.000 A 
ENDBRANCH   7  11
BRANCH   5  17
ATOM     17  C   UNL     1       1.594   8.891  18.818  0.00  0.00    +0.000 C 
BRANCH  17  18
ATOM     18  C   UNL     1       2.579   7.831  18.313  0.00  0.00    +0.000 C 
BRANCH  18  19
ATOM     19  C   UNL     1       2.236   6.442  18.817  0.00  0.00    +0.000 A 
ATOM     20  C   UNL     1       2.038   6.195  20.185  0.00  0.00    +0.000 A 
ATOM     21  C   UNL     1       1.725   4.911  20.642  0.00  0.00    +0.000 A 
ATOM     22  C   UNL     1       1.614   3.865  19.729  0.00  0.00    +0.000 A 
ATOM     23  C   UNL     1       1.813   4.088  18.373  0.00  0.00    +0.000 A 
ATOM     24  C   UNL     1       2.126   5.372  17.919  0.00  0.00    +0.000 A 
BRANCH  22  25
ATOM     25  O   UNL     1       1.308   2.598  20.130  0.00  0.00    +0.000 OA
ATOM     26  H   UNL     1       1.724   1.969  19.522  0.00  0.00    +0.000 HD
ENDBRANCH  22  25
ENDBRANCH  18  19
ENDBRANCH  17  18
ENDBRANCH   5  17
BRANCH   8  27
ATOM     27  C   UNL     1      -3.722  12.669  18.923  0.00  0.00    +0.000 C 
BRANCH  27  28
ATOM     28  C   UNL     1      -4.955  11.954  19.480  0.00  0.00    +0.000 A 
ATOM     29  C   UNL     1      -5.761  11.146  18.656  0.00  0.00    +0.000 A 
ATOM     30  C   UNL     1      -6.993  10.661  19.082  0.00  0.00    +0.000 A 
ATOM     31  C   UNL     1      -7.498  11.026  20.321  0.00  0.00    +0.000 A 
ATOM     32  C   UNL     1      -6.749  11.833  21.178  0.00  0.00    +0.000 A 
ATOM     33  C   UNL     1      -7.328  12.259  22.387  0.00  0.00    +0.000 A 
ATOM     34  C   UNL     1      -6.615  13.032  23.296  0.00  0.00    +0.000 A 
ATOM     35  C   UNL     1      -5.285  13.317  23.041  0.00  0.00    +0.000 A 
ATOM     36  C   UNL     1      -4.717  12.942  21.817  0.00  0.00    +0.000 A 
ATOM     37  C   UNL     1      -5.436  12.247  20.811  0.00  0.00    +0.000 A 
BRANCH  29  38
ATOM     38  O   UNL     1      -5.453  10.779  17.378  0.00  0.00    +0.000 OA
ATOM     39  H   UNL     1      -5.584  11.521  16.759  0.00  0.00    +0.000 HD
ENDBRANCH  29  38
ENDBRANCH  27  28
ENDBRANCH   8  27
TORSDOF 8
ENDMDL
MODEL 3
REMARK VINA RESULT:      -7.9      0.752      1.145
REMARK  Name = 
REMARK  8 active torsions:
REMARK  status: ('A' for Active; 'I' for Inactive)
REMARK    1  A    between atoms: N_5  and  C_6
REMARK    2  A    between atoms: C_6  and  C_7
REMARK    3  A    between atoms: C_7  and  C_8
REMARK    4  A    between atoms: C_11  and  O_12
REMARK    5  A    between atoms: C_16  and  C_17
REMARK    6  A    between atoms: C_23  and  C_24
REMARK    7  A    between atoms: C_24  and  C_25
REMARK    8  A    between atoms: C_26  and  O_27
REMARK                            x       y       z     vdW  Elec       q    Type
REMARK                         _______ _______ _______ _____ _____    ______ ____
ROOT
ATOM      1  O   UNL     1      -3.624  11.554  16.595  0.00  0.00    +0.000 OA
ATOM      2  C   UNL     1      -2.744  11.387  17.429  0.00  0.00    +0.000 A 
ATOM      3  N   UNL     1      -1.651  10.613  17.183  0.00  0.00    +0.000 N 
ATOM      4  C   UNL     1      -0.635  10.480  18.074  0.00  0.00    +0.000 A 
ATOM      5  N   UNL     1       0.400   9.664  17.688  0.00  0.00    +0.000 N 
ATOM      6  N   UNL     1      -0.662  11.081  19.218  0.00  0.00    +0.000 NA
ATOM      7  C   UNL     1      -1.757  11.828  19.555  0.00  0.00    +0.000 A 
ATOM      8  C   UNL     1      -2.849  11.982  18.781  0.00  0.00    +0.000 A 
ATOM      9  H   UNL     1      -1.635  10.091  16.323  0.00  0.00    +0.000 HD
ATOM     10  H   UNL     1       0.835   9.945  16.814  0.00  0.00    +0.000 HD
ENDROOT
BRANCH   7  11
ATOM     11  C   UNL     1      -1.713  12.442  20.890  0.00  0.00    +0.000 A 
ATOM     12  C   UNL     1      -1.645  13.833  21.009  0.00  0.00    +0.000 A 
ATOM     13  C   UNL     1      -1.605  14.426  22.271  0.00  0.00    +0.000 A 
ATOM     14  C   UNL     1      -1.639  13.631  23.417  0.00  0.00    +0.000 A 
ATOM     15  C   UNL     1      -1.699  12.240  23.309  0.00  0.00    +0.000 A 
ATOM     16  C   UNL     1      -1.730  11.645  22.044  0.00  0.00    +0.000 A 
ENDBRANCH   7  11
BRANCH   5  17
ATOM     17  C   UNL     1       1.334   9.174  18.708  0.00  0.00    +0.000 C 
BRANCH  17  18
ATOM     18  C   UNL     1       2.481   8.363  18.096  0.00  0.00    +0.000 C 
BRANCH  18  19
ATOM     19  C   UNL     1       2.630   7.000  18.745  0.00  0.00    +0.000 A 
ATOM     20  C   UNL     1       3.391   5.988  18.139  0.00  0.00    +0.000 A 
ATOM     21  C   UNL     1       3.522   4.733  18.742  0.00  0.00    +0.000 A 
ATOM     22  C   UNL     1       2.884   4.483  19.954  0.00  0.00    +0.000 A 
ATOM     23  C   UNL     1       2.121   5.469  20.566  0.00  0.00    +0.000 A 
ATOM     24  C   UNL     1       1.991   6.722  19.961  0.00  0.00    +0.000 A 
BRANCH  22  25
ATOM     25  O   UNL     1       2.985   3.275  20.580  0.00  0.00    +0.000 OA
ATOM     26  H   UNL     1       2.315   3.227  21.276  0.00  0.00    +0.000 HD
ENDBRANCH  22  25
ENDBRANCH  18  19
ENDBRANCH  17  18
ENDBRANCH   5  17
BRANCH   8  27
ATOM     27  C   UNL     1      -4.098  12.761  19.126  0.00  0.00    +0.000 C 
BRANCH  27  28
ATOM     28  C   UNL     1      -5.254  12.004  19.782  0.00  0.00    +0.000 A 
ATOM     29  C   UNL     1      -6.054  11.114  19.042  0.00  0.00    +0.000 A 
ATOM     30  C   UNL     1      -7.230  10.580  19.557  0.00  0.00    +0.000 A 
ATOM     31  C   UNL     1      -7.688  10.974  20.807  0.00  0.00    +0.000 A 
ATOM     32  C   UNL     1      -6.943  11.861  21.584  0.00  0.00    +0.000 A 
ATOM     33  C   UNL     1      -7.480  12.309  22.804  0.00  0.00    +0.000 A 
ATOM     34  C   UNL     1      -6.766  13.163  23.636  0.00  0.00    +0.000 A 
ATOM     35  C   UNL     1      -5.471  13.511  23.294  0.00  0.00    +0.000 A 
ATOM     36  C   UNL     1      -4.949  13.112  22.057  0.00  0.00    +0.000 A 
ATOM     37  C   UNL     1      -5.679  12.331  21.125  0.00  0.00    +0.000 A 
BRANCH  29  38
ATOM     38  O   UNL     1      -5.795  10.706  17.766  0.00  0.00    +0.000 OA
ATOM     39  H   UNL     1      -5.598  11.466  17.187  0.00  0.00    +0.000 HD
ENDBRANCH  29  38
ENDBRANCH  27  28
ENDBRANCH   8  27
TORSDOF 8
ENDMDL
MODEL 4
REMARK VINA RESULT:      -7.7      3.727      5.522
REMARK  Name = 
REMARK  8 active torsions:
REMARK  status: ('A' for Active; 'I' for Inactive)
REMARK    1  A    between atoms: N_5  and  C_6
REMARK    2  A    between atoms: C_6  and  C_7
REMARK    3  A    between atoms: C_7  and  C_8
REMARK    4  A    between atoms: C_11  and  O_12
REMARK    5  A    between atoms: C_16  and  C_17
REMARK    6  A    between atoms: C_23  and  C_24
REMARK    7  A    between atoms: C_24  and  C_25
REMARK    8  A    between atoms: C_26  and  O_27
REMARK                            x       y       z     vdW  Elec       q    Type
REMARK                         _______ _______ _______ _____ _____    ______ ____
ROOT
ATOM      1  O   UNL     1      -4.751  11.291  17.288  0.00  0.00    +0.000 OA
ATOM      2  C   UNL     1      -3.893  11.744  18.034  0.00  0.00    +0.000 A 
ATOM      3  N   UNL     1      -2.590  11.856  17.654  0.00  0.00    +0.000 N 
ATOM      4  C   UNL     1      -1.645  12.424  18.447  0.00  0.00    +0.000 A 
ATOM      5  N   UNL     1      -0.373  12.464  17.931  0.00  0.00    +0.000 N 
ATOM      6  N   UNL     1      -1.938  12.880  19.621  0.00  0.00    +0.000 NA
ATOM      7  C   UNL     1      -3.216  12.746  20.089  0.00  0.00    +0.000 A 
ATOM      8  C   UNL     1      -4.220  12.148  19.420  0.00  0.00    +0.000 A 
ATOM      9  H   UNL     1      -2.327  11.456  16.769  0.00  0.00    +0.000 HD
ATOM     10  H   UNL     1      -0.311  12.948  17.040  0.00  0.00    +0.000 HD
ENDROOT
BRANCH   7  11
ATOM     11  C   UNL     1      -3.445  13.262  21.446  0.00  0.00    +0.000 A 
ATOM     12  C   UNL     1      -3.398  12.386  22.535  0.00  0.00    +0.000 A 
ATOM     13  C   UNL     1      -3.611  12.865  23.828  0.00  0.00    +0.000 A 
ATOM     14  C   UNL     1      -3.867  14.220  24.037  0.00  0.00    +0.000 A 
ATOM     15  C   UNL     1      -3.925  15.102  22.955  0.00  0.00    +0.000 A 
ATOM     16  C   UNL     1      -3.719  14.620  21.658  0.00  0.00    +0.000 A 
ENDBRANCH   7  11
BRANCH   5  17
ATOM     17  C   UNL     1       0.753  12.708  18.840  0.00  0.00    +0.000 C 
BRANCH  17  18
ATOM     18  C   UNL     1       1.321  14.122  18.687  0.00  0.00    +0.000 C 
BRANCH  18  19
ATOM     19  C   UNL     1       0.480  15.160  19.405  0.00  0.00    +0.000 A 
ATOM     20  C   UNL     1       0.449  15.224  20.808  0.00  0.00    +0.000 A 
ATOM     21  C   UNL     1      -0.331  16.182  21.463  0.00  0.00    +0.000 A 
ATOM     22  C   UNL     1      -1.090  17.078  20.715  0.00  0.00    +0.000 A 
ATOM     23  C   UNL     1      -1.078  17.026  19.327  0.00  0.00    +0.000 A 
ATOM     24  C   UNL     1      -0.298  16.068  18.675  0.00  0.00    +0.000 A 
BRANCH  22  25
ATOM     25  O   UNL     1      -1.863  18.030  21.312  0.00  0.00    +0.000 OA
ATOM     26  H   UNL     1      -2.230  17.666  22.130  0.00  0.00    +0.000 HD
ENDBRANCH  22  25
ENDBRANCH  18  19
ENDBRANCH  17  18
ENDBRANCH   5  17
BRANCH   8  27
ATOM     27  C   UNL     1      -5.635  11.940  19.911  0.00  0.00    +0.000 C 
BRANCH  27  28
ATOM     28  C   UNL     1      -6.490  13.181  20.177  0.00  0.00    +0.000 A 
ATOM     29  C   UNL     1      -6.635  14.186  19.202  0.00  0.00    +0.000 A 
ATOM     30  C   UNL     1      -7.227  15.410  19.492  0.00  0.00    +0.000 A 
ATOM     31  C   UNL     1      -7.629  15.703  20.787  0.00  0.00    +0.000 A 
ATOM     32  C   UNL     1      -7.501  14.751  21.798  0.00  0.00    +0.000 A 
ATOM     33  C   UNL     1      -7.834  15.112  23.116  0.00  0.00    +0.000 A 
ATOM     34  C   UNL     1      -7.763  14.193  24.156  0.00  0.00    +0.000 A 
ATOM     35  C   UNL     1      -7.436  12.879  23.873  0.00  0.00    +0.000 A 
ATOM     36  C   UNL     1      -7.054  12.523  22.574  0.00  0.00    +0.000 A 
ATOM     37  C   UNL     1      -7.005  13.449  21.501  0.00  0.00    +0.000 A 
BRANCH  29  38
ATOM     38  O   UNL     1      -6.204  14.091  17.911  0.00  0.00    +0.000 OA
ATOM     39  H   UNL     1      -5.527  14.766  17.717  0.00  0.00    +0.000 HD
ENDBRANCH  29  38
ENDBRANCH  27  28
ENDBRANCH   8  27
TORSDOF 8
ENDMDL
MODEL 5
REMARK VINA RESULT:      -7.7      1.571      2.216
REMARK  Name = 
REMARK  8 active torsions:
REMARK  status: ('A' for Active; 'I' for Inactive)
REMARK    1  A    between atoms: N_5  and  C_6
REMARK    2  A    between atoms: C_6  and  C_7
REMARK    3  A    between atoms: C_7  and  C_8
REMARK    4  A    between atoms: C_11  and  O_12
REMARK    5  A    between atoms: C_16  and  C_17
REMARK    6  A    between atoms: C_23  and  C_24
REMARK    7  A    between atoms: C_24  and  C_25
REMARK    8  A    between atoms: C_26  and  O_27
REMARK                            x       y       z     vdW  Elec       q    Type
REMARK                         _______ _______ _______ _____ _____    ______ ____
ROOT
ATOM      1  O   UNL     1      -2.138  10.961  16.407  0.00  0.00    +0.000 OA
ATOM      2  C   UNL     1      -1.478  10.756  17.416  0.00  0.00    +0.000 A 
ATOM      3  N   UNL     1      -0.486   9.822  17.455  0.00  0.00    +0.000 N 
ATOM      4  C   UNL     1       0.300   9.638  18.547  0.00  0.00    +0.000 A 
ATOM      5  N   UNL     1       1.256   8.658  18.440  0.00  0.00    +0.000 N 
ATOM      6  N   UNL     1       0.135  10.339  19.620  0.00  0.00    +0.000 NA
ATOM      7  C   UNL     1      -0.881  11.254  19.670  0.00  0.00    +0.000 A 
ATOM      8  C   UNL     1      -1.760  11.481  18.676  0.00  0.00    +0.000 A 
ATOM      9  H   UNL     1      -0.377   9.226  16.653  0.00  0.00    +0.000 HD
ATOM     10  H   UNL     1       1.894   8.796  17.662  0.00  0.00    +0.000 HD
ENDROOT
BRANCH   7  11
ATOM     11  C   UNL     1      -1.013  11.977  20.944  0.00  0.00    +0.000 A 
ATOM     12  C   UNL     1      -0.623  13.318  21.021  0.00  0.00    +0.000 A 
ATOM     13  C   UNL     1      -0.746  14.014  22.223  0.00  0.00    +0.000 A 
ATOM     14  C   UNL     1      -1.265  13.375  23.350  0.00  0.00    +0.000 A 
ATOM     15  C   UNL     1      -1.649  12.033  23.286  0.00  0.00    +0.000 A 
ATOM     16  C   UNL     1      -1.517  11.333  22.082  0.00  0.00    +0.000 A 
ENDBRANCH   7  11
BRANCH   5  17
ATOM     17  C   UNL     1       1.883   8.143  19.662  0.00  0.00    +0.000 C 
BRANCH  17  18
ATOM     18  C   UNL     1       2.912   7.048  19.365  0.00  0.00    +0.000 C 
BRANCH  18  19
ATOM     19  C   UNL     1       2.267   5.688  19.181  0.00  0.00    +0.000 A 
ATOM     20  C   UNL     1       2.212   5.077  17.918  0.00  0.00    +0.000 A 
ATOM     21  C   UNL     1       1.612   3.824  17.755  0.00  0.00    +0.000 A 
ATOM     22  C   UNL     1       1.058   3.179  18.858  0.00  0.00    +0.000 A 
ATOM     23  C   UNL     1       1.096   3.771  20.114  0.00  0.00    +0.000 A 
ATOM     24  C   UNL     1       1.695   5.023  20.274  0.00  0.00    +0.000 A 
BRANCH  22  25
ATOM     25  O   UNL     1       0.465   1.955  18.747  0.00  0.00    +0.000 OA
ATOM     26  H   UNL     1       1.155   1.282  18.654  0.00  0.00    +0.000 HD
ENDBRANCH  22  25
ENDBRANCH  18  19
ENDBRANCH  17  18
ENDBRANCH   5  17
BRANCH   8  27
ATOM     27  C   UNL     1      -2.922  12.449  18.700  0.00  0.00    +0.000 C 
BRANCH  27  28
ATOM     28  C   UNL     1      -4.279  11.926  19.174  0.00  0.00    +0.000 A 
ATOM     29  C   UNL     1      -5.034  11.040  18.382  0.00  0.00    +0.000 A 
ATOM     30  C   UNL     1      -6.351  10.719  18.690  0.00  0.00    +0.000 A 
ATOM     31  C   UNL     1      -6.986  11.329  19.763  0.00  0.00    +0.000 A 
ATOM     32  C   UNL     1      -6.292  12.223  20.579  0.00  0.00    +0.000 A 
ATOM     33  C   UNL     1      -6.991  12.891  21.600  0.00  0.00    +0.000 A 
ATOM     34  C   UNL     1      -6.343  13.763  22.467  0.00  0.00    +0.000 A 
ATOM     35  C   UNL     1      -4.970  13.911  22.372  0.00  0.00    +0.000 A 
ATOM     36  C   UNL     1      -4.276  13.290  21.326  0.00  0.00    +0.000 A 
ATOM     37  C   UNL     1      -4.910  12.479  20.351  0.00  0.00    +0.000 A 
BRANCH  29  38
ATOM     38  O   UNL     1      -4.587  10.435  17.242  0.00  0.00    +0.000 OA
ATOM     39  H   UNL     1      -4.620  11.048  16.484  0.00  0.00    +0.000 HD
ENDBRANCH  29  38
ENDBRANCH  27  28
ENDBRANCH   8  27
TORSDOF 8
ENDMDL
MODEL 6
REMARK VINA RESULT:      -7.7      1.833      2.486
REMARK  Name = 
REMARK  8 active torsions:
REMARK  status: ('A' for Active; 'I' for Inactive)
REMARK    1  A    between atoms: N_5  and  C_6
REMARK    2  A    between atoms: C_6  and  C_7
REMARK    3  A    between atoms: C_7  and  C_8
REMARK    4  A    between atoms: C_11  and  O_12
REMARK    5  A    between atoms: C_16  and  C_17
REMARK    6  A    between atoms: C_23  and  C_24
REMARK    7  A    between atoms: C_24  and  C_25
REMARK    8  A    between atoms: C_26  and  O_27
REMARK                            x       y       z     vdW  Elec       q    Type
REMARK                         _______ _______ _______ _____ _____    ______ ____
ROOT
ATOM      1  O   UNL     1      -5.025  11.202  17.420  0.00  0.00    +0.000 OA
ATOM      2  C   UNL     1      -4.149  11.594  18.179  0.00  0.00    +0.000 A 
ATOM      3  N   UNL     1      -2.828  11.545  17.847  0.00  0.00    +0.000 N 
ATOM      4  C   UNL     1      -1.855  12.044  18.651  0.00  0.00    +0.000 A 
ATOM      5  N   UNL     1      -0.569  11.920  18.185  0.00  0.00    +0.000 N 
ATOM      6  N   UNL     1      -2.136  12.585  19.790  0.00  0.00    +0.000 NA
ATOM      7  C   UNL     1      -3.437  12.615  20.212  0.00  0.00    +0.000 A 
ATOM      8  C   UNL     1      -4.477  12.098  19.532  0.00  0.00    +0.000 A 
ATOM      9  H   UNL     1      -2.581  11.076  16.992  0.00  0.00    +0.000 HD
ATOM     10  H   UNL     1      -0.423  12.351  17.277  0.00  0.00    +0.000 HD
ENDROOT
BRANCH   7  11
ATOM     11  C   UNL     1      -3.654  13.217  21.536  0.00  0.00    +0.000 A 
ATOM     12  C   UNL     1      -3.728  12.397  22.666  0.00  0.00    +0.000 A 
ATOM     13  C   UNL     1      -3.932  12.958  23.926  0.00  0.00    +0.000 A 
ATOM     14  C   UNL     1      -4.057  14.341  24.062  0.00  0.00    +0.000 A 
ATOM     15  C   UNL     1      -3.993  15.169  22.939  0.00  0.00    +0.000 A 
ATOM     16  C   UNL     1      -3.797  14.605  21.675  0.00  0.00    +0.000 A 
ENDBRANCH   7  11
BRANCH   5  17
ATOM     17  C   UNL     1       0.545  12.083  19.126  0.00  0.00    +0.000 C 
BRANCH  17  18
ATOM     18  C   UNL     1       0.609  10.942  20.146  0.00  0.00    +0.000 C 
BRANCH  18  19
ATOM     19  C   UNL     1       1.263   9.698  19.575  0.00  0.00    +0.000 A 
ATOM     20  C   UNL     1       1.665   9.641  18.231  0.00  0.00    +0.000 A 
ATOM     21  C   UNL     1       2.264   8.490  17.711  0.00  0.00    +0.000 A 
ATOM     22  C   UNL     1       2.458   7.384  18.536  0.00  0.00    +0.000 A 
ATOM     23  C   UNL     1       2.060   7.418  19.866  0.00  0.00    +0.000 A 
ATOM     24  C   UNL     1       1.461   8.570  20.383  0.00  0.00    +0.000 A 
BRANCH  22  25
ATOM     25  O   UNL     1       3.040   6.241  18.072  0.00  0.00    +0.000 OA
ATOM     26  H   UNL     1       2.415   5.786  17.490  0.00  0.00    +0.000 HD
ENDBRANCH  22  25
ENDBRANCH  18  19
ENDBRANCH  17  18
ENDBRANCH   5  17
BRANCH   8  27
ATOM     27  C   UNL     1      -5.923  12.069  19.974  0.00  0.00    +0.000 C 
BRANCH  27  28
ATOM     28  C   UNL     1      -6.665  13.403  20.079  0.00  0.00    +0.000 A 
ATOM     29  C   UNL     1      -6.701  14.302  18.996  0.00  0.00    +0.000 A 
ATOM     30  C   UNL     1      -7.183  15.599  19.134  0.00  0.00    +0.000 A 
ATOM     31  C   UNL     1      -7.581  16.069  20.377  0.00  0.00    +0.000 A 
ATOM     32  C   UNL     1      -7.559  15.227  21.490  0.00  0.00    +0.000 A 
ATOM     33  C   UNL     1      -7.881  15.762  22.750  0.00  0.00    +0.000 A 
ATOM     34  C   UNL     1      -7.913  14.962  23.886  0.00  0.00    +0.000 A 
ATOM     35  C   UNL     1      -7.703  13.600  23.758  0.00  0.00    +0.000 A 
ATOM     36  C   UNL     1      -7.331  13.069  22.516  0.00  0.00    +0.000 A 
ATOM     37  C   UNL     1      -7.178  13.862  21.351  0.00  0.00    +0.000 A 
BRANCH  29  38
ATOM     38  O   UNL     1      -6.257  14.026  17.736  0.00  0.00    +0.000 OA
ATOM     39  H   UNL     1      -6.611  14.667  17.091  0.00  0.00    +0.000 HD
ENDBRANCH  29  38
ENDBRANCH  27  28
ENDBRANCH   8  27
TORSDOF 8
ENDMDL
MODEL 7
REMARK VINA RESULT:      -7.6      1.945      2.654
REMARK  Name = 
REMARK  8 active torsions:
REMARK  status: ('A' for Active; 'I' for Inactive)
REMARK    1  A    between atoms: N_5  and  C_6
REMARK    2  A    between atoms: C_6  and  C_7
REMARK    3  A    between atoms: C_7  and  C_8
REMARK    4  A    between atoms: C_11  and  O_12
REMARK    5  A    between atoms: C_16  and  C_17
REMARK    6  A    between atoms: C_23  and  C_24
REMARK    7  A    between atoms: C_24  and  C_25
REMARK    8  A    between atoms: C_26  and  O_27
REMARK                            x       y       z     vdW  Elec       q    Type
REMARK                         _______ _______ _______ _____ _____    ______ ____
ROOT
ATOM      1  O   UNL     1      -5.645  11.168  17.361  0.00  0.00    +0.000 OA
ATOM      2  C   UNL     1      -4.665  11.464  18.029  0.00  0.00    +0.000 A 
ATOM      3  N   UNL     1      -3.402  11.115  17.654  0.00  0.00    +0.000 N 
ATOM      4  C   UNL     1      -2.301  11.501  18.349  0.00  0.00    +0.000 A 
ATOM      5  N   UNL     1      -1.095  11.072  17.852  0.00  0.00    +0.000 N 
ATOM      6  N   UNL     1      -2.400  12.215  19.422  0.00  0.00    +0.000 NA
ATOM      7  C   UNL     1      -3.642  12.551  19.888  0.00  0.00    +0.000 A 
ATOM      8  C   UNL     1      -4.803  12.176  19.319  0.00  0.00    +0.000 A 
ATOM      9  H   UNL     1      -3.304  10.512  16.855  0.00  0.00    +0.000 HD
ATOM     10  H   UNL     1      -0.927  11.357  16.892  0.00  0.00    +0.000 HD
ENDROOT
BRANCH   7  11
ATOM     11  C   UNL     1      -3.655  13.333  21.133  0.00  0.00    +0.000 A 
ATOM     12  C   UNL     1      -3.812  12.680  22.359  0.00  0.00    +0.000 A 
ATOM     13  C   UNL     1      -3.824  13.412  23.546  0.00  0.00    +0.000 A 
ATOM     14  C   UNL     1      -3.673  14.798  23.512  0.00  0.00    +0.000 A 
ATOM     15  C   UNL     1      -3.524  15.463  22.292  0.00  0.00    +0.000 A 
ATOM     16  C   UNL     1      -3.521  14.729  21.101  0.00  0.00    +0.000 A 
ENDBRANCH   7  11
BRANCH   5  17
ATOM     17  C   UNL     1       0.086  11.118  18.720  0.00  0.00    +0.000 C 
BRANCH  17  18
ATOM     18  C   UNL     1       1.288  10.400  18.098  0.00  0.00    +0.000 C 
BRANCH  18  19
ATOM     19  C   UNL     1       1.603   9.093  18.801  0.00  0.00    +0.000 A 
ATOM     20  C   UNL     1       1.247   8.888  20.143  0.00  0.00    +0.000 A 
ATOM     21  C   UNL     1       1.544   7.682  20.786  0.00  0.00    +0.000 A 
ATOM     22  C   UNL     1       2.207   6.676  20.087  0.00  0.00    +0.000 A 
ATOM     23  C   UNL     1       2.574   6.863  18.761  0.00  0.00    +0.000 A 
ATOM     24  C   UNL     1       2.277   8.069  18.121  0.00  0.00    +0.000 A 
BRANCH  22  25
ATOM     25  O   UNL     1       2.514   5.483  20.672  0.00  0.00    +0.000 OA
ATOM     26  H   UNL     1       2.755   4.850  19.981  0.00  0.00    +0.000 HD
ENDBRANCH  22  25
ENDBRANCH  18  19
ENDBRANCH  17  18
ENDBRANCH   5  17
BRANCH   8  27
ATOM     27  C   UNL     1      -6.196  12.486  19.819  0.00  0.00    +0.000 C 
BRANCH  27  28
ATOM     28  C   UNL     1      -6.666  13.941  19.771  0.00  0.00    +0.000 A 
ATOM     29  C   UNL     1      -6.613  14.683  18.575  0.00  0.00    +0.000 A 
ATOM     30  C   UNL     1      -6.833  16.055  18.552  0.00  0.00    +0.000 A 
ATOM     31  C   UNL     1      -7.041  16.750  19.735  0.00  0.00    +0.000 A 
ATOM     32  C   UNL     1      -7.094  16.071  20.952  0.00  0.00    +0.000 A 
ATOM     33  C   UNL     1      -7.216  16.816  22.139  0.00  0.00    +0.000 A 
ATOM     34  C   UNL     1      -7.312  16.191  23.376  0.00  0.00    +0.000 A 
ATOM     35  C   UNL     1      -7.371  14.809  23.431  0.00  0.00    +0.000 A 
ATOM     36  C   UNL     1      -7.199  14.060  22.260  0.00  0.00    +0.000 A 
ATOM     37  C   UNL     1      -6.988  14.651  20.988  0.00  0.00    +0.000 A 
BRANCH  29  38
ATOM     38  O   UNL     1      -6.324  14.165  17.346  0.00  0.00    +0.000 OA
ATOM     39  H   UNL     1      -5.705  13.414  17.419  0.00  0.00    +0.000 HD
ENDBRANCH  29  38
ENDBRANCH  27  28
ENDBRANCH   8  27
TORSDOF 8
ENDMDL
MODEL 8
REMARK VINA RESULT:      -7.6      3.275      5.441
REMARK  Name = 
REMARK  8 active torsions:
REMARK  status: ('A' for Active; 'I' for Inactive)
REMARK    1  A    between atoms: N_5  and  C_6
REMARK    2  A    between atoms: C_6  and  C_7
REMARK    3  A    between atoms: C_7  and  C_8
REMARK    4  A    between atoms: C_11  and  O_12
REMARK    5  A    between atoms: C_16  and  C_17
REMARK    6  A    between atoms: C_23  and  C_24
REMARK    7  A    between atoms: C_24  and  C_25
REMARK    8  A    between atoms: C_26  and  O_27
REMARK                            x       y       z     vdW  Elec       q    Type
REMARK                         _______ _______ _______ _____ _____    ______ ____
ROOT
ATOM      1  O   UNL     1       0.991   9.632  23.584  0.00  0.00    +0.000 OA
ATOM      2  C   UNL     1       0.936   9.417  22.381  0.00  0.00    +0.000 A 
ATOM      3  N   UNL     1       1.695   8.456  21.783  0.00  0.00    +0.000 N 
ATOM      4  C   UNL     1       1.588   8.159  20.462  0.00  0.00    +0.000 A 
ATOM      5  N   UNL     1       2.420   7.170  19.999  0.00  0.00    +0.000 N 
ATOM      6  N   UNL     1       0.759   8.790  19.697  0.00  0.00    +0.000 NA
ATOM      7  C   UNL     1       0.007   9.806  20.220  0.00  0.00    +0.000 A 
ATOM      8  C   UNL     1       0.072  10.230  21.497  0.00  0.00    +0.000 A 
ATOM      9  H   UNL     1       2.387   7.993  22.346  0.00  0.00    +0.000 HD
ATOM     10  H   UNL     1       2.313   6.287  20.489  0.00  0.00    +0.000 HD
ENDROOT
BRANCH   7  11
ATOM     11  C   UNL     1      -0.879  10.488  19.266  0.00  0.00    +0.000 A 
ATOM     12  C   UNL     1      -0.401  11.582  18.538  0.00  0.00    +0.000 A 
ATOM     13  C   UNL     1      -1.234  12.234  17.629  0.00  0.00    +0.000 A 
ATOM     14  C   UNL     1      -2.543  11.792  17.439  0.00  0.00    +0.000 A 
ATOM     15  C   UNL     1      -3.033  10.706  18.167  0.00  0.00    +0.000 A 
ATOM     16  C   UNL     1      -2.201  10.057  19.085  0.00  0.00    +0.000 A 
ENDBRANCH   7  11
BRANCH   5  17
ATOM     17  C   UNL     1       2.638   7.046  18.554  0.00  0.00    +0.000 C 
BRANCH  17  18
ATOM     18  C   UNL     1       2.797   5.586  18.118  0.00  0.00    +0.000 C 
BRANCH  18  19
ATOM     19  C   UNL     1       4.251   5.201  17.919  0.00  0.00    +0.000 A 
ATOM     20  C   UNL     1       5.180   5.315  18.965  0.00  0.00    +0.000 A 
ATOM     21  C   UNL     1       6.520   4.960  18.773  0.00  0.00    +0.000 A 
ATOM     22  C   UNL     1       6.936   4.496  17.528  0.00  0.00    +0.000 A 
ATOM     23  C   UNL     1       6.032   4.382  16.480  0.00  0.00    +0.000 A 
ATOM     24  C   UNL     1       4.695   4.737  16.673  0.00  0.00    +0.000 A 
BRANCH  22  25
ATOM     25  O   UNL     1       8.231   4.136  17.297  0.00  0.00    +0.000 OA
ATOM     26  H   UNL     1       8.314   3.843  16.378  0.00  0.00    +0.000 HD
ENDBRANCH  22  25
ENDBRANCH  18  19
ENDBRANCH  17  18
ENDBRANCH   5  17
BRANCH   8  27
ATOM     27  C   UNL     1      -0.706  11.373  22.110  0.00  0.00    +0.000 C 
BRANCH  27  28
ATOM     28  C   UNL     1      -0.621  12.741  21.430  0.00  0.00    +0.000 A 
ATOM     29  C   UNL     1       0.618  13.375  21.222  0.00  0.00    +0.000 A 
ATOM     30  C   UNL     1       0.706  14.697  20.803  0.00  0.00    +0.000 A 
ATOM     31  C   UNL     1      -0.443  15.459  20.646  0.00  0.00    +0.000 A 
ATOM     32  C   UNL     1      -1.700  14.889  20.847  0.00  0.00    +0.000 A 
ATOM     33  C   UNL     1      -2.838  15.712  20.768  0.00  0.00    +0.000 A 
ATOM     34  C   UNL     1      -4.117  15.191  20.923  0.00  0.00    +0.000 A 
ATOM     35  C   UNL     1      -4.275  13.825  21.074  0.00  0.00    +0.000 A 
ATOM     36  C   UNL     1      -3.146  13.006  21.204  0.00  0.00    +0.000 A 
ATOM     37  C   UNL     1      -1.820  13.506  21.164  0.00  0.00    +0.000 A 
BRANCH  29  38
ATOM     38  O   UNL     1       1.837  12.795  21.427  0.00  0.00    +0.000 OA
ATOM     39  H   UNL     1       2.385  12.839  20.621  0.00  0.00    +0.000 HD
ENDBRANCH  29  38
ENDBRANCH  27  28
ENDBRANCH   8  27
TORSDOF 8
ENDMDL
MODEL 9
REMARK VINA RESULT:      -7.5      3.479      7.411
REMARK  Name = 
REMARK  8 active torsions:
REMARK  status: ('A' for Active; 'I' for Inactive)
REMARK    1  A    between atoms: N_5  and  C_6
REMARK    2  A    between atoms: C_6  and  C_7
REMARK    3  A    between atoms: C_7  and  C_8
REMARK    4  A    between atoms: C_11  and  O_12
REMARK    5  A    between atoms: C_16  and  C_17
REMARK    6  A    between atoms: C_23  and  C_24
REMARK    7  A    between atoms: C_24  and  C_25
REMARK    8  A    between atoms: C_26  and  O_27
REMARK                            x       y       z     vdW  Elec       q    Type
REMARK                         _______ _______ _______ _____ _____    ______ ____
ROOT
ATOM      1  O   UNL     1       0.852  14.937  18.531  0.00  0.00    +0.000 OA
ATOM      2  C   UNL     1       0.227  13.899  18.700  0.00  0.00    +0.000 A 
ATOM      3  N   UNL     1      -0.660  13.430  17.778  0.00  0.00    +0.000 N 
ATOM      4  C   UNL     1      -1.303  12.243  17.922  0.00  0.00    +0.000 A 
ATOM      5  N   UNL     1      -2.170  11.903  16.912  0.00  0.00    +0.000 N 
ATOM      6  N   UNL     1      -1.112  11.497  18.960  0.00  0.00    +0.000 NA
ATOM      7  C   UNL     1      -0.279  11.935  19.953  0.00  0.00    +0.000 A 
ATOM      8  C   UNL     1       0.364  13.118  19.950  0.00  0.00    +0.000 A 
ATOM      9  H   UNL     1      -0.868  14.020  16.990  0.00  0.00    +0.000 HD
ATOM     10  H   UNL     1      -1.733  11.869  15.996  0.00  0.00    +0.000 HD
ENDROOT
BRANCH   7  11
ATOM     11  C   UNL     1      -0.153  11.036  21.109  0.00  0.00    +0.000 A 
ATOM     12  C   UNL     1       0.891  10.107  21.153  0.00  0.00    +0.000 A 
ATOM     13  C   UNL     1       1.021   9.252  22.247  0.00  0.00    +0.000 A 
ATOM     14  C   UNL     1       0.112   9.326  23.302  0.00  0.00    +0.000 A 
ATOM     15  C   UNL     1      -0.940  10.244  23.265  0.00  0.00    +0.000 A 
ATOM     16  C   UNL     1      -1.075  11.096  22.165  0.00  0.00    +0.000 A 
ENDBRANCH   7  11
BRANCH   5  17
ATOM     17  C   UNL     1      -3.164  10.852  17.156  0.00  0.00    +0.000 C 
BRANCH  17  18
ATOM     18  C   UNL     1      -4.598  11.371  17.016  0.00  0.00    +0.000 C 
BRANCH  18  19
ATOM     19  C   UNL     1      -5.308  11.468  18.353  0.00  0.00    +0.000 A 
ATOM     20  C   UNL     1      -6.501  10.768  18.594  0.00  0.00    +0.000 A 
ATOM     21  C   UNL     1      -7.151  10.864  19.828  0.00  0.00    +0.000 A 
ATOM     22  C   UNL     1      -6.611  11.670  20.827  0.00  0.00    +0.000 A 
ATOM     23  C   UNL     1      -5.435  12.376  20.606  0.00  0.00    +0.000 A 
ATOM     24  C   UNL     1      -4.788  12.278  19.372  0.00  0.00    +0.000 A 
BRANCH  22  25
ATOM     25  O   UNL     1      -7.209  11.792  22.047  0.00  0.00    +0.000 OA
ATOM     26  H   UNL     1      -8.140  11.539  21.965  0.00  0.00    +0.000 HD
ENDBRANCH  22  25
ENDBRANCH  18  19
ENDBRANCH  17  18
ENDBRANCH   5  17
BRANCH   8  27
ATOM     27  C   UNL     1       1.259  13.663  21.039  0.00  0.00    +0.000 C 
BRANCH  27  28
ATOM     28  C   UNL     1       0.917  15.033  21.629  0.00  0.00    +0.000 A 
ATOM     29  C   UNL     1       1.671  16.175  21.300  0.00  0.00    +0.000 A 
ATOM     30  C   UNL     1       1.514  17.379  21.978  0.00  0.00    +0.000 A 
ATOM     31  C   UNL     1       0.648  17.465  23.058  0.00  0.00    +0.000 A 
ATOM     32  C   UNL     1      -0.120  16.364  23.437  0.00  0.00    +0.000 A 
ATOM     33  C   UNL     1      -0.919  16.459  24.590  0.00  0.00    +0.000 A 
ATOM     34  C   UNL     1      -1.733  15.407  24.993  0.00  0.00    +0.000 A 
ATOM     35  C   UNL     1      -1.819  14.278  24.197  0.00  0.00    +0.000 A 
ATOM     36  C   UNL     1      -0.989  14.155  23.076  0.00  0.00    +0.000 A 
ATOM     37  C   UNL     1      -0.062  15.155  22.686  0.00  0.00    +0.000 A 
BRANCH  29  38
ATOM     38  O   UNL     1       2.631  16.226  20.332  0.00  0.00    +0.000 OA
ATOM     39  H   UNL     1       2.236  16.386  19.454  0.00  0.00    +0.000 HD
ENDBRANCH  29  38
ENDBRANCH  27  28
ENDBRANCH   8  27
TORSDOF 8
ENDMDL
