MODEL 1
REMARK VINA RESULT:      -7.7      0.000      0.000
REMARK  Name = 
REMARK  3 active torsions:
REMARK  status: ('A' for Active; 'I' for Inactive)
REMARK    1  A    between atoms: C_2  and  C_3
REMARK    2  A    between atoms: C_2  and  C_25
REMARK    3  A    between atoms: C_6  and  C_7
REMARK                            x       y       z     vdW  Elec       q    Type
REMARK                         _______ _______ _______ _____ _____    ______ ____
ROOT
ATOM      1  C   UNL     1       1.972   7.100  19.766  0.00  0.00    +0.000 C 
ATOM      2  C   UNL     1       2.657   7.442  18.685  0.00  0.00    +0.000 C 
ATOM      3  C   UNL     1       3.321   6.626  17.649  0.00  0.00    +0.000 C 
ATOM      4  C   UNL     1       3.619   5.156  17.929  0.00  0.00    +0.000 C 
ATOM      5  C   UNL     1       2.590   4.413  18.867  0.00  0.00    +0.000 C 
ATOM      6  S   UNL     1       1.588   5.437  20.089  0.00  0.00    +0.000 S 
ATOM      7  C   UNL     1       1.687   3.682  17.792  0.00  0.00    +0.000 C 
ATOM      8  O   UNL     1       0.729   4.120  17.177  0.00  0.00    +0.000 OA
ATOM      9  N   UNL     1       2.326   2.459  17.501  0.00  0.00    +0.000 N 
ATOM     10  C   UNL     1       3.242   2.139  18.493  0.00  0.00    +0.000 A 
ATOM     11  C   UNL     1       4.032   1.009  18.581  0.00  0.00    +0.000 A 
ATOM     12  C   UNL     1       4.757   0.847  19.755  0.00  0.00    +0.000 A 
ATOM     13  F   UNL     1       5.582  -0.201  19.887  0.00  0.00    +0.000 F 
ATOM     14  C   UNL     1       4.640   1.757  20.815  0.00  0.00    +0.000 A 
ATOM     15  C   UNL     1       3.875   2.922  20.674  0.00  0.00    +0.000 A 
ATOM     16  C   UNL     1       3.237   3.149  19.466  0.00  0.00    +0.000 A 
ATOM     17  H   UNL     1       2.050   1.843  16.748  0.00  0.00    +0.000 HD
ENDROOT
BRANCH   4  18
ATOM     18  C   UNL     1       5.119   5.054  18.205  0.00  0.00    +0.000 A 
ATOM     19  C   UNL     1       5.684   5.662  19.326  0.00  0.00    +0.000 A 
ATOM     20  C   UNL     1       7.066   5.791  19.432  0.00  0.00    +0.000 A 
ATOM     21  C   UNL     1       7.897   5.317  18.419  0.00  0.00    +0.000 A 
ATOM     22  C   UNL     1       7.353   4.677  17.311  0.00  0.00    +0.000 A 
ATOM     23  C   UNL     1       5.971   4.533  17.207  0.00  0.00    +0.000 A 
ENDBRANCH   4  18
BRANCH   1  25
ATOM     24  O   UNL     1       1.985   8.432  21.767  0.00  0.00    +0.000 OA
ATOM     25  C   UNL     1       1.638   8.366  20.574  0.00  0.00    +0.000 C 
BRANCH  25  26
ATOM     26  C   UNL     1       0.934   9.592  20.125  0.00  0.00    +0.000 A 
ATOM     27  C   UNL     1       0.592  10.547  21.119  0.00  0.00    +0.000 A 
ATOM     28  C   UNL     1      -0.240  11.628  20.824  0.00  0.00    +0.000 A 
ATOM     29  C   UNL     1      -0.736  11.761  19.538  0.00  0.00    +0.000 A 
ATOM     30  C   UNL     1      -0.408  10.806  18.555  0.00  0.00    +0.000 A 
ATOM     31  C   UNL     1       0.422   9.728  18.845  0.00  0.00    +0.000 A 
ENDBRANCH  25  26
ENDBRANCH   1  25
TORSDOF 3
ENDMDL
MODEL 2
REMARK VINA RESULT:      -7.7      5.516      8.815
REMARK  Name = 
REMARK  3 active torsions:
REMARK  status: ('A' for Active; 'I' for Inactive)
REMARK    1  A    between atoms: C_2  and  C_3
REMARK    2  A    between atoms: C_2  and  C_25
REMARK    3  A    between atoms: C_6  and  C_7
REMARK                            x       y       z     vdW  Elec       q    Type
REMARK                         _______ _______ _______ _____ _____    ______ ____
ROOT
ATOM      1  C   UNL     1      -0.764  14.650  20.128  0.00  0.00    +0.000 C 
ATOM      2  C   UNL     1      -1.995  14.159  20.131  0.00  0.00    +0.000 C 
ATOM      3  C   UNL     1      -2.495  12.773  20.231  0.00  0.00    +0.000 C 
ATOM      4  C   UNL     1      -1.544  11.612  19.964  0.00  0.00    +0.000 C 
ATOM      5  C   UNL     1      -0.036  11.853  20.360  0.00  0.00    +0.000 C 
ATOM      6  S   UNL     1       0.606  13.622  20.417  0.00  0.00    +0.000 S 
ATOM      7  C   UNL     1       0.016  11.136  21.771  0.00  0.00    +0.000 C 
ATOM      8  O   UNL     1      -0.288  11.582  22.864  0.00  0.00    +0.000 OA
ATOM      9  N   UNL     1       0.286   9.775  21.514  0.00  0.00    +0.000 N 
ATOM     10  C   UNL     1       0.799   9.611  20.236  0.00  0.00    +0.000 A 
ATOM     11  C   UNL     1       1.216   8.439  19.637  0.00  0.00    +0.000 A 
ATOM     12  C   UNL     1       1.838   8.560  18.400  0.00  0.00    +0.000 A 
ATOM     13  F   UNL     1       2.224   7.458  17.741  0.00  0.00    +0.000 F 
ATOM     14  C   UNL     1       2.079   9.814  17.825  0.00  0.00    +0.000 A 
ATOM     15  C   UNL     1       1.593  10.981  18.430  0.00  0.00    +0.000 A 
ATOM     16  C   UNL     1       0.875  10.862  19.608  0.00  0.00    +0.000 A 
ATOM     17  H   UNL     1       0.241   9.049  22.217  0.00  0.00    +0.000 HD
ENDROOT
BRANCH   4  18
ATOM     18  C   UNL     1      -1.893  11.064  18.580  0.00  0.00    +0.000 A 
ATOM     19  C   UNL     1      -1.838  11.882  17.451  0.00  0.00    +0.000 A 
ATOM     20  C   UNL     1      -2.403  11.461  16.251  0.00  0.00    +0.000 A 
ATOM     21  C   UNL     1      -3.032  10.220  16.166  0.00  0.00    +0.000 A 
ATOM     22  C   UNL     1      -3.066   9.377  17.272  0.00  0.00    +0.000 A 
ATOM     23  C   UNL     1      -2.489   9.789  18.472  0.00  0.00    +0.000 A 
ENDBRANCH   4  18
BRANCH   1  25
ATOM     24  O   UNL     1      -1.593  16.873  20.509  0.00  0.00    +0.000 OA
ATOM     25  C   UNL     1      -0.825  16.160  19.840  0.00  0.00    +0.000 C 
BRANCH  25  26
ATOM     26  C   UNL     1      -0.063  16.942  18.836  0.00  0.00    +0.000 A 
ATOM     27  C   UNL     1      -0.811  17.698  17.895  0.00  0.00    +0.000 A 
ATOM     28  C   UNL     1      -0.192  18.302  16.800  0.00  0.00    +0.000 A 
ATOM     29  C   UNL     1       1.175  18.153  16.635  0.00  0.00    +0.000 A 
ATOM     30  C   UNL     1       1.916  17.391  17.561  0.00  0.00    +0.000 A 
ATOM     31  C   UNL     1       1.303  16.790  18.655  0.00  0.00    +0.000 A 
ENDBRANCH  25  26
ENDBRANCH   1  25
TORSDOF 3
ENDMDL
MODEL 3
REMARK VINA RESULT:      -7.1      5.110     10.385
REMARK  Name = 
REMARK  3 active torsions:
REMARK  status: ('A' for Active; 'I' for Inactive)
REMARK    1  A    between atoms: C_2  and  C_3
REMARK    2  A    between atoms: C_2  and  C_25
REMARK    3  A    between atoms: C_6  and  C_7
REMARK                            x       y       z     vdW  Elec       q    Type
REMARK                         _______ _______ _______ _____ _____    ______ ____
ROOT
ATOM      1  C   UNL     1       0.919  10.453  19.529  0.00  0.00    +0.000 C 
ATOM      2  C   UNL     1       1.669  11.451  19.975  0.00  0.00    +0.000 C 
ATOM      3  C   UNL     1       1.373  12.551  20.913  0.00  0.00    +0.000 C 
ATOM      4  C   UNL     1      -0.077  12.896  21.233  0.00  0.00    +0.000 C 
ATOM      5  C   UNL     1      -1.091  11.686  21.217  0.00  0.00    +0.000 C 
ATOM      6  S   UNL     1      -0.672  10.179  20.168  0.00  0.00    +0.000 S 
ATOM      7  C   UNL     1      -1.177  11.353  22.762  0.00  0.00    +0.000 C 
ATOM      8  O   UNL     1      -0.436  10.655  23.434  0.00  0.00    +0.000 OA
ATOM      9  N   UNL     1      -2.172  12.198  23.296  0.00  0.00    +0.000 N 
ATOM     10  C   UNL     1      -2.980  12.700  22.285  0.00  0.00    +0.000 A 
ATOM     11  C   UNL     1      -4.078  13.528  22.413  0.00  0.00    +0.000 A 
ATOM     12  C   UNL     1      -4.815  13.766  21.259  0.00  0.00    +0.000 A 
ATOM     13  F   UNL     1      -5.864  14.599  21.303  0.00  0.00    +0.000 F 
ATOM     14  C   UNL     1      -4.488  13.147  20.046  0.00  0.00    +0.000 A 
ATOM     15  C   UNL     1      -3.336  12.359  19.934  0.00  0.00    +0.000 A 
ATOM     16  C   UNL     1      -2.533  12.204  21.052  0.00  0.00    +0.000 A 
ATOM     17  H   UNL     1      -2.351  12.305  24.285  0.00  0.00    +0.000 HD
ENDROOT
BRANCH   4  18
ATOM     18  C   UNL     1      -0.406  14.179  20.471  0.00  0.00    +0.000 A 
ATOM     19  C   UNL     1      -0.135  14.292  19.107  0.00  0.00    +0.000 A 
ATOM     20  C   UNL     1      -0.188  15.534  18.481  0.00  0.00    +0.000 A 
ATOM     21  C   UNL     1      -0.509  16.676  19.211  0.00  0.00    +0.000 A 
ATOM     22  C   UNL     1      -0.816  16.578  20.563  0.00  0.00    +0.000 A 
ATOM     23  C   UNL     1      -0.779  15.335  21.191  0.00  0.00    +0.000 A 
ENDBRANCH   4  18
BRANCH   1  25
ATOM     24  O   UNL     1       1.946  10.257  17.365  0.00  0.00    +0.000 OA
ATOM     25  C   UNL     1       1.693   9.688  18.441  0.00  0.00    +0.000 C 
BRANCH  25  26
ATOM     26  C   UNL     1       2.219   8.302  18.481  0.00  0.00    +0.000 A 
ATOM     27  C   UNL     1       2.017   7.562  19.676  0.00  0.00    +0.000 A 
ATOM     28  C   UNL     1       2.645   6.332  19.878  0.00  0.00    +0.000 A 
ATOM     29  C   UNL     1       3.478   5.834  18.890  0.00  0.00    +0.000 A 
ATOM     30  C   UNL     1       3.690   6.574  17.709  0.00  0.00    +0.000 A 
ATOM     31  C   UNL     1       3.065   7.799  17.505  0.00  0.00    +0.000 A 
ENDBRANCH  25  26
ENDBRANCH   1  25
TORSDOF 3
ENDMDL
MODEL 4
REMARK VINA RESULT:      -7.1      6.328     11.952
REMARK  Name = 
REMARK  3 active torsions:
REMARK  status: ('A' for Active; 'I' for Inactive)
REMARK    1  A    between atoms: C_2  and  C_3
REMARK    2  A    between atoms: C_2  and  C_25
REMARK    3  A    between atoms: C_6  and  C_7
REMARK                            x       y       z     vdW  Elec       q    Type
REMARK                         _______ _______ _______ _____ _____    ______ ____
ROOT
ATOM      1  C   UNL     1      -0.069  11.669  21.066  0.00  0.00    +0.000 C 
ATOM      2  C   UNL     1      -1.229  11.429  20.470  0.00  0.00    +0.000 C 
ATOM      3  C   UNL     1      -2.415  12.281  20.260  0.00  0.00    +0.000 C 
ATOM      4  C   UNL     1      -2.589  13.544  21.096  0.00  0.00    +0.000 C 
ATOM      5  C   UNL     1      -1.257  14.275  21.522  0.00  0.00    +0.000 C 
ATOM      6  S   UNL     1       0.326  13.262  21.635  0.00  0.00    +0.000 S 
ATOM      7  C   UNL     1      -1.180  15.412  20.424  0.00  0.00    +0.000 C 
ATOM      8  O   UNL     1      -0.723  15.352  19.294  0.00  0.00    +0.000 OA
ATOM      9  N   UNL     1      -1.946  16.491  20.914  0.00  0.00    +0.000 N 
ATOM     10  C   UNL     1      -2.145  16.366  22.282  0.00  0.00    +0.000 A 
ATOM     11  C   UNL     1      -2.810  17.238  23.122  0.00  0.00    +0.000 A 
ATOM     12  C   UNL     1      -2.738  16.966  24.483  0.00  0.00    +0.000 A 
ATOM     13  F   UNL     1      -3.402  17.744  25.350  0.00  0.00    +0.000 F 
ATOM     14  C   UNL     1      -1.979  15.896  24.973  0.00  0.00    +0.000 A 
ATOM     15  C   UNL     1      -1.363  14.996  24.093  0.00  0.00    +0.000 A 
ATOM     16  C   UNL     1      -1.520  15.194  22.732  0.00  0.00    +0.000 A 
ATOM     17  H   UNL     1      -2.190  17.305  20.366  0.00  0.00    +0.000 HD
ENDROOT
BRANCH   4  18
ATOM     18  C   UNL     1      -3.663  13.239  22.141  0.00  0.00    +0.000 A 
ATOM     19  C   UNL     1      -4.857  13.959  22.172  0.00  0.00    +0.000 A 
ATOM     20  C   UNL     1      -5.706  13.862  23.271  0.00  0.00    +0.000 A 
ATOM     21  C   UNL     1      -5.370  13.047  24.350  0.00  0.00    +0.000 A 
ATOM     22  C   UNL     1      -4.201  12.295  24.320  0.00  0.00    +0.000 A 
ATOM     23  C   UNL     1      -3.355  12.378  23.216  0.00  0.00    +0.000 A 
ENDBRANCH   4  18
BRANCH   1  25
ATOM     24  O   UNL     1       1.135   9.951  22.237  0.00  0.00    +0.000 OA
ATOM     25  C   UNL     1       0.744  10.365  21.132  0.00  0.00    +0.000 C 
BRANCH  25  26
ATOM     26  C   UNL     1       1.153   9.472  20.021  0.00  0.00    +0.000 A 
ATOM     27  C   UNL     1       1.637   8.183  20.366  0.00  0.00    +0.000 A 
ATOM     28  C   UNL     1       2.227   7.354  19.410  0.00  0.00    +0.000 A 
ATOM     29  C   UNL     1       2.339   7.807  18.107  0.00  0.00    +0.000 A 
ATOM     30  C   UNL     1       1.872   9.093  17.766  0.00  0.00    +0.000 A 
ATOM     31  C   UNL     1       1.282   9.920  18.716  0.00  0.00    +0.000 A 
ENDBRANCH  25  26
ENDBRANCH   1  25
TORSDOF 3
ENDMDL
MODEL 5
REMARK VINA RESULT:      -7.1      5.763     11.337
REMARK  Name = 
REMARK  3 active torsions:
REMARK  status: ('A' for Active; 'I' for Inactive)
REMARK    1  A    between atoms: C_2  and  C_3
REMARK    2  A    between atoms: C_2  and  C_25
REMARK    3  A    between atoms: C_6  and  C_7
REMARK                            x       y       z     vdW  Elec       q    Type
REMARK                         _______ _______ _______ _____ _____    ______ ____
ROOT
ATOM      1  C   UNL     1       0.304  10.915  20.573  0.00  0.00    +0.000 C 
ATOM      2  C   UNL     1      -0.904  10.677  20.082  0.00  0.00    +0.000 C 
ATOM      3  C   UNL     1      -2.036  11.578  19.790  0.00  0.00    +0.000 C 
ATOM      4  C   UNL     1      -2.067  12.970  20.412  0.00  0.00    +0.000 C 
ATOM      5  C   UNL     1      -0.661  13.649  20.646  0.00  0.00    +0.000 C 
ATOM      6  S   UNL     1       0.848  12.541  20.849  0.00  0.00    +0.000 S 
ATOM      7  C   UNL     1      -0.569  14.583  19.370  0.00  0.00    +0.000 C 
ATOM      8  O   UNL     1      -0.188  14.302  18.246  0.00  0.00    +0.000 OA
ATOM      9  N   UNL     1      -1.223  15.785  19.711  0.00  0.00    +0.000 N 
ATOM     10  C   UNL     1      -1.346  15.901  21.088  0.00  0.00    +0.000 A 
ATOM     11  C   UNL     1      -1.894  16.949  21.802  0.00  0.00    +0.000 A 
ATOM     12  C   UNL     1      -1.759  16.896  23.185  0.00  0.00    +0.000 A 
ATOM     13  F   UNL     1      -2.309  17.856  23.941  0.00  0.00    +0.000 F 
ATOM     14  C   UNL     1      -1.051  15.861  23.809  0.00  0.00    +0.000 A 
ATOM     15  C   UNL     1      -0.557  14.783  23.062  0.00  0.00    +0.000 A 
ATOM     16  C   UNL     1      -0.782  14.770  21.696  0.00  0.00    +0.000 A 
ATOM     17  H   UNL     1      -1.441  16.516  19.047  0.00  0.00    +0.000 HD
ENDROOT
BRANCH   4  18
ATOM     18  C   UNL     1      -3.093  12.927  21.544  0.00  0.00    +0.000 A 
ATOM     19  C   UNL     1      -4.216  13.755  21.524  0.00  0.00    +0.000 A 
ATOM     20  C   UNL     1      -4.998  13.904  22.666  0.00  0.00    +0.000 A 
ATOM     21  C   UNL     1      -4.666  13.228  23.839  0.00  0.00    +0.000 A 
ATOM     22  C   UNL     1      -3.571  12.372  23.866  0.00  0.00    +0.000 A 
ATOM     23  C   UNL     1      -2.793  12.209  22.721  0.00  0.00    +0.000 A 
ENDBRANCH   4  18
BRANCH   1  25
ATOM     24  O   UNL     1       1.234   9.206  21.984  0.00  0.00    +0.000 OA
ATOM     25  C   UNL     1       1.023   9.577  20.815  0.00  0.00    +0.000 C 
BRANCH  25  26
ATOM     26  C   UNL     1       1.527   8.603  19.817  0.00  0.00    +0.000 A 
ATOM     27  C   UNL     1       1.897   7.316  20.292  0.00  0.00    +0.000 A 
ATOM     28  C   UNL     1       2.563   6.408  19.468  0.00  0.00    +0.000 A 
ATOM     29  C   UNL     1       2.865   6.777  18.168  0.00  0.00    +0.000 A 
ATOM     30  C   UNL     1       2.511   8.059  17.701  0.00  0.00    +0.000 A 
ATOM     31  C   UNL     1       1.846   8.966  18.518  0.00  0.00    +0.000 A 
ENDBRANCH  25  26
ENDBRANCH   1  25
TORSDOF 3
ENDMDL
MODEL 6
REMARK VINA RESULT:      -7.0      5.507     10.988
REMARK  Name = 
REMARK  3 active torsions:
REMARK  status: ('A' for Active; 'I' for Inactive)
REMARK    1  A    between atoms: C_2  and  C_3
REMARK    2  A    between atoms: C_2  and  C_25
REMARK    3  A    between atoms: C_6  and  C_7
REMARK                            x       y       z     vdW  Elec       q    Type
REMARK                         _______ _______ _______ _____ _____    ______ ____
ROOT
ATOM      1  C   UNL     1       0.541  10.417  20.596  0.00  0.00    +0.000 C 
ATOM      2  C   UNL     1      -0.668  10.164  20.117  0.00  0.00    +0.000 C 
ATOM      3  C   UNL     1      -1.762  11.062  19.698  0.00  0.00    +0.000 C 
ATOM      4  C   UNL     1      -1.748  12.520  20.145  0.00  0.00    +0.000 C 
ATOM      5  C   UNL     1      -0.321  13.172  20.319  0.00  0.00    +0.000 C 
ATOM      6  S   UNL     1       1.142  12.045  20.682  0.00  0.00    +0.000 S 
ATOM      7  C   UNL     1      -0.178  13.939  18.941  0.00  0.00    +0.000 C 
ATOM      8  O   UNL     1       0.207  13.510  17.867  0.00  0.00    +0.000 OA
ATOM      9  N   UNL     1      -0.790  15.197  19.122  0.00  0.00    +0.000 N 
ATOM     10  C   UNL     1      -0.927  15.485  20.472  0.00  0.00    +0.000 A 
ATOM     11  C   UNL     1      -1.444  16.630  21.044  0.00  0.00    +0.000 A 
ATOM     12  C   UNL     1      -1.330  16.743  22.424  0.00  0.00    +0.000 A 
ATOM     13  F   UNL     1      -1.854  17.807  23.049  0.00  0.00    +0.000 F 
ATOM     14  C   UNL     1      -0.669  15.767  23.182  0.00  0.00    +0.000 A 
ATOM     15  C   UNL     1      -0.206  14.589  22.581  0.00  0.00    +0.000 A 
ATOM     16  C   UNL     1      -0.414  14.417  21.223  0.00  0.00    +0.000 A 
ATOM     17  H   UNL     1      -0.972  15.849  18.370  0.00  0.00    +0.000 HD
ENDROOT
BRANCH   4  18
ATOM     18  C   UNL     1      -2.791  12.653  21.255  0.00  0.00    +0.000 A 
ATOM     19  C   UNL     1      -3.882  13.510  21.114  0.00  0.00    +0.000 A 
ATOM     20  C   UNL     1      -4.674  13.825  22.215  0.00  0.00    +0.000 A 
ATOM     21  C   UNL     1      -4.381  13.289  23.468  0.00  0.00    +0.000 A 
ATOM     22  C   UNL     1      -3.318  12.406  23.620  0.00  0.00    +0.000 A 
ATOM     23  C   UNL     1      -2.532  12.077  22.518  0.00  0.00    +0.000 A 
ENDBRANCH   4  18
BRANCH   1  25
ATOM     24  O   UNL     1       1.285   8.810  22.221  0.00  0.00    +0.000 OA
ATOM     25  C   UNL     1       1.206   9.094  21.012  0.00  0.00    +0.000 C 
BRANCH  25  26
ATOM     26  C   UNL     1       1.796   8.042  20.149  0.00  0.00    +0.000 A 
ATOM     27  C   UNL     1       2.096   8.395  18.806  0.00  0.00    +0.000 A 
ATOM     28  C   UNL     1       2.464   7.426  17.872  0.00  0.00    +0.000 A 
ATOM     29  C   UNL     1       2.533   6.102  18.269  0.00  0.00    +0.000 A 
ATOM     30  C   UNL     1       2.222   5.749  19.598  0.00  0.00    +0.000 A 
ATOM     31  C   UNL     1       1.856   6.712  20.532  0.00  0.00    +0.000 A 
ENDBRANCH  25  26
ENDBRANCH   1  25
TORSDOF 3
ENDMDL
MODEL 7
REMARK VINA RESULT:      -7.0      9.320     10.880
REMARK  Name = 
REMARK  3 active torsions:
REMARK  status: ('A' for Active; 'I' for Inactive)
REMARK    1  A    between atoms: C_2  and  C_3
REMARK    2  A    between atoms: C_2  and  C_25
REMARK    3  A    between atoms: C_6  and  C_7
REMARK                            x       y       z     vdW  Elec       q    Type
REMARK                         _______ _______ _______ _____ _____    ______ ____
ROOT
ATOM      1  C   UNL     1       5.163  15.113  18.726  0.00  0.00    +0.000 C 
ATOM      2  C   UNL     1       5.234  15.859  19.820  0.00  0.00    +0.000 C 
ATOM      3  C   UNL     1       6.384  16.280  20.643  0.00  0.00    +0.000 C 
ATOM      4  C   UNL     1       7.712  15.541  20.511  0.00  0.00    +0.000 C 
ATOM      5  C   UNL     1       8.037  14.962  19.079  0.00  0.00    +0.000 C 
ATOM      6  S   UNL     1       6.604  14.572  17.922  0.00  0.00    +0.000 S 
ATOM      7  C   UNL     1       8.991  16.093  18.515  0.00  0.00    +0.000 C 
ATOM      8  O   UNL     1       8.690  17.140  17.966  0.00  0.00    +0.000 OA
ATOM      9  N   UNL     1      10.292  15.771  18.956  0.00  0.00    +0.000 N 
ATOM     10  C   UNL     1      10.360  14.442  19.349  0.00  0.00    +0.000 A 
ATOM     11  C   UNL     1      11.466  13.752  19.804  0.00  0.00    +0.000 A 
ATOM     12  C   UNL     1      11.311  12.383  19.988  0.00  0.00    +0.000 A 
ATOM     13  F   UNL     1      12.330  11.660  20.474  0.00  0.00    +0.000 F 
ATOM     14  C   UNL     1      10.110  11.736  19.670  0.00  0.00    +0.000 A 
ATOM     15  C   UNL     1       8.988  12.473  19.266  0.00  0.00    +0.000 A 
ATOM     16  C   UNL     1       9.099  13.850  19.185  0.00  0.00    +0.000 A 
ATOM     17  H   UNL     1      11.087  16.389  18.862  0.00  0.00    +0.000 HD
ENDROOT
BRANCH   4  18
ATOM     18  C   UNL     1       7.846  14.649  21.745  0.00  0.00    +0.000 A 
ATOM     19  C   UNL     1       6.909  13.650  22.012  0.00  0.00    +0.000 A 
ATOM     20  C   UNL     1       6.885  13.025  23.256  0.00  0.00    +0.000 A 
ATOM     21  C   UNL     1       7.794  13.393  24.246  0.00  0.00    +0.000 A 
ATOM     22  C   UNL     1       8.757  14.362  23.985  0.00  0.00    +0.000 A 
ATOM     23  C   UNL     1       8.794  14.980  22.737  0.00  0.00    +0.000 A 
ENDBRANCH   4  18
BRANCH   1  25
ATOM     24  O   UNL     1       3.226  13.715  18.468  0.00  0.00    +0.000 OA
ATOM     25  C   UNL     1       3.684  14.867  18.379  0.00  0.00    +0.000 C 
BRANCH  25  26
ATOM     26  C   UNL     1       2.662  15.846  17.935  0.00  0.00    +0.000 A 
ATOM     27  C   UNL     1       3.018  16.727  16.880  0.00  0.00    +0.000 A 
ATOM     28  C   UNL     1       2.201  17.803  16.532  0.00  0.00    +0.000 A 
ATOM     29  C   UNL     1       1.026  18.008  17.235  0.00  0.00    +0.000 A 
ATOM     30  C   UNL     1       0.678  17.142  18.292  0.00  0.00    +0.000 A 
ATOM     31  C   UNL     1       1.490  16.067  18.640  0.00  0.00    +0.000 A 
ENDBRANCH  25  26
ENDBRANCH   1  25
TORSDOF 3
ENDMDL
MODEL 8
REMARK VINA RESULT:      -7.0      9.566     11.030
REMARK  Name = 
REMARK  3 active torsions:
REMARK  status: ('A' for Active; 'I' for Inactive)
REMARK    1  A    between atoms: C_2  and  C_3
REMARK    2  A    between atoms: C_2  and  C_25
REMARK    3  A    between atoms: C_6  and  C_7
REMARK                            x       y       z     vdW  Elec       q    Type
REMARK                         _______ _______ _______ _____ _____    ______ ____
ROOT
ATOM      1  C   UNL     1       5.472  15.499  18.405  0.00  0.00    +0.000 C 
ATOM      2  C   UNL     1       5.582  16.316  19.443  0.00  0.00    +0.000 C 
ATOM      3  C   UNL     1       6.747  16.711  20.257  0.00  0.00    +0.000 C 
ATOM      4  C   UNL     1       8.018  15.869  20.208  0.00  0.00    +0.000 C 
ATOM      5  C   UNL     1       8.321  15.163  18.829  0.00  0.00    +0.000 C 
ATOM      6  S   UNL     1       6.881  14.795  17.673  0.00  0.00    +0.000 S 
ATOM      7  C   UNL     1       9.366  16.175  18.204  0.00  0.00    +0.000 C 
ATOM      8  O   UNL     1       9.153  17.198  17.574  0.00  0.00    +0.000 OA
ATOM      9  N   UNL     1      10.632  15.793  18.695  0.00  0.00    +0.000 N 
ATOM     10  C   UNL     1      10.594  14.495  19.185  0.00  0.00    +0.000 A 
ATOM     11  C   UNL     1      11.637  13.760  19.712  0.00  0.00    +0.000 A 
ATOM     12  C   UNL     1      11.377  12.424  19.993  0.00  0.00    +0.000 A 
ATOM     13  F   UNL     1      12.331  11.666  20.551  0.00  0.00    +0.000 F 
ATOM     14  C   UNL     1      10.136  11.846  19.697  0.00  0.00    +0.000 A 
ATOM     15  C   UNL     1       9.079  12.631  19.217  0.00  0.00    +0.000 A 
ATOM     16  C   UNL     1       9.295  13.987  19.038  0.00  0.00    +0.000 A 
ATOM     17  H   UNL     1      11.473  16.341  18.574  0.00  0.00    +0.000 HD
ENDROOT
BRANCH   4  18
ATOM     18  C   UNL     1       8.065  15.063  21.506  0.00  0.00    +0.000 A 
ATOM     19  C   UNL     1       9.189  15.098  22.331  0.00  0.00    +0.000 A 
ATOM     20  C   UNL     1       9.334  14.173  23.360  0.00  0.00    +0.000 A 
ATOM     21  C   UNL     1       8.359  13.201  23.575  0.00  0.00    +0.000 A 
ATOM     22  C   UNL     1       7.215  13.173  22.784  0.00  0.00    +0.000 A 
ATOM     23  C   UNL     1       7.059  14.106  21.762  0.00  0.00    +0.000 A 
ENDBRANCH   4  18
BRANCH   1  25
ATOM     24  O   UNL     1       3.543  14.202  17.795  0.00  0.00    +0.000 OA
ATOM     25  C   UNL     1       3.985  15.338  18.045  0.00  0.00    +0.000 C 
BRANCH  25  26
ATOM     26  C   UNL     1       2.936  16.382  17.950  0.00  0.00    +0.000 A 
ATOM     27  C   UNL     1       1.964  16.425  18.985  0.00  0.00    +0.000 A 
ATOM     28  C   UNL     1       0.835  17.236  18.879  0.00  0.00    +0.000 A 
ATOM     29  C   UNL     1       0.666  18.008  17.742  0.00  0.00    +0.000 A 
ATOM     30  C   UNL     1       1.623  17.955  16.708  0.00  0.00    +0.000 A 
ATOM     31  C   UNL     1       2.751  17.149  16.811  0.00  0.00    +0.000 A 
ENDBRANCH  25  26
ENDBRANCH   1  25
TORSDOF 3
ENDMDL
MODEL 9
REMARK VINA RESULT:      -6.9      4.537      9.589
REMARK  Name = 
REMARK  3 active torsions:
REMARK  status: ('A' for Active; 'I' for Inactive)
REMARK    1  A    between atoms: C_2  and  C_3
REMARK    2  A    between atoms: C_2  and  C_25
REMARK    3  A    between atoms: C_6  and  C_7
REMARK                            x       y       z     vdW  Elec       q    Type
REMARK                         _______ _______ _______ _____ _____    ______ ____
ROOT
ATOM      1  C   UNL     1       1.585   8.745  19.587  0.00  0.00    +0.000 C 
ATOM      2  C   UNL     1       1.204   9.079  18.361  0.00  0.00    +0.000 C 
ATOM      3  C   UNL     1       0.541  10.290  17.840  0.00  0.00    +0.000 C 
ATOM      4  C   UNL     1      -0.165  11.235  18.807  0.00  0.00    +0.000 C 
ATOM      5  C   UNL     1       0.464  11.336  20.251  0.00  0.00    +0.000 C 
ATOM      6  S   UNL     1       1.471   9.881  20.895  0.00  0.00    +0.000 S 
ATOM      7  C   UNL     1       1.321  12.659  20.106  0.00  0.00    +0.000 C 
ATOM      8  O   UNL     1       2.449  12.792  19.663  0.00  0.00    +0.000 OA
ATOM      9  N   UNL     1       0.449  13.730  20.395  0.00  0.00    +0.000 N 
ATOM     10  C   UNL     1      -0.673  13.277  21.073  0.00  0.00    +0.000 A 
ATOM     11  C   UNL     1      -1.728  14.026  21.556  0.00  0.00    +0.000 A 
ATOM     12  C   UNL     1      -2.660  13.355  22.339  0.00  0.00    +0.000 A 
ATOM     13  F   UNL     1      -3.735  14.012  22.799  0.00  0.00    +0.000 F 
ATOM     14  C   UNL     1      -2.498  12.003  22.667  0.00  0.00    +0.000 A 
ATOM     15  C   UNL     1      -1.448  11.256  22.115  0.00  0.00    +0.000 A 
ATOM     16  C   UNL     1      -0.577  11.889  21.245  0.00  0.00    +0.000 A 
ATOM     17  H   UNL     1       0.684  14.703  20.249  0.00  0.00    +0.000 HD
ENDROOT
BRANCH   4  18
ATOM     18  C   UNL     1      -1.666  10.996  18.641  0.00  0.00    +0.000 A 
ATOM     19  C   UNL     1      -2.152   9.765  18.200  0.00  0.00    +0.000 A 
ATOM     20  C   UNL     1      -3.479   9.637  17.801  0.00  0.00    +0.000 A 
ATOM     21  C   UNL     1      -4.334  10.736  17.836  0.00  0.00    +0.000 A 
ATOM     22  C   UNL     1      -3.876  11.963  18.305  0.00  0.00    +0.000 A 
ATOM     23  C   UNL     1      -2.552  12.093  18.719  0.00  0.00    +0.000 A 
ENDBRANCH   4  18
BRANCH   1  25
ATOM     24  O   UNL     1       1.890   6.578  20.580  0.00  0.00    +0.000 OA
ATOM     25  C   UNL     1       2.087   7.291  19.580  0.00  0.00    +0.000 C 
BRANCH  25  26
ATOM     26  C   UNL     1       2.805   6.564  18.504  0.00  0.00    +0.000 A 
ATOM     27  C   UNL     1       2.540   5.176  18.367  0.00  0.00    +0.000 A 
ATOM     28  C   UNL     1       3.308   4.375  17.522  0.00  0.00    +0.000 A 
ATOM     29  C   UNL     1       4.346   4.953  16.810  0.00  0.00    +0.000 A 
ATOM     30  C   UNL     1       4.619   6.329  16.956  0.00  0.00    +0.000 A 
ATOM     31  C   UNL     1       3.854   7.130  17.797  0.00  0.00    +0.000 A 
ENDBRANCH  25  26
ENDBRANCH   1  25
TORSDOF 3
ENDMDL
