MODEL 1
REMARK VINA RESULT:      -7.1      0.000      0.000
REMARK  Name = 
REMARK  16 active torsions:
REMARK  status: ('A' for Active; 'I' for Inactive)
REMARK    1  A    between atoms: C_1  and  C_2
REMARK    2  A    between atoms: C_2  and  O_3
REMARK    3  A    between atoms: O_3  and  C_4
REMARK    4  A    between atoms: N_10  and  C_11
REMARK    5  A    between atoms: C_11  and  C_12
REMARK    6  A    between atoms: C_15  and  C_16
REMARK    7  A    between atoms: N_18  and  C_19
REMARK    8  A    between atoms: C_19  and  C_20
REMARK    9  A    between atoms: C_20  and  N_21
REMARK   10  A    between atoms: N_21  and  C_22
REMARK   11  A    between atoms: N_21  and  C_24
REMARK   12  A    between atoms: C_22  and  C_23
REMARK   13  A    between atoms: C_24  and  C_25
REMARK   14  A    between atoms: C_32  and  O_33
REMARK   15  A    between atoms: O_33  and  C_34
REMARK   16  A    between atoms: C_34  and  C_35
REMARK                            x       y       z     vdW  Elec       q    Type
REMARK                         _______ _______ _______ _____ _____    ______ ____
ROOT
ATOM      1  C   UNL     1       3.048   4.567  19.323  0.00  0.00    +0.000 A 
ATOM      2  C   UNL     1       2.531   5.430  20.292  0.00  0.00    +0.000 A 
ATOM      3  C   UNL     1       2.190   6.722  19.974  0.00  0.00    +0.000 A 
ATOM      4  N   UNL     1       1.552   7.487  20.928  0.00  0.00    +0.000 N 
ATOM      5  C   UNL     1       1.035   8.719  20.668  0.00  0.00    +0.000 A 
ATOM      6  S   UNL     1      -0.086   9.211  21.812  0.00  0.00    +0.000 S 
ATOM      7  N   UNL     1       1.477   9.338  19.497  0.00  0.00    +0.000 N 
ATOM      8  C   UNL     1       2.053   8.607  18.462  0.00  0.00    +0.000 A 
ATOM      9  O   UNL     1       2.270   9.045  17.320  0.00  0.00    +0.000 OA
ATOM     10  C   UNL     1       2.377   7.202  18.702  0.00  0.00    +0.000 A 
ATOM     11  C   UNL     1       2.876   6.359  17.699  0.00  0.00    +0.000 A 
ATOM     12  C   UNL     1       3.210   5.029  17.999  0.00  0.00    +0.000 A 
ATOM     13  H   UNL     1       1.296   7.070  21.814  0.00  0.00    +0.000 HD
ENDROOT
BRANCH   1  14
ATOM     14  O   UNL     1       3.381   3.267  19.650  0.00  0.00    +0.000 OA
BRANCH  14  16
ATOM     15  C   UNL     1       1.011   2.766  19.871  0.00  0.00    +0.000 C 
ATOM     16  C   UNL     1       2.344   2.319  19.351  0.00  0.00    +0.000 C 
ENDBRANCH  14  16
ENDBRANCH   1  14
BRANCH   7  17
ATOM     17  C   UNL     1       1.241  10.773  19.171  0.00  0.00    +0.000 C 
BRANCH  17  18
ATOM     18  C   UNL     1      -0.124  11.048  18.578  0.00  0.00    +0.000 A 
ATOM     19  C   UNL     1      -0.757  12.285  18.740  0.00  0.00    +0.000 A 
ATOM     20  C   UNL     1      -2.130  12.391  18.518  0.00  0.00    +0.000 A 
ATOM     21  C   UNL     1      -2.874  11.264  18.137  0.00  0.00    +0.000 A 
ATOM     22  C   UNL     1      -2.204  10.095  17.779  0.00  0.00    +0.000 A 
ATOM     23  C   UNL     1      -0.830  10.011  17.963  0.00  0.00    +0.000 A 
BRANCH  21  24
ATOM     24  C   UNL     1      -4.352  11.323  18.285  0.00  0.00    +0.000 C 
ATOM     25  O   UNL     1      -5.068  11.071  17.319  0.00  0.00    +0.000 OA
ATOM     26  N   UNL     1      -4.870  11.725  19.499  0.00  0.00    +0.000 N 
ATOM     27  H   UNL     1      -4.301  11.843  20.325  0.00  0.00    +0.000 HD
BRANCH  26  28
ATOM     28  C   UNL     1      -6.301  11.851  19.641  0.00  0.00    +0.000 C 
BRANCH  28  29
ATOM     29  C   UNL     1      -6.747  12.843  20.728  0.00  0.00    +0.000 C 
BRANCH  29  30
ATOM     30  N   UNL     1      -6.162  14.205  20.683  0.00  0.00    +0.000 NA
BRANCH  30  31
ATOM     31  C   UNL     1      -7.059  15.198  20.063  0.00  0.00    +0.000 C 
ATOM     32  C   UNL     1      -6.516  15.968  18.859  0.00  0.00    +0.000 C 
ENDBRANCH  30  31
BRANCH  30  33
ATOM     33  C   UNL     1      -5.724  14.580  22.042  0.00  0.00    +0.000 C 
ATOM     34  C   UNL     1      -4.758  13.599  22.698  0.00  0.00    +0.000 C 
ENDBRANCH  30  33
ENDBRANCH  29  30
ENDBRANCH  28  29
ENDBRANCH  26  28
ENDBRANCH  21  24
ENDBRANCH  17  18
ENDBRANCH   7  17
BRANCH  12  35
ATOM     35  O   UNL     1       3.680   4.135  17.064  0.00  0.00    +0.000 OA
BRANCH  35  36
ATOM     36  C   UNL     1       5.084   4.177  16.769  0.00  0.00    +0.000 C 
ATOM     37  C   UNL     1       5.283   5.121  15.600  0.00  0.00    +0.000 C 
ENDBRANCH  35  36
ENDBRANCH  12  35
TORSDOF 12
ENDMDL
MODEL 2
REMARK VINA RESULT:      -7.1      2.428     10.800
REMARK  Name = 
REMARK  16 active torsions:
REMARK  status: ('A' for Active; 'I' for Inactive)
REMARK    1  A    between atoms: C_1  and  C_2
REMARK    2  A    between atoms: C_2  and  O_3
REMARK    3  A    between atoms: O_3  and  C_4
REMARK    4  A    between atoms: N_10  and  C_11
REMARK    5  A    between atoms: C_11  and  C_12
REMARK    6  A    between atoms: C_15  and  C_16
REMARK    7  A    between atoms: N_18  and  C_19
REMARK    8  A    between atoms: C_19  and  C_20
REMARK    9  A    between atoms: C_20  and  N_21
REMARK   10  A    between atoms: N_21  and  C_22
REMARK   11  A    between atoms: N_21  and  C_24
REMARK   12  A    between atoms: C_22  and  C_23
REMARK   13  A    between atoms: C_24  and  C_25
REMARK   14  A    between atoms: C_32  and  O_33
REMARK   15  A    between atoms: O_33  and  C_34
REMARK   16  A    between atoms: C_34  and  C_35
REMARK                            x       y       z     vdW  Elec       q    Type
REMARK                         _______ _______ _______ _____ _____    ______ ____
ROOT
ATOM      1  C   UNL     1      -5.062  12.772  20.202  0.00  0.00    +0.000 A 
ATOM      2  C   UNL     1      -3.868  12.997  20.891  0.00  0.00    +0.000 A 
ATOM      3  C   UNL     1      -2.664  12.606  20.359  0.00  0.00    +0.000 A 
ATOM      4  N   UNL     1      -1.506  12.978  21.009  0.00  0.00    +0.000 N 
ATOM      5  C   UNL     1      -0.265  12.779  20.489  0.00  0.00    +0.000 A 
ATOM      6  S   UNL     1       0.908  13.733  21.213  0.00  0.00    +0.000 S 
ATOM      7  N   UNL     1      -0.178  11.870  19.433  0.00  0.00    +0.000 N 
ATOM      8  C   UNL     1      -1.298  11.518  18.684  0.00  0.00    +0.000 A 
ATOM      9  O   UNL     1      -1.264  10.894  17.611  0.00  0.00    +0.000 OA
ATOM     10  C   UNL     1      -2.610  11.961  19.149  0.00  0.00    +0.000 A 
ATOM     11  C   UNL     1      -3.786  11.735  18.420  0.00  0.00    +0.000 A 
ATOM     12  C   UNL     1      -5.025  12.146  18.937  0.00  0.00    +0.000 A 
ATOM     13  H   UNL     1      -1.562  13.575  21.825  0.00  0.00    +0.000 HD
ENDROOT
BRANCH   1  14
ATOM     14  O   UNL     1      -6.268  13.175  20.741  0.00  0.00    +0.000 OA
BRANCH  14  16
ATOM     15  C   UNL     1      -6.491  15.529  20.175  0.00  0.00    +0.000 C 
ATOM     16  C   UNL     1      -6.246  14.517  21.252  0.00  0.00    +0.000 C 
ENDBRANCH  14  16
ENDBRANCH   1  14
BRANCH   7  17
ATOM     17  C   UNL     1       1.104  11.320  18.908  0.00  0.00    +0.000 C 
BRANCH  17  18
ATOM     18  C   UNL     1       1.222   9.817  19.038  0.00  0.00    +0.000 A 
ATOM     19  C   UNL     1       1.094   9.177  20.276  0.00  0.00    +0.000 A 
ATOM     20  C   UNL     1       1.567   7.874  20.430  0.00  0.00    +0.000 A 
ATOM     21  C   UNL     1       2.170   7.209  19.352  0.00  0.00    +0.000 A 
ATOM     22  C   UNL     1       2.105   7.774  18.081  0.00  0.00    +0.000 A 
ATOM     23  C   UNL     1       1.593   9.056  17.927  0.00  0.00    +0.000 A 
BRANCH  21  24
ATOM     24  C   UNL     1       2.989   6.004  19.649  0.00  0.00    +0.000 C 
ATOM     25  O   UNL     1       2.712   5.306  20.622  0.00  0.00    +0.000 OA
ATOM     26  N   UNL     1       4.083   5.746  18.848  0.00  0.00    +0.000 N 
ATOM     27  H   UNL     1       4.268   6.253  17.995  0.00  0.00    +0.000 HD
BRANCH  26  28
ATOM     28  C   UNL     1       4.928   4.618  19.161  0.00  0.00    +0.000 C 
BRANCH  28  29
ATOM     29  C   UNL     1       6.179   4.496  18.276  0.00  0.00    +0.000 C 
BRANCH  29  30
ATOM     30  N   UNL     1       6.125   5.129  16.936  0.00  0.00    +0.000 NA
BRANCH  30  31
ATOM     31  C   UNL     1       7.165   6.156  16.741  0.00  0.00    +0.000 C 
ATOM     32  C   UNL     1       7.619   6.929  17.979  0.00  0.00    +0.000 C 
ENDBRANCH  30  31
BRANCH  30  33
ATOM     33  C   UNL     1       6.149   4.070  15.907  0.00  0.00    +0.000 C 
ATOM     34  C   UNL     1       6.179   4.575  14.468  0.00  0.00    +0.000 C 
ENDBRANCH  30  33
ENDBRANCH  29  30
ENDBRANCH  28  29
ENDBRANCH  26  28
ENDBRANCH  21  24
ENDBRANCH  17  18
ENDBRANCH   7  17
BRANCH  12  35
ATOM     35  O   UNL     1      -6.218  11.983  18.270  0.00  0.00    +0.000 OA
BRANCH  35  36
ATOM     36  C   UNL     1      -7.250  11.252  18.948  0.00  0.00    +0.000 C 
ATOM     37  C   UNL     1      -6.791   9.813  19.072  0.00  0.00    +0.000 C 
ENDBRANCH  35  36
ENDBRANCH  12  35
TORSDOF 12
ENDMDL
MODEL 3
REMARK VINA RESULT:      -7.0      4.968      8.485
REMARK  Name = 
REMARK  16 active torsions:
REMARK  status: ('A' for Active; 'I' for Inactive)
REMARK    1  A    between atoms: C_1  and  C_2
REMARK    2  A    between atoms: C_2  and  O_3
REMARK    3  A    between atoms: O_3  and  C_4
REMARK    4  A    between atoms: N_10  and  C_11
REMARK    5  A    between atoms: C_11  and  C_12
REMARK    6  A    between atoms: C_15  and  C_16
REMARK    7  A    between atoms: N_18  and  C_19
REMARK    8  A    between atoms: C_19  and  C_20
REMARK    9  A    between atoms: C_20  and  N_21
REMARK   10  A    between atoms: N_21  and  C_22
REMARK   11  A    between atoms: N_21  and  C_24
REMARK   12  A    between atoms: C_22  and  C_23
REMARK   13  A    between atoms: C_24  and  C_25
REMARK   14  A    between atoms: C_32  and  O_33
REMARK   15  A    between atoms: O_33  and  C_34
REMARK   16  A    between atoms: C_34  and  C_35
REMARK                            x       y       z     vdW  Elec       q    Type
REMARK                         _______ _______ _______ _____ _____    ______ ____
ROOT
ATOM      1  C   UNL     1       2.600   6.081  19.793  0.00  0.00    +0.000 A 
ATOM      2  C   UNL     1       2.028   7.029  20.646  0.00  0.00    +0.000 A 
ATOM      3  C   UNL     1       1.661   8.266  20.178  0.00  0.00    +0.000 A 
ATOM      4  N   UNL     1       0.972   9.110  21.023  0.00  0.00    +0.000 N 
ATOM      5  C   UNL     1       0.428  10.289  20.614  0.00  0.00    +0.000 A 
ATOM      6  S   UNL     1      -0.742  10.868  21.665  0.00  0.00    +0.000 S 
ATOM      7  N   UNL     1       0.889  10.790  19.395  0.00  0.00    +0.000 N 
ATOM      8  C   UNL     1       1.519   9.969  18.464  0.00  0.00    +0.000 A 
ATOM      9  O   UNL     1       1.759  10.287  17.287  0.00  0.00    +0.000 OA
ATOM     10  C   UNL     1       1.875   8.610  18.867  0.00  0.00    +0.000 A 
ATOM     11  C   UNL     1       2.429   7.679  17.977  0.00  0.00    +0.000 A 
ATOM     12  C   UNL     1       2.791   6.401  18.431  0.00  0.00    +0.000 A 
ATOM     13  H   UNL     1       0.700   8.784  21.942  0.00  0.00    +0.000 HD
ENDROOT
BRANCH   1  14
ATOM     14  O   UNL     1       2.960   4.836  20.270  0.00  0.00    +0.000 OA
BRANCH  14  16
ATOM     15  C   UNL     1       0.908   3.530  20.268  0.00  0.00    +0.000 C 
ATOM     16  C   UNL     1       1.951   4.225  21.090  0.00  0.00    +0.000 C 
ENDBRANCH  14  16
ENDBRANCH   1  14
BRANCH   7  17
ATOM     17  C   UNL     1       0.623  12.173  18.907  0.00  0.00    +0.000 C 
BRANCH  17  18
ATOM     18  C   UNL     1       1.683  13.176  19.306  0.00  0.00    +0.000 A 
ATOM     19  C   UNL     1       2.516  13.778  18.356  0.00  0.00    +0.000 A 
ATOM     20  C   UNL     1       3.699  14.392  18.768  0.00  0.00    +0.000 A 
ATOM     21  C   UNL     1       4.055  14.404  20.125  0.00  0.00    +0.000 A 
ATOM     22  C   UNL     1       3.125  13.988  21.076  0.00  0.00    +0.000 A 
ATOM     23  C   UNL     1       1.929  13.416  20.660  0.00  0.00    +0.000 A 
BRANCH  21  24
ATOM     24  C   UNL     1       5.467  14.713  20.471  0.00  0.00    +0.000 C 
ATOM     25  O   UNL     1       5.792  14.824  21.651  0.00  0.00    +0.000 OA
ATOM     26  N   UNL     1       6.359  14.928  19.440  0.00  0.00    +0.000 N 
ATOM     27  H   UNL     1       6.131  14.748  18.473  0.00  0.00    +0.000 HD
BRANCH  26  28
ATOM     28  C   UNL     1       7.719  15.293  19.757  0.00  0.00    +0.000 C 
BRANCH  28  29
ATOM     29  C   UNL     1       8.713  14.120  19.734  0.00  0.00    +0.000 C 
BRANCH  29  30
ATOM     30  N   UNL     1       9.501  13.924  18.493  0.00  0.00    +0.000 NA
BRANCH  30  31
ATOM     31  C   UNL     1      10.900  14.375  18.621  0.00  0.00    +0.000 C 
ATOM     32  C   UNL     1      11.406  14.677  20.031  0.00  0.00    +0.000 C 
ENDBRANCH  30  31
BRANCH  30  33
ATOM     33  C   UNL     1       9.377  12.516  18.067  0.00  0.00    +0.000 C 
ATOM     34  C   UNL     1      10.696  11.830  17.729  0.00  0.00    +0.000 C 
ENDBRANCH  30  33
ENDBRANCH  29  30
ENDBRANCH  28  29
ENDBRANCH  26  28
ENDBRANCH  21  24
ENDBRANCH  17  18
ENDBRANCH   7  17
BRANCH  12  35
ATOM     35  O   UNL     1       3.316   5.425  17.614  0.00  0.00    +0.000 OA
BRANCH  35  36
ATOM     36  C   UNL     1       4.589   5.695  17.010  0.00  0.00    +0.000 C 
ATOM     37  C   UNL     1       5.660   5.098  17.901  0.00  0.00    +0.000 C 
ENDBRANCH  35  36
ENDBRANCH  12  35
TORSDOF 12
ENDMDL
MODEL 4
REMARK VINA RESULT:      -6.9      5.308      8.609
REMARK  Name = 
REMARK  16 active torsions:
REMARK  status: ('A' for Active; 'I' for Inactive)
REMARK    1  A    between atoms: C_1  and  C_2
REMARK    2  A    between atoms: C_2  and  O_3
REMARK    3  A    between atoms: O_3  and  C_4
REMARK    4  A    between atoms: N_10  and  C_11
REMARK    5  A    between atoms: C_11  and  C_12
REMARK    6  A    between atoms: C_15  and  C_16
REMARK    7  A    between atoms: N_18  and  C_19
REMARK    8  A    between atoms: C_19  and  C_20
REMARK    9  A    between atoms: C_20  and  N_21
REMARK   10  A    between atoms: N_21  and  C_22
REMARK   11  A    between atoms: N_21  and  C_24
REMARK   12  A    between atoms: C_22  and  C_23
REMARK   13  A    between atoms: C_24  and  C_25
REMARK   14  A    between atoms: C_32  and  O_33
REMARK   15  A    between atoms: O_33  and  C_34
REMARK   16  A    between atoms: C_34  and  C_35
REMARK                            x       y       z     vdW  Elec       q    Type
REMARK                         _______ _______ _______ _____ _____    ______ ____
ROOT
ATOM      1  C   UNL     1       2.248   6.372  19.985  0.00  0.00    +0.000 A 
ATOM      2  C   UNL     1       1.630   7.371  20.741  0.00  0.00    +0.000 A 
ATOM      3  C   UNL     1       1.407   8.618  20.211  0.00  0.00    +0.000 A 
ATOM      4  N   UNL     1       0.667   9.521  20.945  0.00  0.00    +0.000 N 
ATOM      5  C   UNL     1       0.258  10.722  20.452  0.00  0.00    +0.000 A 
ATOM      6  S   UNL     1      -1.001  11.394  21.330  0.00  0.00    +0.000 S 
ATOM      7  N   UNL     1       0.905  11.166  19.297  0.00  0.00    +0.000 N 
ATOM      8  C   UNL     1       1.599  10.287  18.470  0.00  0.00    +0.000 A 
ATOM      9  O   UNL     1       2.011  10.564  17.331  0.00  0.00    +0.000 OA
ATOM     10  C   UNL     1       1.812   8.918  18.935  0.00  0.00    +0.000 A 
ATOM     11  C   UNL     1       2.418   7.936  18.140  0.00  0.00    +0.000 A 
ATOM     12  C   UNL     1       2.636   6.648  18.656  0.00  0.00    +0.000 A 
ATOM     13  H   UNL     1       0.257   9.233  21.824  0.00  0.00    +0.000 HD
ENDROOT
BRANCH   1  14
ATOM     14  O   UNL     1       2.462   5.118  20.523  0.00  0.00    +0.000 OA
BRANCH  14  16
ATOM     15  C   UNL     1       1.509   3.024  21.313  0.00  0.00    +0.000 C 
ATOM     16  C   UNL     1       1.275   4.311  20.581  0.00  0.00    +0.000 C 
ENDBRANCH  14  16
ENDBRANCH   1  14
BRANCH   7  17
ATOM     17  C   UNL     1       0.794  12.551  18.759  0.00  0.00    +0.000 C 
BRANCH  17  18
ATOM     18  C   UNL     1       1.857  13.495  19.277  0.00  0.00    +0.000 A 
ATOM     19  C   UNL     1       2.658  14.244  18.407  0.00  0.00    +0.000 A 
ATOM     20  C   UNL     1       3.848  14.803  18.876  0.00  0.00    +0.000 A 
ATOM     21  C   UNL     1       4.241  14.614  20.209  0.00  0.00    +0.000 A 
ATOM     22  C   UNL     1       3.342  14.048  21.110  0.00  0.00    +0.000 A 
ATOM     23  C   UNL     1       2.139  13.531  20.644  0.00  0.00    +0.000 A 
BRANCH  21  24
ATOM     24  C   UNL     1       5.660  14.884  20.560  0.00  0.00    +0.000 C 
ATOM     25  O   UNL     1       5.967  15.085  21.733  0.00  0.00    +0.000 OA
ATOM     26  N   UNL     1       6.582  14.961  19.536  0.00  0.00    +0.000 N 
ATOM     27  H   UNL     1       6.364  14.706  18.583  0.00  0.00    +0.000 HD
BRANCH  26  28
ATOM     28  C   UNL     1       7.952  15.287  19.852  0.00  0.00    +0.000 C 
BRANCH  28  29
ATOM     29  C   UNL     1       8.992  14.360  19.201  0.00  0.00    +0.000 C 
BRANCH  29  30
ATOM     30  N   UNL     1       9.562  14.789  17.901  0.00  0.00    +0.000 NA
BRANCH  30  31
ATOM     31  C   UNL     1       9.359  16.223  17.627  0.00  0.00    +0.000 C 
ATOM     32  C   UNL     1      10.569  17.142  17.801  0.00  0.00    +0.000 C 
ENDBRANCH  30  31
BRANCH  30  33
ATOM     33  C   UNL     1      10.979  14.377  17.843  0.00  0.00    +0.000 C 
ATOM     34  C   UNL     1      11.311  13.376  16.741  0.00  0.00    +0.000 C 
ENDBRANCH  30  33
ENDBRANCH  29  30
ENDBRANCH  28  29
ENDBRANCH  26  28
ENDBRANCH  21  24
ENDBRANCH  17  18
ENDBRANCH   7  17
BRANCH  12  35
ATOM     35  O   UNL     1       3.200   5.625  17.930  0.00  0.00    +0.000 OA
BRANCH  35  36
ATOM     36  C   UNL     1       4.630   5.623  17.807  0.00  0.00    +0.000 C 
ATOM     37  C   UNL     1       4.971   5.934  16.364  0.00  0.00    +0.000 C 
ENDBRANCH  35  36
ENDBRANCH  12  35
TORSDOF 12
ENDMDL
MODEL 5
REMARK VINA RESULT:      -6.8      5.068      8.475
REMARK  Name = 
REMARK  16 active torsions:
REMARK  status: ('A' for Active; 'I' for Inactive)
REMARK    1  A    between atoms: C_1  and  C_2
REMARK    2  A    between atoms: C_2  and  O_3
REMARK    3  A    between atoms: O_3  and  C_4
REMARK    4  A    between atoms: N_10  and  C_11
REMARK    5  A    between atoms: C_11  and  C_12
REMARK    6  A    between atoms: C_15  and  C_16
REMARK    7  A    between atoms: N_18  and  C_19
REMARK    8  A    between atoms: C_19  and  C_20
REMARK    9  A    between atoms: C_20  and  N_21
REMARK   10  A    between atoms: N_21  and  C_22
REMARK   11  A    between atoms: N_21  and  C_24
REMARK   12  A    between atoms: C_22  and  C_23
REMARK   13  A    between atoms: C_24  and  C_25
REMARK   14  A    between atoms: C_32  and  O_33
REMARK   15  A    between atoms: O_33  and  C_34
REMARK   16  A    between atoms: C_34  and  C_35
REMARK                            x       y       z     vdW  Elec       q    Type
REMARK                         _______ _______ _______ _____ _____    ______ ____
ROOT
ATOM      1  C   UNL     1       2.244   6.334  20.041  0.00  0.00    +0.000 A 
ATOM      2  C   UNL     1       1.650   7.348  20.797  0.00  0.00    +0.000 A 
ATOM      3  C   UNL     1       1.412   8.586  20.252  0.00  0.00    +0.000 A 
ATOM      4  N   UNL     1       0.695   9.503  20.991  0.00  0.00    +0.000 N 
ATOM      5  C   UNL     1       0.273  10.695  20.489  0.00  0.00    +0.000 A 
ATOM      6  S   UNL     1      -0.959  11.385  21.392  0.00  0.00    +0.000 S 
ATOM      7  N   UNL     1       0.885  11.117  19.308  0.00  0.00    +0.000 N 
ATOM      8  C   UNL     1       1.553  10.223  18.476  0.00  0.00    +0.000 A 
ATOM      9  O   UNL     1       1.930  10.478  17.320  0.00  0.00    +0.000 OA
ATOM     10  C   UNL     1       1.778   8.862  18.959  0.00  0.00    +0.000 A 
ATOM     11  C   UNL     1       2.360   7.865  18.164  0.00  0.00    +0.000 A 
ATOM     12  C   UNL     1       2.592   6.586  18.696  0.00  0.00    +0.000 A 
ATOM     13  H   UNL     1       0.311   9.231  21.888  0.00  0.00    +0.000 HD
ENDROOT
BRANCH   1  14
ATOM     14  O   UNL     1       2.473   5.090  20.596  0.00  0.00    +0.000 OA
BRANCH  14  16
ATOM     15  C   UNL     1       1.534   2.995  21.398  0.00  0.00    +0.000 C 
ATOM     16  C   UNL     1       1.312   4.245  20.601  0.00  0.00    +0.000 C 
ENDBRANCH  14  16
ENDBRANCH   1  14
BRANCH   7  17
ATOM     17  C   UNL     1       0.759  12.493  18.748  0.00  0.00    +0.000 C 
BRANCH  17  18
ATOM     18  C   UNL     1       1.841  13.443  19.212  0.00  0.00    +0.000 A 
ATOM     19  C   UNL     1       2.814  13.931  18.332  0.00  0.00    +0.000 A 
ATOM     20  C   UNL     1       3.988  14.486  18.842  0.00  0.00    +0.000 A 
ATOM     21  C   UNL     1       4.195  14.552  20.228  0.00  0.00    +0.000 A 
ATOM     22  C   UNL     1       3.140  14.257  21.089  0.00  0.00    +0.000 A 
ATOM     23  C   UNL     1       1.957  13.744  20.571  0.00  0.00    +0.000 A 
BRANCH  21  24
ATOM     24  C   UNL     1       5.580  14.784  20.713  0.00  0.00    +0.000 C 
ATOM     25  O   UNL     1       5.793  14.869  21.921  0.00  0.00    +0.000 OA
ATOM     26  N   UNL     1       6.579  14.960  19.777  0.00  0.00    +0.000 N 
ATOM     27  H   UNL     1       6.437  14.799  18.790  0.00  0.00    +0.000 HD
BRANCH  26  28
ATOM     28  C   UNL     1       7.919  15.250  20.230  0.00  0.00    +0.000 C 
BRANCH  28  29
ATOM     29  C   UNL     1       8.856  14.032  20.266  0.00  0.00    +0.000 C 
BRANCH  29  30
ATOM     30  N   UNL     1       9.866  13.922  19.186  0.00  0.00    +0.000 NA
BRANCH  30  31
ATOM     31  C   UNL     1       9.316  13.370  17.935  0.00  0.00    +0.000 C 
ATOM     32  C   UNL     1       8.910  11.896  17.945  0.00  0.00    +0.000 C 
ENDBRANCH  30  31
BRANCH  30  33
ATOM     33  C   UNL     1      10.519  15.236  19.009  0.00  0.00    +0.000 C 
ATOM     34  C   UNL     1      11.708  15.489  19.929  0.00  0.00    +0.000 C 
ENDBRANCH  30  33
ENDBRANCH  29  30
ENDBRANCH  28  29
ENDBRANCH  26  28
ENDBRANCH  21  24
ENDBRANCH  17  18
ENDBRANCH   7  17
BRANCH  12  35
ATOM     35  O   UNL     1       3.133   5.549  17.972  0.00  0.00    +0.000 OA
BRANCH  35  36
ATOM     36  C   UNL     1       4.541   5.607  17.702  0.00  0.00    +0.000 C 
ATOM     37  C   UNL     1       5.204   4.472  18.456  0.00  0.00    +0.000 C 
ENDBRANCH  35  36
ENDBRANCH  12  35
TORSDOF 12
ENDMDL
MODEL 6
REMARK VINA RESULT:      -6.6      5.226      8.501
REMARK  Name = 
REMARK  16 active torsions:
REMARK  status: ('A' for Active; 'I' for Inactive)
REMARK    1  A    between atoms: C_1  and  C_2
REMARK    2  A    between atoms: C_2  and  O_3
REMARK    3  A    between atoms: O_3  and  C_4
REMARK    4  A    between atoms: N_10  and  C_11
REMARK    5  A    between atoms: C_11  and  C_12
REMARK    6  A    between atoms: C_15  and  C_16
REMARK    7  A    between atoms: N_18  and  C_19
REMARK    8  A    between atoms: C_19  and  C_20
REMARK    9  A    between atoms: C_20  and  N_21
REMARK   10  A    between atoms: N_21  and  C_22
REMARK   11  A    between atoms: N_21  and  C_24
REMARK   12  A    between atoms: C_22  and  C_23
REMARK   13  A    between atoms: C_24  and  C_25
REMARK   14  A    between atoms: C_32  and  O_33
REMARK   15  A    between atoms: O_33  and  C_34
REMARK   16  A    between atoms: C_34  and  C_35
REMARK                            x       y       z     vdW  Elec       q    Type
REMARK                         _______ _______ _______ _____ _____    ______ ____
ROOT
ATOM      1  C   UNL     1       2.499   6.131  20.023  0.00  0.00    +0.000 A 
ATOM      2  C   UNL     1       1.978   7.130  20.850  0.00  0.00    +0.000 A 
ATOM      3  C   UNL     1       1.590   8.341  20.333  0.00  0.00    +0.000 A 
ATOM      4  N   UNL     1       0.951   9.236  21.165  0.00  0.00    +0.000 N 
ATOM      5  C   UNL     1       0.390  10.394  20.720  0.00  0.00    +0.000 A 
ATOM      6  S   UNL     1      -0.718  11.039  21.799  0.00  0.00    +0.000 S 
ATOM      7  N   UNL     1       0.784  10.821  19.451  0.00  0.00    +0.000 N 
ATOM      8  C   UNL     1       1.359   9.944  18.535  0.00  0.00    +0.000 A 
ATOM      9  O   UNL     1       1.534  10.193  17.331  0.00  0.00    +0.000 OA
ATOM     10  C   UNL     1       1.732   8.608  18.995  0.00  0.00    +0.000 A 
ATOM     11  C   UNL     1       2.233   7.624  18.130  0.00  0.00    +0.000 A 
ATOM     12  C   UNL     1       2.615   6.371  18.636  0.00  0.00    +0.000 A 
ATOM     13  H   UNL     1       0.729   8.965  22.115  0.00  0.00    +0.000 HD
ENDROOT
BRANCH   1  14
ATOM     14  O   UNL     1       2.879   4.913  20.550  0.00  0.00    +0.000 OA
BRANCH  14  16
ATOM     15  C   UNL     1       2.197   2.779  21.496  0.00  0.00    +0.000 C 
ATOM     16  C   UNL     1       1.790   4.172  21.121  0.00  0.00    +0.000 C 
ENDBRANCH  14  16
ENDBRANCH   1  14
BRANCH   7  17
ATOM     17  C   UNL     1       0.497  12.175  18.900  0.00  0.00    +0.000 C 
BRANCH  17  18
ATOM     18  C   UNL     1       1.581  13.193  19.182  0.00  0.00    +0.000 A 
ATOM     19  C   UNL     1       2.154  13.955  18.158  0.00  0.00    +0.000 A 
ATOM     20  C   UNL     1       3.375  14.594  18.375  0.00  0.00    +0.000 A 
ATOM     21  C   UNL     1       4.028  14.470  19.611  0.00  0.00    +0.000 A 
ATOM     22  C   UNL     1       3.354  13.886  20.681  0.00  0.00    +0.000 A 
ATOM     23  C   UNL     1       2.118  13.289  20.468  0.00  0.00    +0.000 A 
BRANCH  21  24
ATOM     24  C   UNL     1       5.469  14.829  19.675  0.00  0.00    +0.000 C 
ATOM     25  O   UNL     1       5.966  15.151  20.751  0.00  0.00    +0.000 OA
ATOM     26  N   UNL     1       6.189  14.847  18.497  0.00  0.00    +0.000 N 
ATOM     27  H   UNL     1       5.821  14.495  17.626  0.00  0.00    +0.000 HD
BRANCH  26  28
ATOM     28  C   UNL     1       7.574  15.255  18.531  0.00  0.00    +0.000 C 
BRANCH  28  29
ATOM     29  C   UNL     1       8.579  14.114  18.308  0.00  0.00    +0.000 C 
BRANCH  29  30
ATOM     30  N   UNL     1      10.003  14.396  18.611  0.00  0.00    +0.000 NA
BRANCH  30  31
ATOM     31  C   UNL     1      10.819  14.610  17.402  0.00  0.00    +0.000 C 
ATOM     32  C   UNL     1      11.362  16.020  17.171  0.00  0.00    +0.000 C 
ENDBRANCH  30  31
BRANCH  30  33
ATOM     33  C   UNL     1      10.072  15.518  19.570  0.00  0.00    +0.000 C 
ATOM     34  C   UNL     1      10.686  15.168  20.922  0.00  0.00    +0.000 C 
ENDBRANCH  30  33
ENDBRANCH  29  30
ENDBRANCH  28  29
ENDBRANCH  26  28
ENDBRANCH  21  24
ENDBRANCH  17  18
ENDBRANCH   7  17
BRANCH  12  35
ATOM     35  O   UNL     1       3.090   5.348  17.849  0.00  0.00    +0.000 OA
BRANCH  35  36
ATOM     36  C   UNL     1       2.149   4.342  17.447  0.00  0.00    +0.000 C 
ATOM     37  C   UNL     1       2.824   2.993  17.590  0.00  0.00    +0.000 C 
ENDBRANCH  35  36
ENDBRANCH  12  35
TORSDOF 12
ENDMDL
MODEL 7
REMARK VINA RESULT:      -6.6      1.084      1.272
REMARK  Name = 
REMARK  16 active torsions:
REMARK  status: ('A' for Active; 'I' for Inactive)
REMARK    1  A    between atoms: C_1  and  C_2
REMARK    2  A    between atoms: C_2  and  O_3
REMARK    3  A    between atoms: O_3  and  C_4
REMARK    4  A    between atoms: N_10  and  C_11
REMARK    5  A    between atoms: C_11  and  C_12
REMARK    6  A    between atoms: C_15  and  C_16
REMARK    7  A    between atoms: N_18  and  C_19
REMARK    8  A    between atoms: C_19  and  C_20
REMARK    9  A    between atoms: C_20  and  N_21
REMARK   10  A    between atoms: N_21  and  C_22
REMARK   11  A    between atoms: N_21  and  C_24
REMARK   12  A    between atoms: C_22  and  C_23
REMARK   13  A    between atoms: C_24  and  C_25
REMARK   14  A    between atoms: C_32  and  O_33
REMARK   15  A    between atoms: O_33  and  C_34
REMARK   16  A    between atoms: C_34  and  C_35
REMARK                            x       y       z     vdW  Elec       q    Type
REMARK                         _______ _______ _______ _____ _____    ______ ____
ROOT
ATOM      1  C   UNL     1       2.780   4.664  19.722  0.00  0.00    +0.000 A 
ATOM      2  C   UNL     1       2.252   5.639  20.572  0.00  0.00    +0.000 A 
ATOM      3  C   UNL     1       2.046   6.923  20.129  0.00  0.00    +0.000 A 
ATOM      4  N   UNL     1       1.392   7.807  20.960  0.00  0.00    +0.000 N 
ATOM      5  C   UNL     1       1.001   9.049  20.563  0.00  0.00    +0.000 A 
ATOM      6  S   UNL     1      -0.172   9.714  21.558  0.00  0.00    +0.000 S 
ATOM      7  N   UNL     1       1.591   9.536  19.395  0.00  0.00    +0.000 N 
ATOM      8  C   UNL     1       2.194   8.683  18.476  0.00  0.00    +0.000 A 
ATOM      9  O   UNL     1       2.544   9.011  17.329  0.00  0.00    +0.000 OA
ATOM     10  C   UNL     1       2.381   7.282  18.848  0.00  0.00    +0.000 A 
ATOM     11  C   UNL     1       2.896   6.327  17.961  0.00  0.00    +0.000 A 
ATOM     12  C   UNL     1       3.094   5.004  18.388  0.00  0.00    +0.000 A 
ATOM     13  H   UNL     1       1.027   7.483  21.847  0.00  0.00    +0.000 HD
ENDROOT
BRANCH   1  14
ATOM     14  O   UNL     1       2.977   3.374  20.174  0.00  0.00    +0.000 OA
BRANCH  14  16
ATOM     15  C   UNL     1       0.910   2.457  19.279  0.00  0.00    +0.000 C 
ATOM     16  C   UNL     1       1.757   2.688  20.494  0.00  0.00    +0.000 C 
ENDBRANCH  14  16
ENDBRANCH   1  14
BRANCH   7  17
ATOM     17  C   UNL     1       1.501  10.954  18.944  0.00  0.00    +0.000 C 
BRANCH  17  18
ATOM     18  C   UNL     1       0.086  11.423  18.683  0.00  0.00    +0.000 A 
ATOM     19  C   UNL     1      -0.392  12.631  19.205  0.00  0.00    +0.000 A 
ATOM     20  C   UNL     1      -1.768  12.856  19.269  0.00  0.00    +0.000 A 
ATOM     21  C   UNL     1      -2.667  11.879  18.818  0.00  0.00    +0.000 A 
ATOM     22  C   UNL     1      -2.180  10.778  18.116  0.00  0.00    +0.000 A 
ATOM     23  C   UNL     1      -0.808  10.581  18.018  0.00  0.00    +0.000 A 
BRANCH  21  24
ATOM     24  C   UNL     1      -4.085  11.986  19.249  0.00  0.00    +0.000 C 
ATOM     25  O   UNL     1      -4.972  11.525  18.535  0.00  0.00    +0.000 OA
ATOM     26  N   UNL     1      -4.361  12.663  20.419  0.00  0.00    +0.000 N 
ATOM     27  H   UNL     1      -3.642  12.963  21.061  0.00  0.00    +0.000 HD
BRANCH  26  28
ATOM     28  C   UNL     1      -5.738  12.834  20.820  0.00  0.00    +0.000 C 
BRANCH  28  29
ATOM     29  C   UNL     1      -5.921  13.439  22.221  0.00  0.00    +0.000 C 
BRANCH  29  30
ATOM     30  N   UNL     1      -6.244  14.884  22.298  0.00  0.00    +0.000 NA
BRANCH  30  31
ATOM     31  C   UNL     1      -6.169  15.562  20.991  0.00  0.00    +0.000 C 
ATOM     32  C   UNL     1      -5.038  16.572  20.796  0.00  0.00    +0.000 C 
ENDBRANCH  30  31
BRANCH  30  33
ATOM     33  C   UNL     1      -7.551  15.046  22.967  0.00  0.00    +0.000 C 
ATOM     34  C   UNL     1      -7.909  16.481  23.336  0.00  0.00    +0.000 C 
ENDBRANCH  30  33
ENDBRANCH  29  30
ENDBRANCH  28  29
ENDBRANCH  26  28
ENDBRANCH  21  24
ENDBRANCH  17  18
ENDBRANCH   7  17
BRANCH  12  35
ATOM     35  O   UNL     1       3.569   4.005  17.570  0.00  0.00    +0.000 OA
BRANCH  35  36
ATOM     36  C   UNL     1       4.298   4.409  16.401  0.00  0.00    +0.000 C 
ATOM     37  C   UNL     1       5.736   3.967  16.578  0.00  0.00    +0.000 C 
ENDBRANCH  35  36
ENDBRANCH  12  35
TORSDOF 12
ENDMDL
MODEL 8
REMARK VINA RESULT:      -6.6      4.722      7.025
REMARK  Name = 
REMARK  16 active torsions:
REMARK  status: ('A' for Active; 'I' for Inactive)
REMARK    1  A    between atoms: C_1  and  C_2
REMARK    2  A    between atoms: C_2  and  O_3
REMARK    3  A    between atoms: O_3  and  C_4
REMARK    4  A    between atoms: N_10  and  C_11
REMARK    5  A    between atoms: C_11  and  C_12
REMARK    6  A    between atoms: C_15  and  C_16
REMARK    7  A    between atoms: N_18  and  C_19
REMARK    8  A    between atoms: C_19  and  C_20
REMARK    9  A    between atoms: C_20  and  N_21
REMARK   10  A    between atoms: N_21  and  C_22
REMARK   11  A    between atoms: N_21  and  C_24
REMARK   12  A    between atoms: C_22  and  C_23
REMARK   13  A    between atoms: C_24  and  C_25
REMARK   14  A    between atoms: C_32  and  O_33
REMARK   15  A    between atoms: O_33  and  C_34
REMARK   16  A    between atoms: C_34  and  C_35
REMARK                            x       y       z     vdW  Elec       q    Type
REMARK                         _______ _______ _______ _____ _____    ______ ____
ROOT
ATOM      1  C   UNL     1       3.877   4.978  19.056  0.00  0.00    +0.000 A 
ATOM      2  C   UNL     1       3.223   5.703  20.054  0.00  0.00    +0.000 A 
ATOM      3  C   UNL     1       2.571   6.875  19.761  0.00  0.00    +0.000 A 
ATOM      4  N   UNL     1       1.822   7.476  20.751  0.00  0.00    +0.000 N 
ATOM      5  C   UNL     1       1.016   8.549  20.524  0.00  0.00    +0.000 A 
ATOM      6  S   UNL     1      -0.127   8.773  21.729  0.00  0.00    +0.000 S 
ATOM      7  N   UNL     1       1.236   9.245  19.334  0.00  0.00    +0.000 N 
ATOM      8  C   UNL     1       1.913   8.661  18.266  0.00  0.00    +0.000 A 
ATOM      9  O   UNL     1       1.959   9.129  17.116  0.00  0.00    +0.000 OA
ATOM     10  C   UNL     1       2.572   7.374  18.483  0.00  0.00    +0.000 A 
ATOM     11  C   UNL     1       3.201   6.665  17.451  0.00  0.00    +0.000 A 
ATOM     12  C   UNL     1       3.855   5.453  17.727  0.00  0.00    +0.000 A 
ATOM     13  H   UNL     1       1.720   7.018  21.647  0.00  0.00    +0.000 HD
ENDROOT
BRANCH   1  14
ATOM     14  O   UNL     1       4.525   3.796  19.359  0.00  0.00    +0.000 OA
BRANCH  14  16
ATOM     15  C   UNL     1       3.335   1.839  18.541  0.00  0.00    +0.000 C 
ATOM     16  C   UNL     1       3.630   2.728  19.710  0.00  0.00    +0.000 C 
ENDBRANCH  14  16
ENDBRANCH   1  14
BRANCH   7  17
ATOM     17  C   UNL     1       0.651  10.581  19.028  0.00  0.00    +0.000 C 
BRANCH  17  18
ATOM     18  C   UNL     1       1.591  11.735  19.299  0.00  0.00    +0.000 A 
ATOM     19  C   UNL     1       1.602  12.395  20.533  0.00  0.00    +0.000 A 
ATOM     20  C   UNL     1       2.188  13.658  20.634  0.00  0.00    +0.000 A 
ATOM     21  C   UNL     1       2.759  14.264  19.506  0.00  0.00    +0.000 A 
ATOM     22  C   UNL     1       2.926  13.517  18.342  0.00  0.00    +0.000 A 
ATOM     23  C   UNL     1       2.378  12.243  18.262  0.00  0.00    +0.000 A 
BRANCH  21  24
ATOM     24  C   UNL     1       3.017  15.727  19.559  0.00  0.00    +0.000 C 
ATOM     25  O   UNL     1       2.548  16.457  18.689  0.00  0.00    +0.000 OA
ATOM     26  N   UNL     1       3.835  16.209  20.560  0.00  0.00    +0.000 N 
ATOM     27  H   UNL     1       4.149  15.640  21.332  0.00  0.00    +0.000 HD
BRANCH  26  28
ATOM     28  C   UNL     1       4.149  17.619  20.589  0.00  0.00    +0.000 C 
BRANCH  28  29
ATOM     29  C   UNL     1       5.341  17.986  21.486  0.00  0.00    +0.000 C 
BRANCH  29  30
ATOM     30  N   UNL     1       6.699  17.769  20.932  0.00  0.00    +0.000 NA
BRANCH  30  31
ATOM     31  C   UNL     1       7.492  16.799  21.710  0.00  0.00    +0.000 C 
ATOM     32  C   UNL     1       8.564  17.366  22.641  0.00  0.00    +0.000 C 
ENDBRANCH  30  31
BRANCH  30  33
ATOM     33  C   UNL     1       6.579  17.414  19.503  0.00  0.00    +0.000 C 
ATOM     34  C   UNL     1       7.878  17.505  18.709  0.00  0.00    +0.000 C 
ENDBRANCH  30  33
ENDBRANCH  29  30
ENDBRANCH  28  29
ENDBRANCH  26  28
ENDBRANCH  21  24
ENDBRANCH  17  18
ENDBRANCH   7  17
BRANCH  12  35
ATOM     35  O   UNL     1       4.473   4.688  16.764  0.00  0.00    +0.000 OA
BRANCH  35  36
ATOM     36  C   UNL     1       5.368   5.362  15.868  0.00  0.00    +0.000 C 
ATOM     37  C   UNL     1       5.872   4.344  14.865  0.00  0.00    +0.000 C 
ENDBRANCH  35  36
ENDBRANCH  12  35
TORSDOF 12
ENDMDL
MODEL 9
REMARK VINA RESULT:      -6.5      4.470      7.493
REMARK  Name = 
REMARK  16 active torsions:
REMARK  status: ('A' for Active; 'I' for Inactive)
REMARK    1  A    between atoms: C_1  and  C_2
REMARK    2  A    between atoms: C_2  and  O_3
REMARK    3  A    between atoms: O_3  and  C_4
REMARK    4  A    between atoms: N_10  and  C_11
REMARK    5  A    between atoms: C_11  and  C_12
REMARK    6  A    between atoms: C_15  and  C_16
REMARK    7  A    between atoms: N_18  and  C_19
REMARK    8  A    between atoms: C_19  and  C_20
REMARK    9  A    between atoms: C_20  and  N_21
REMARK   10  A    between atoms: N_21  and  C_22
REMARK   11  A    between atoms: N_21  and  C_24
REMARK   12  A    between atoms: C_22  and  C_23
REMARK   13  A    between atoms: C_24  and  C_25
REMARK   14  A    between atoms: C_32  and  O_33
REMARK   15  A    between atoms: O_33  and  C_34
REMARK   16  A    between atoms: C_34  and  C_35
REMARK                            x       y       z     vdW  Elec       q    Type
REMARK                         _______ _______ _______ _____ _____    ______ ____
ROOT
ATOM      1  C   UNL     1       3.926   5.445  19.066  0.00  0.00    +0.000 A 
ATOM      2  C   UNL     1       3.223   6.119  20.067  0.00  0.00    +0.000 A 
ATOM      3  C   UNL     1       2.458   7.220  19.770  0.00  0.00    +0.000 A 
ATOM      4  N   UNL     1       1.672   7.762  20.766  0.00  0.00    +0.000 N 
ATOM      5  C   UNL     1       0.764   8.750  20.541  0.00  0.00    +0.000 A 
ATOM      6  S   UNL     1      -0.375   8.882  21.764  0.00  0.00    +0.000 S 
ATOM      7  N   UNL     1       0.896   9.445  19.338  0.00  0.00    +0.000 N 
ATOM      8  C   UNL     1       1.607   8.914  18.266  0.00  0.00    +0.000 A 
ATOM      9  O   UNL     1       1.589   9.366  17.109  0.00  0.00    +0.000 OA
ATOM     10  C   UNL     1       2.389   7.698  18.486  0.00  0.00    +0.000 A 
ATOM     11  C   UNL     1       3.065   7.037  17.452  0.00  0.00    +0.000 A 
ATOM     12  C   UNL     1       3.837   5.897  17.731  0.00  0.00    +0.000 A 
ATOM     13  H   UNL     1       1.629   7.308  21.670  0.00  0.00    +0.000 HD
ENDROOT
BRANCH   1  14
ATOM     14  O   UNL     1       4.688   4.334  19.372  0.00  0.00    +0.000 OA
BRANCH  14  16
ATOM     15  C   UNL     1       3.409   2.419  18.591  0.00  0.00    +0.000 C 
ATOM     16  C   UNL     1       3.907   3.198  19.771  0.00  0.00    +0.000 C 
ENDBRANCH  14  16
ENDBRANCH   1  14
BRANCH   7  17
ATOM     17  C   UNL     1       0.182  10.715  19.025  0.00  0.00    +0.000 C 
BRANCH  17  18
ATOM     18  C   UNL     1       0.898  11.955  19.516  0.00  0.00    +0.000 A 
ATOM     19  C   UNL     1       1.976  12.504  18.814  0.00  0.00    +0.000 A 
ATOM     20  C   UNL     1       2.836  13.394  19.458  0.00  0.00    +0.000 A 
ATOM     21  C   UNL     1       2.624  13.735  20.802  0.00  0.00    +0.000 A 
ATOM     22  C   UNL     1       1.439  13.348  21.424  0.00  0.00    +0.000 A 
ATOM     23  C   UNL     1       0.565  12.495  20.761  0.00  0.00    +0.000 A 
BRANCH  21  24
ATOM     24  C   UNL     1       3.748  14.360  21.546  0.00  0.00    +0.000 C 
ATOM     25  O   UNL     1       3.569  14.756  22.696  0.00  0.00    +0.000 OA
ATOM     26  N   UNL     1       4.950  14.532  20.889  0.00  0.00    +0.000 N 
ATOM     27  H   UNL     1       5.140  14.130  19.983  0.00  0.00    +0.000 HD
BRANCH  26  28
ATOM     28  C   UNL     1       6.033  15.196  21.575  0.00  0.00    +0.000 C 
BRANCH  28  29
ATOM     29  C   UNL     1       7.402  14.516  21.411  0.00  0.00    +0.000 C 
BRANCH  29  30
ATOM     30  N   UNL     1       8.061  14.631  20.088  0.00  0.00    +0.000 NA
BRANCH  30  31
ATOM     31  C   UNL     1       8.717  15.936  19.882  0.00  0.00    +0.000 C 
ATOM     32  C   UNL     1       8.134  16.844  18.800  0.00  0.00    +0.000 C 
ENDBRANCH  30  31
BRANCH  30  33
ATOM     33  C   UNL     1       8.973  13.483  19.908  0.00  0.00    +0.000 C 
ATOM     34  C   UNL     1      10.399  13.715  20.397  0.00  0.00    +0.000 C 
ENDBRANCH  30  33
ENDBRANCH  29  30
ENDBRANCH  28  29
ENDBRANCH  26  28
ENDBRANCH  21  24
ENDBRANCH  17  18
ENDBRANCH   7  17
BRANCH  12  35
ATOM     35  O   UNL     1       4.507   5.179  16.768  0.00  0.00    +0.000 OA
BRANCH  35  36
ATOM     36  C   UNL     1       5.729   5.741  16.268  0.00  0.00    +0.000 C 
ATOM     37  C   UNL     1       6.037   5.074  14.943  0.00  0.00    +0.000 C 
ENDBRANCH  35  36
ENDBRANCH  12  35
TORSDOF 12
ENDMDL
