MODEL 1
REMARK VINA RESULT:      -6.9      0.000      0.000
REMARK  Name = 
REMARK  9 active torsions:
REMARK  status: ('A' for Active; 'I' for Inactive)
REMARK    1  A    between atoms: C_1  and  O_2
REMARK    2  A    between atoms: O_2  and  C_3
REMARK    3  A    between atoms: C_5  and  C_6
REMARK    4  A    between atoms: C_6  and  C_7
REMARK    5  A    between atoms: C_11  and  O_12
REMARK    6  A    between atoms: O_12  and  C_13
REMARK    7  A    between atoms: C_13  and  C_14
REMARK    8  A    between atoms: C_14  and  C_15
REMARK    9  A    between atoms: C_15  and  N_16
REMARK                            x       y       z     vdW  Elec       q    Type
REMARK                         _______ _______ _______ _____ _____    ______ ____
ROOT
ATOM      1  C   UNL     1       6.983   5.344  17.117  0.00  0.00    +0.000 A 
ATOM      2  C   UNL     1       7.405   5.287  15.781  0.00  0.00    +0.000 A 
ATOM      3  C   UNL     1       6.659   4.593  14.827  0.00  0.00    +0.000 A 
ATOM      4  C   UNL     1       5.519   3.894  15.227  0.00  0.00    +0.000 A 
ATOM      5  C   UNL     1       5.135   3.888  16.572  0.00  0.00    +0.000 A 
ATOM      6  C   UNL     1       5.851   4.616  17.530  0.00  0.00    +0.000 A 
ENDROOT
BRANCH   3   7
ATOM      7  C   UNL     1       7.013   4.626  13.382  0.00  0.00    +0.000 C 
ATOM      8  C   UNL     1       6.382   3.634  12.435  0.00  0.00    +0.000 C 
ATOM      9  O   UNL     1       7.842   5.442  12.984  0.00  0.00    +0.000 OA
ENDBRANCH   3   7
BRANCH   1  11
ATOM     10  C   UNL     1       7.734   7.474  17.824  0.00  0.00    +0.000 C 
ATOM     11  O   UNL     1       7.726   6.059  18.020  0.00  0.00    +0.000 OA
ENDBRANCH   1  11
BRANCH   6  12
ATOM     12  O   UNL     1       5.304   4.520  18.788  0.00  0.00    +0.000 OA
BRANCH  12  13
ATOM     13  C   UNL     1       4.804   5.718  19.370  0.00  0.00    +0.000 C 
BRANCH  13  14
ATOM     14  C   UNL     1       3.519   6.165  18.675  0.00  0.00    +0.000 C 
BRANCH  14  15
ATOM     15  C   UNL     1       2.390   6.168  19.717  0.00  0.00    +0.000 C 
BRANCH  15  16
ATOM     16  N   UNL     1       1.625   4.920  19.834  0.00  0.00    +0.000 NA
ATOM     17  C   UNL     1       1.745   4.081  18.631  0.00  0.00    +0.000 C 
ATOM     18  C   UNL     1       0.934   2.792  18.774  0.00  0.00    +0.000 C 
ATOM     19  C   UNL     1       1.357   2.002  20.005  0.00  0.00    +0.000 C 
ATOM     20  C   UNL     1       1.315   2.890  21.242  0.00  0.00    +0.000 C 
ATOM     21  C   UNL     1       2.097   4.184  21.024  0.00  0.00    +0.000 C 
ENDBRANCH  15  16
ENDBRANCH  14  15
ENDBRANCH  13  14
ENDBRANCH  12  13
ENDBRANCH   6  12
TORSDOF 7
ENDMDL
MODEL 2
REMARK VINA RESULT:      -6.9      2.004      3.512
REMARK  Name = 
REMARK  9 active torsions:
REMARK  status: ('A' for Active; 'I' for Inactive)
REMARK    1  A    between atoms: C_1  and  O_2
REMARK    2  A    between atoms: O_2  and  C_3
REMARK    3  A    between atoms: C_5  and  C_6
REMARK    4  A    between atoms: C_6  and  C_7
REMARK    5  A    between atoms: C_11  and  O_12
REMARK    6  A    between atoms: O_12  and  C_13
REMARK    7  A    between atoms: C_13  and  C_14
REMARK    8  A    between atoms: C_14  and  C_15
REMARK    9  A    between atoms: C_15  and  N_16
REMARK                            x       y       z     vdW  Elec       q    Type
REMARK                         _______ _______ _______ _____ _____    ______ ____
ROOT
ATOM      1  C   UNL     1       7.613   5.087  13.479  0.00  0.00    +0.000 A 
ATOM      2  C   UNL     1       7.037   4.260  12.503  0.00  0.00    +0.000 A 
ATOM      3  C   UNL     1       5.885   3.523  12.782  0.00  0.00    +0.000 A 
ATOM      4  C   UNL     1       5.345   3.561  14.069  0.00  0.00    +0.000 A 
ATOM      5  C   UNL     1       5.958   4.327  15.065  0.00  0.00    +0.000 A 
ATOM      6  C   UNL     1       7.089   5.104  14.785  0.00  0.00    +0.000 A 
ENDROOT
BRANCH   3   7
ATOM      7  C   UNL     1       5.182   2.743  11.728  0.00  0.00    +0.000 C 
ATOM      8  C   UNL     1       3.894   3.269  11.143  0.00  0.00    +0.000 C 
ATOM      9  O   UNL     1       5.644   1.661  11.371  0.00  0.00    +0.000 OA
ENDBRANCH   3   7
BRANCH   1  11
ATOM     10  C   UNL     1       8.679   6.489  11.899  0.00  0.00    +0.000 C 
ATOM     11  O   UNL     1       8.727   5.818  13.159  0.00  0.00    +0.000 OA
ENDBRANCH   1  11
BRANCH   6  12
ATOM     12  O   UNL     1       7.527   5.815  15.877  0.00  0.00    +0.000 OA
BRANCH  12  13
ATOM     13  C   UNL     1       6.566   6.113  16.884  0.00  0.00    +0.000 C 
BRANCH  13  14
ATOM     14  C   UNL     1       7.075   5.694  18.262  0.00  0.00    +0.000 C 
BRANCH  14  15
ATOM     15  C   UNL     1       5.897   5.097  19.045  0.00  0.00    +0.000 C 
BRANCH  15  16
ATOM     16  N   UNL     1       4.649   4.926  18.289  0.00  0.00    +0.000 NA
ATOM     17  C   UNL     1       4.208   3.523  18.255  0.00  0.00    +0.000 C 
ATOM     18  C   UNL     1       2.913   3.369  17.456  0.00  0.00    +0.000 C 
ATOM     19  C   UNL     1       1.806   4.251  18.018  0.00  0.00    +0.000 C 
ATOM     20  C   UNL     1       2.285   5.692  18.133  0.00  0.00    +0.000 C 
ATOM     21  C   UNL     1       3.607   5.779  18.895  0.00  0.00    +0.000 C 
ENDBRANCH  15  16
ENDBRANCH  14  15
ENDBRANCH  13  14
ENDBRANCH  12  13
ENDBRANCH   6  12
TORSDOF 7
ENDMDL
MODEL 3
REMARK VINA RESULT:      -6.7      1.248      2.548
REMARK  Name = 
REMARK  9 active torsions:
REMARK  status: ('A' for Active; 'I' for Inactive)
REMARK    1  A    between atoms: C_1  and  O_2
REMARK    2  A    between atoms: O_2  and  C_3
REMARK    3  A    between atoms: C_5  and  C_6
REMARK    4  A    between atoms: C_6  and  C_7
REMARK    5  A    between atoms: C_11  and  O_12
REMARK    6  A    between atoms: O_12  and  C_13
REMARK    7  A    between atoms: C_13  and  C_14
REMARK    8  A    between atoms: C_14  and  C_15
REMARK    9  A    between atoms: C_15  and  N_16
REMARK                            x       y       z     vdW  Elec       q    Type
REMARK                         _______ _______ _______ _____ _____    ______ ____
ROOT
ATOM      1  C   UNL     1       6.969   4.553  17.550  0.00  0.00    +0.000 A 
ATOM      2  C   UNL     1       7.383   4.601  16.211  0.00  0.00    +0.000 A 
ATOM      3  C   UNL     1       6.473   4.380  15.176  0.00  0.00    +0.000 A 
ATOM      4  C   UNL     1       5.155   4.040  15.485  0.00  0.00    +0.000 A 
ATOM      5  C   UNL     1       4.757   3.919  16.820  0.00  0.00    +0.000 A 
ATOM      6  C   UNL     1       5.649   4.181  17.867  0.00  0.00    +0.000 A 
ENDROOT
BRANCH   3   7
ATOM      7  C   UNL     1       6.856   4.555  13.748  0.00  0.00    +0.000 C 
ATOM      8  C   UNL     1       6.278   3.632  12.702  0.00  0.00    +0.000 C 
ATOM      9  O   UNL     1       7.665   5.429  13.445  0.00  0.00    +0.000 OA
ENDBRANCH   3   7
BRANCH   1  11
ATOM     10  C   UNL     1       7.928   6.153  19.007  0.00  0.00    +0.000 C 
ATOM     11  O   UNL     1       7.885   4.804  18.539  0.00  0.00    +0.000 OA
ENDBRANCH   1  11
BRANCH   6  12
ATOM     12  O   UNL     1       5.068   4.046  19.105  0.00  0.00    +0.000 OA
BRANCH  12  13
ATOM     13  C   UNL     1       4.421   2.810  19.386  0.00  0.00    +0.000 C 
BRANCH  13  14
ATOM     14  C   UNL     1       3.109   3.041  20.134  0.00  0.00    +0.000 C 
BRANCH  14  15
ATOM     15  C   UNL     1       2.062   3.529  19.121  0.00  0.00    +0.000 C 
BRANCH  15  16
ATOM     16  N   UNL     1       1.657   4.935  19.248  0.00  0.00    +0.000 NA
ATOM     17  C   UNL     1       1.935   5.473  20.589  0.00  0.00    +0.000 C 
ATOM     18  C   UNL     1       1.496   6.934  20.699  0.00  0.00    +0.000 C 
ATOM     19  C   UNL     1       2.168   7.798  19.640  0.00  0.00    +0.000 C 
ATOM     20  C   UNL     1       1.953   7.199  18.256  0.00  0.00    +0.000 C 
ATOM     21  C   UNL     1       2.359   5.727  18.219  0.00  0.00    +0.000 C 
ENDBRANCH  15  16
ENDBRANCH  14  15
ENDBRANCH  13  14
ENDBRANCH  12  13
ENDBRANCH   6  12
TORSDOF 7
ENDMDL
MODEL 4
REMARK VINA RESULT:      -6.7      2.206      3.602
REMARK  Name = 
REMARK  9 active torsions:
REMARK  status: ('A' for Active; 'I' for Inactive)
REMARK    1  A    between atoms: C_1  and  O_2
REMARK    2  A    between atoms: O_2  and  C_3
REMARK    3  A    between atoms: C_5  and  C_6
REMARK    4  A    between atoms: C_6  and  C_7
REMARK    5  A    between atoms: C_11  and  O_12
REMARK    6  A    between atoms: O_12  and  C_13
REMARK    7  A    between atoms: C_13  and  C_14
REMARK    8  A    between atoms: C_14  and  C_15
REMARK    9  A    between atoms: C_15  and  N_16
REMARK                            x       y       z     vdW  Elec       q    Type
REMARK                         _______ _______ _______ _____ _____    ______ ____
ROOT
ATOM      1  C   UNL     1       6.185   4.529  18.150  0.00  0.00    +0.000 A 
ATOM      2  C   UNL     1       6.873   4.685  16.937  0.00  0.00    +0.000 A 
ATOM      3  C   UNL     1       6.238   4.431  15.721  0.00  0.00    +0.000 A 
ATOM      4  C   UNL     1       4.927   3.950  15.721  0.00  0.00    +0.000 A 
ATOM      5  C   UNL     1       4.263   3.723  16.931  0.00  0.00    +0.000 A 
ATOM      6  C   UNL     1       4.874   4.016  18.156  0.00  0.00    +0.000 A 
ENDROOT
BRANCH   3   7
ATOM      7  C   UNL     1       6.902   4.713  14.419  0.00  0.00    +0.000 C 
ATOM      8  C   UNL     1       6.500   3.933  13.191  0.00  0.00    +0.000 C 
ATOM      9  O   UNL     1       7.793   5.558  14.369  0.00  0.00    +0.000 OA
ENDBRANCH   3   7
BRANCH   1  11
ATOM     10  C   UNL     1       7.834   5.832  19.239  0.00  0.00    +0.000 C 
ATOM     11  O   UNL     1       6.833   4.817  19.324  0.00  0.00    +0.000 OA
ENDBRANCH   1  11
BRANCH   6  12
ATOM     12  O   UNL     1       4.055   3.763  19.230  0.00  0.00    +0.000 OA
BRANCH  12  13
ATOM     13  C   UNL     1       2.901   4.584  19.372  0.00  0.00    +0.000 C 
BRANCH  13  14
ATOM     14  C   UNL     1       3.296   6.034  19.647  0.00  0.00    +0.000 C 
BRANCH  14  15
ATOM     15  C   UNL     1       2.782   6.897  18.486  0.00  0.00    +0.000 C 
BRANCH  15  16
ATOM     16  N   UNL     1       1.754   7.887  18.832  0.00  0.00    +0.000 NA
ATOM     17  C   UNL     1       1.719   8.169  20.275  0.00  0.00    +0.000 C 
ATOM     18  C   UNL     1       0.636   9.195  20.612  0.00  0.00    +0.000 C 
ATOM     19  C   UNL     1       0.833  10.488  19.831  0.00  0.00    +0.000 C 
ATOM     20  C   UNL     1       0.952  10.193  18.342  0.00  0.00    +0.000 C 
ATOM     21  C   UNL     1       2.011   9.126  18.070  0.00  0.00    +0.000 C 
ENDBRANCH  15  16
ENDBRANCH  14  15
ENDBRANCH  13  14
ENDBRANCH  12  13
ENDBRANCH   6  12
TORSDOF 7
ENDMDL
MODEL 5
REMARK VINA RESULT:      -6.7      3.343      4.795
REMARK  Name = 
REMARK  9 active torsions:
REMARK  status: ('A' for Active; 'I' for Inactive)
REMARK    1  A    between atoms: C_1  and  O_2
REMARK    2  A    between atoms: O_2  and  C_3
REMARK    3  A    between atoms: C_5  and  C_6
REMARK    4  A    between atoms: C_6  and  C_7
REMARK    5  A    between atoms: C_11  and  O_12
REMARK    6  A    between atoms: O_12  and  C_13
REMARK    7  A    between atoms: C_13  and  C_14
REMARK    8  A    between atoms: C_14  and  C_15
REMARK    9  A    between atoms: C_15  and  N_16
REMARK                            x       y       z     vdW  Elec       q    Type
REMARK                         _______ _______ _______ _____ _____    ______ ____
ROOT
ATOM      1  C   UNL     1       4.208   4.234  17.465  0.00  0.00    +0.000 A 
ATOM      2  C   UNL     1       4.997   3.972  16.335  0.00  0.00    +0.000 A 
ATOM      3  C   UNL     1       5.535   5.017  15.583  0.00  0.00    +0.000 A 
ATOM      4  C   UNL     1       5.224   6.335  15.924  0.00  0.00    +0.000 A 
ATOM      5  C   UNL     1       4.378   6.599  17.006  0.00  0.00    +0.000 A 
ATOM      6  C   UNL     1       3.867   5.560  17.794  0.00  0.00    +0.000 A 
ENDROOT
BRANCH   3   7
ATOM      7  C   UNL     1       6.480   4.767  14.461  0.00  0.00    +0.000 C 
ATOM      8  C   UNL     1       6.112   3.779  13.381  0.00  0.00    +0.000 C 
ATOM      9  O   UNL     1       7.564   5.346  14.447  0.00  0.00    +0.000 OA
ENDBRANCH   3   7
BRANCH   1  11
ATOM     10  C   UNL     1       2.505   2.609  17.711  0.00  0.00    +0.000 C 
ATOM     11  O   UNL     1       3.721   3.181  18.195  0.00  0.00    +0.000 OA
ENDBRANCH   1  11
BRANCH   6  12
ATOM     12  O   UNL     1       3.088   6.015  18.830  0.00  0.00    +0.000 OA
BRANCH  12  13
ATOM     13  C   UNL     1       2.736   7.394  18.819  0.00  0.00    +0.000 C 
BRANCH  13  14
ATOM     14  C   UNL     1       1.735   7.708  19.929  0.00  0.00    +0.000 C 
BRANCH  14  15
ATOM     15  C   UNL     1       1.259   9.157  19.748  0.00  0.00    +0.000 C 
BRANCH  15  16
ATOM     16  N   UNL     1       0.847   9.852  20.974  0.00  0.00    +0.000 NA
ATOM     17  C   UNL     1      -0.240  10.813  20.728  0.00  0.00    +0.000 C 
ATOM     18  C   UNL     1      -0.646  11.530  22.016  0.00  0.00    +0.000 C 
ATOM     19  C   UNL     1      -1.058  10.540  23.097  0.00  0.00    +0.000 C 
ATOM     20  C   UNL     1       0.029   9.493  23.298  0.00  0.00    +0.000 C 
ATOM     21  C   UNL     1       0.430   8.848  21.973  0.00  0.00    +0.000 C 
ENDBRANCH  15  16
ENDBRANCH  14  15
ENDBRANCH  13  14
ENDBRANCH  12  13
ENDBRANCH   6  12
TORSDOF 7
ENDMDL
MODEL 6
REMARK VINA RESULT:      -6.7      1.500      1.846
REMARK  Name = 
REMARK  9 active torsions:
REMARK  status: ('A' for Active; 'I' for Inactive)
REMARK    1  A    between atoms: C_1  and  O_2
REMARK    2  A    between atoms: O_2  and  C_3
REMARK    3  A    between atoms: C_5  and  C_6
REMARK    4  A    between atoms: C_6  and  C_7
REMARK    5  A    between atoms: C_11  and  O_12
REMARK    6  A    between atoms: O_12  and  C_13
REMARK    7  A    between atoms: C_13  and  C_14
REMARK    8  A    between atoms: C_14  and  C_15
REMARK    9  A    between atoms: C_15  and  N_16
REMARK                            x       y       z     vdW  Elec       q    Type
REMARK                         _______ _______ _______ _____ _____    ______ ____
ROOT
ATOM      1  C   UNL     1       6.154   5.347  17.994  0.00  0.00    +0.000 A 
ATOM      2  C   UNL     1       6.749   4.884  16.810  0.00  0.00    +0.000 A 
ATOM      3  C   UNL     1       6.248   5.265  15.565  0.00  0.00    +0.000 A 
ATOM      4  C   UNL     1       5.102   6.059  15.503  0.00  0.00    +0.000 A 
ATOM      5  C   UNL     1       4.463   6.462  16.680  0.00  0.00    +0.000 A 
ATOM      6  C   UNL     1       4.981   6.122  17.936  0.00  0.00    +0.000 A 
ENDROOT
BRANCH   3   7
ATOM      7  C   UNL     1       6.938   4.896  14.299  0.00  0.00    +0.000 C 
ATOM      8  C   UNL     1       6.338   3.839  13.403  0.00  0.00    +0.000 C 
ATOM      9  O   UNL     1       8.005   5.435  14.016  0.00  0.00    +0.000 OA
ENDBRANCH   3   7
BRANCH   1  11
ATOM     10  C   UNL     1       7.915   5.622  19.551  0.00  0.00    +0.000 C 
ATOM     11  O   UNL     1       6.692   4.974  19.199  0.00  0.00    +0.000 OA
ENDBRANCH   1  11
BRANCH   6  12
ATOM     12  O   UNL     1       4.240   6.637  18.973  0.00  0.00    +0.000 OA
BRANCH  12  13
ATOM     13  C   UNL     1       2.863   6.894  18.719  0.00  0.00    +0.000 C 
BRANCH  13  14
ATOM     14  C   UNL     1       2.063   6.898  20.021  0.00  0.00    +0.000 C 
BRANCH  14  15
ATOM     15  C   UNL     1       2.119   5.485  20.620  0.00  0.00    +0.000 C 
BRANCH  15  16
ATOM     16  N   UNL     1       2.117   4.380  19.653  0.00  0.00    +0.000 NA
ATOM     17  C   UNL     1       3.274   3.488  19.828  0.00  0.00    +0.000 C 
ATOM     18  C   UNL     1       3.256   2.352  18.804  0.00  0.00    +0.000 C 
ATOM     19  C   UNL     1       1.962   1.552  18.885  0.00  0.00    +0.000 C 
ATOM     20  C   UNL     1       0.759   2.481  18.788  0.00  0.00    +0.000 C 
ATOM     21  C   UNL     1       0.857   3.625  19.797  0.00  0.00    +0.000 C 
ENDBRANCH  15  16
ENDBRANCH  14  15
ENDBRANCH  13  14
ENDBRANCH  12  13
ENDBRANCH   6  12
TORSDOF 7
ENDMDL
MODEL 7
REMARK VINA RESULT:      -6.6      3.154      4.606
REMARK  Name = 
REMARK  9 active torsions:
REMARK  status: ('A' for Active; 'I' for Inactive)
REMARK    1  A    between atoms: C_1  and  O_2
REMARK    2  A    between atoms: O_2  and  C_3
REMARK    3  A    between atoms: C_5  and  C_6
REMARK    4  A    between atoms: C_6  and  C_7
REMARK    5  A    between atoms: C_11  and  O_12
REMARK    6  A    between atoms: O_12  and  C_13
REMARK    7  A    between atoms: C_13  and  C_14
REMARK    8  A    between atoms: C_14  and  C_15
REMARK    9  A    between atoms: C_15  and  N_16
REMARK                            x       y       z     vdW  Elec       q    Type
REMARK                         _______ _______ _______ _____ _____    ______ ____
ROOT
ATOM      1  C   UNL     1       5.342   4.649  18.148  0.00  0.00    +0.000 A 
ATOM      2  C   UNL     1       5.914   4.291  16.918  0.00  0.00    +0.000 A 
ATOM      3  C   UNL     1       5.874   5.168  15.833  0.00  0.00    +0.000 A 
ATOM      4  C   UNL     1       5.198   6.382  15.959  0.00  0.00    +0.000 A 
ATOM      5  C   UNL     1       4.564   6.711  17.161  0.00  0.00    +0.000 A 
ATOM      6  C   UNL     1       4.633   5.859  18.270  0.00  0.00    +0.000 A 
ENDROOT
BRANCH   3   7
ATOM      7  C   UNL     1       6.586   4.868  14.560  0.00  0.00    +0.000 C 
ATOM      8  C   UNL     1       5.996   3.870  13.593  0.00  0.00    +0.000 C 
ATOM      9  O   UNL     1       7.662   5.414  14.329  0.00  0.00    +0.000 OA
ENDBRANCH   3   7
BRANCH   1  11
ATOM     10  C   UNL     1       4.300   2.911  19.371  0.00  0.00    +0.000 C 
ATOM     11  O   UNL     1       5.426   3.774  19.200  0.00  0.00    +0.000 OA
ENDBRANCH   1  11
BRANCH   6  12
ATOM     12  O   UNL     1       3.982   6.366  19.370  0.00  0.00    +0.000 OA
BRANCH  12  13
ATOM     13  C   UNL     1       2.560   6.386  19.328  0.00  0.00    +0.000 C 
BRANCH  13  14
ATOM     14  C   UNL     1       2.027   7.783  19.641  0.00  0.00    +0.000 C 
BRANCH  14  15
ATOM     15  C   UNL     1       1.384   7.747  21.035  0.00  0.00    +0.000 C 
BRANCH  15  16
ATOM     16  N   UNL     1       0.362   8.770  21.294  0.00  0.00    +0.000 NA
ATOM     17  C   UNL     1       0.422   9.278  22.673  0.00  0.00    +0.000 C 
ATOM     18  C   UNL     1      -0.656  10.334  22.921  0.00  0.00    +0.000 C 
ATOM     19  C   UNL     1      -0.542  11.487  21.933  0.00  0.00    +0.000 C 
ATOM     20  C   UNL     1      -0.520  10.960  20.505  0.00  0.00    +0.000 C 
ATOM     21  C   UNL     1       0.539   9.873  20.330  0.00  0.00    +0.000 C 
ENDBRANCH  15  16
ENDBRANCH  14  15
ENDBRANCH  13  14
ENDBRANCH  12  13
ENDBRANCH   6  12
TORSDOF 7
ENDMDL
MODEL 8
REMARK VINA RESULT:      -6.5      4.036      7.993
REMARK  Name = 
REMARK  9 active torsions:
REMARK  status: ('A' for Active; 'I' for Inactive)
REMARK    1  A    between atoms: C_1  and  O_2
REMARK    2  A    between atoms: O_2  and  C_3
REMARK    3  A    between atoms: C_5  and  C_6
REMARK    4  A    between atoms: C_6  and  C_7
REMARK    5  A    between atoms: C_11  and  O_12
REMARK    6  A    between atoms: O_12  and  C_13
REMARK    7  A    between atoms: C_13  and  C_14
REMARK    8  A    between atoms: C_14  and  C_15
REMARK    9  A    between atoms: C_15  and  N_16
REMARK                            x       y       z     vdW  Elec       q    Type
REMARK                         _______ _______ _______ _____ _____    ______ ____
ROOT
ATOM      1  C   UNL     1       5.951   5.312  16.305  0.00  0.00    +0.000 A 
ATOM      2  C   UNL     1       5.021   4.348  16.720  0.00  0.00    +0.000 A 
ATOM      3  C   UNL     1       4.710   4.194  18.072  0.00  0.00    +0.000 A 
ATOM      4  C   UNL     1       5.386   4.964  19.021  0.00  0.00    +0.000 A 
ATOM      5  C   UNL     1       6.367   5.874  18.616  0.00  0.00    +0.000 A 
ATOM      6  C   UNL     1       6.657   6.067  17.260  0.00  0.00    +0.000 A 
ENDROOT
BRANCH   3   7
ATOM      7  C   UNL     1       3.633   3.273  18.527  0.00  0.00    +0.000 C 
ATOM      8  C   UNL     1       3.617   1.844  18.038  0.00  0.00    +0.000 C 
ATOM      9  O   UNL     1       2.751   3.698  19.269  0.00  0.00    +0.000 OA
ENDBRANCH   3   7
BRANCH   1  11
ATOM     10  C   UNL     1       6.121   4.254  14.194  0.00  0.00    +0.000 C 
ATOM     11  O   UNL     1       6.210   5.453  14.966  0.00  0.00    +0.000 OA
ENDBRANCH   1  11
BRANCH   6  12
ATOM     12  O   UNL     1       7.621   7.026  17.055  0.00  0.00    +0.000 OA
BRANCH  12  13
ATOM     13  C   UNL     1       8.087   7.730  18.201  0.00  0.00    +0.000 C 
BRANCH  13  14
ATOM     14  C   UNL     1       8.287   9.211  17.883  0.00  0.00    +0.000 C 
BRANCH  14  15
ATOM     15  C   UNL     1       9.094   9.840  19.029  0.00  0.00    +0.000 C 
BRANCH  15  16
ATOM     16  N   UNL     1       9.952  10.973  18.659  0.00  0.00    +0.000 NA
ATOM     17  C   UNL     1       9.217  12.006  17.913  0.00  0.00    +0.000 C 
ATOM     18  C   UNL     1      10.133  13.170  17.532  0.00  0.00    +0.000 C 
ATOM     19  C   UNL     1      10.793  13.783  18.760  0.00  0.00    +0.000 C 
ATOM     20  C   UNL     1      11.487  12.704  19.581  0.00  0.00    +0.000 C 
ATOM     21  C   UNL     1      10.540  11.544  19.887  0.00  0.00    +0.000 C 
ENDBRANCH  15  16
ENDBRANCH  14  15
ENDBRANCH  13  14
ENDBRANCH  12  13
ENDBRANCH   6  12
TORSDOF 7
ENDMDL
MODEL 9
REMARK VINA RESULT:      -6.4      1.837      3.320
REMARK  Name = 
REMARK  9 active torsions:
REMARK  status: ('A' for Active; 'I' for Inactive)
REMARK    1  A    between atoms: C_1  and  O_2
REMARK    2  A    between atoms: O_2  and  C_3
REMARK    3  A    between atoms: C_5  and  C_6
REMARK    4  A    between atoms: C_6  and  C_7
REMARK    5  A    between atoms: C_11  and  O_12
REMARK    6  A    between atoms: O_12  and  C_13
REMARK    7  A    between atoms: C_13  and  C_14
REMARK    8  A    between atoms: C_14  and  C_15
REMARK    9  A    between atoms: C_15  and  N_16
REMARK                            x       y       z     vdW  Elec       q    Type
REMARK                         _______ _______ _______ _____ _____    ______ ____
ROOT
ATOM      1  C   UNL     1       6.151   5.260  18.187  0.00  0.00    +0.000 A 
ATOM      2  C   UNL     1       6.778   5.259  16.932  0.00  0.00    +0.000 A 
ATOM      3  C   UNL     1       6.191   4.611  15.844  0.00  0.00    +0.000 A 
ATOM      4  C   UNL     1       5.003   3.901  16.030  0.00  0.00    +0.000 A 
ATOM      5  C   UNL     1       4.414   3.838  17.297  0.00  0.00    +0.000 A 
ATOM      6  C   UNL     1       4.971   4.520  18.386  0.00  0.00    +0.000 A 
ENDROOT
BRANCH   3   7
ATOM      7  C   UNL     1       6.766   4.705  14.475  0.00  0.00    +0.000 C 
ATOM      8  C   UNL     1       6.233   3.816  13.377  0.00  0.00    +0.000 C 
ATOM      9  O   UNL     1       7.693   5.485  14.264  0.00  0.00    +0.000 OA
ENDBRANCH   3   7
BRANCH   1  11
ATOM     10  C   UNL     1       8.131   5.655  19.422  0.00  0.00    +0.000 C 
ATOM     11  O   UNL     1       6.744   5.932  19.225  0.00  0.00    +0.000 OA
ENDBRANCH   1  11
BRANCH   6  12
ATOM     12  O   UNL     1       4.234   4.372  19.537  0.00  0.00    +0.000 OA
BRANCH  12  13
ATOM     13  C   UNL     1       3.047   3.590  19.450  0.00  0.00    +0.000 C 
BRANCH  13  14
ATOM     14  C   UNL     1       1.806   4.471  19.579  0.00  0.00    +0.000 C 
BRANCH  14  15
ATOM     15  C   UNL     1       2.233   5.808  20.205  0.00  0.00    +0.000 C 
BRANCH  15  16
ATOM     16  N   UNL     1       1.659   7.012  19.591  0.00  0.00    +0.000 NA
ATOM     17  C   UNL     1       1.597   8.140  20.534  0.00  0.00    +0.000 C 
ATOM     18  C   UNL     1       0.988   9.378  19.875  0.00  0.00    +0.000 C 
ATOM     19  C   UNL     1       1.764   9.783  18.628  0.00  0.00    +0.000 C 
ATOM     20  C   UNL     1       1.903   8.595  17.684  0.00  0.00    +0.000 C 
ATOM     21  C   UNL     1       2.466   7.373  18.408  0.00  0.00    +0.000 C 
ENDBRANCH  15  16
ENDBRANCH  14  15
ENDBRANCH  13  14
ENDBRANCH  12  13
ENDBRANCH   6  12
TORSDOF 7
ENDMDL
