MODEL 1
REMARK VINA RESULT:      -7.6      0.000      0.000
REMARK  Name = 
REMARK  4 active torsions:
REMARK  status: ('A' for Active; 'I' for Inactive)
REMARK    1  A    between atoms: C_1  and  C_2
REMARK    2  A    between atoms: C_8  and  O_9
REMARK    3  A    between atoms: C_10  and  C_11
REMARK    4  A    between atoms: N_20  and  C_21
REMARK                            x       y       z     vdW  Elec       q    Type
REMARK                         _______ _______ _______ _____ _____    ______ ____
ROOT
ATOM      1  C   UNL     1       3.294   5.358  17.625  0.00  0.00    +0.000 C 
ATOM      2  C   UNL     1       2.666   6.302  18.609  0.00  0.00    +0.000 A 
ATOM      3  C   UNL     1       2.338   5.878  19.897  0.00  0.00    +0.000 A 
ATOM      4  C   UNL     1       1.752   6.770  20.783  0.00  0.00    +0.000 A 
ATOM      5  C   UNL     1       1.494   8.097  20.384  0.00  0.00    +0.000 A 
ATOM      6  C   UNL     1       1.821   8.565  19.118  0.00  0.00    +0.000 A 
ATOM      7  C   UNL     1       2.401   7.632  18.233  0.00  0.00    +0.000 A 
ATOM      8  C   UNL     1       1.547   9.964  18.724  0.00  0.00    +0.000 C 
ATOM      9  C   UNL     1       1.020  10.937  19.498  0.00  0.00    +0.000 C 
ATOM     10  N   UNL     1       0.670  10.679  20.872  0.00  0.00    +0.000 N 
ATOM     11  C   UNL     1      -0.036  11.654  21.727  0.00  0.00    +0.000 C 
ATOM     12  S   UNL     1       0.685   9.127  21.519  0.00  0.00    +0.000 S 
ATOM     13  O   UNL     1      -0.687   8.661  21.583  0.00  0.00    +0.000 OA
ATOM     14  O   UNL     1       1.511   9.168  22.715  0.00  0.00    +0.000 OA
ENDROOT
BRANCH   9  15
ATOM     15  C   UNL     1       0.960  12.367  18.958  0.00  0.00    +0.000 C 
ATOM     16  O   UNL     1      -0.055  12.790  18.406  0.00  0.00    +0.000 OA
ATOM     17  N   UNL     1       2.134  13.075  19.074  0.00  0.00    +0.000 N 
ATOM     18  C   UNL     1       2.379  14.365  18.612  0.00  0.00    +0.000 A 
ATOM     19  C   UNL     1       1.411  15.362  18.585  0.00  0.00    +0.000 A 
ATOM     20  C   UNL     1       1.745  16.604  18.042  0.00  0.00    +0.000 A 
ATOM     21  C   UNL     1       3.014  16.794  17.510  0.00  0.00    +0.000 A 
ATOM     22  C   UNL     1       3.923  15.756  17.616  0.00  0.00    +0.000 A 
ATOM     23  N   UNL     1       3.647  14.569  18.198  0.00  0.00    +0.000 NA
ATOM     24  H   UNL     1       2.968  12.584  19.370  0.00  0.00    +0.000 HD
ENDBRANCH   9  15
BRANCH   8  25
ATOM     25  O   UNL     1       1.895  10.264  17.404  0.00  0.00    +0.000 OA
ATOM     26  H   UNL     1       1.492  11.115  17.159  0.00  0.00    +0.000 HD
ENDBRANCH   8  25
TORSDOF 2
ENDMDL
MODEL 2
REMARK VINA RESULT:      -7.1      2.995      6.946
REMARK  Name = 
REMARK  4 active torsions:
REMARK  status: ('A' for Active; 'I' for Inactive)
REMARK    1  A    between atoms: C_1  and  C_2
REMARK    2  A    between atoms: C_8  and  O_9
REMARK    3  A    between atoms: C_10  and  C_11
REMARK    4  A    between atoms: N_20  and  C_21
REMARK                            x       y       z     vdW  Elec       q    Type
REMARK                         _______ _______ _______ _____ _____    ______ ____
ROOT
ATOM      1  C   UNL     1      -0.253  13.471  18.203  0.00  0.00    +0.000 C 
ATOM      2  C   UNL     1      -0.031  12.203  18.975  0.00  0.00    +0.000 A 
ATOM      3  C   UNL     1      -0.598  12.025  20.236  0.00  0.00    +0.000 A 
ATOM      4  C   UNL     1      -0.370  10.845  20.930  0.00  0.00    +0.000 A 
ATOM      5  C   UNL     1       0.428   9.833  20.359  0.00  0.00    +0.000 A 
ATOM      6  C   UNL     1       0.997   9.961  19.100  0.00  0.00    +0.000 A 
ATOM      7  C   UNL     1       0.760  11.177  18.424  0.00  0.00    +0.000 A 
ATOM      8  C   UNL     1       1.824   8.882  18.519  0.00  0.00    +0.000 C 
ATOM      9  C   UNL     1       2.091   7.678  19.069  0.00  0.00    +0.000 C 
ATOM     10  N   UNL     1       1.540   7.313  20.350  0.00  0.00    +0.000 N 
ATOM     11  C   UNL     1       1.903   6.075  21.067  0.00  0.00    +0.000 C 
ATOM     12  S   UNL     1       0.734   8.424  21.321  0.00  0.00    +0.000 S 
ATOM     13  O   UNL     1       1.648   8.839  22.370  0.00  0.00    +0.000 OA
ATOM     14  O   UNL     1      -0.560   7.848  21.651  0.00  0.00    +0.000 OA
ENDROOT
BRANCH   9  15
ATOM     15  C   UNL     1       2.838   6.630  18.242  0.00  0.00    +0.000 C 
ATOM     16  O   UNL     1       2.270   5.610  17.855  0.00  0.00    +0.000 OA
ATOM     17  N   UNL     1       4.176   6.894  18.053  0.00  0.00    +0.000 N 
ATOM     18  C   UNL     1       5.101   6.084  17.400  0.00  0.00    +0.000 A 
ATOM     19  C   UNL     1       4.780   5.287  16.309  0.00  0.00    +0.000 A 
ATOM     20  C   UNL     1       5.769   4.464  15.768  0.00  0.00    +0.000 A 
ATOM     21  C   UNL     1       7.027   4.435  16.357  0.00  0.00    +0.000 A 
ATOM     22  C   UNL     1       7.265   5.292  17.417  0.00  0.00    +0.000 A 
ATOM     23  N   UNL     1       6.347   6.148  17.916  0.00  0.00    +0.000 NA
ATOM     24  H   UNL     1       4.595   7.658  18.566  0.00  0.00    +0.000 HD
ENDBRANCH   9  15
BRANCH   8  25
ATOM     25  O   UNL     1       2.358   9.184  17.263  0.00  0.00    +0.000 OA
ATOM     26  H   UNL     1       1.669   9.055  16.589  0.00  0.00    +0.000 HD
ENDBRANCH   8  25
TORSDOF 2
ENDMDL
MODEL 3
REMARK VINA RESULT:      -7.1      3.635      5.474
REMARK  Name = 
REMARK  4 active torsions:
REMARK  status: ('A' for Active; 'I' for Inactive)
REMARK    1  A    between atoms: C_1  and  C_2
REMARK    2  A    between atoms: C_8  and  O_9
REMARK    3  A    between atoms: C_10  and  C_11
REMARK    4  A    between atoms: N_20  and  C_21
REMARK                            x       y       z     vdW  Elec       q    Type
REMARK                         _______ _______ _______ _____ _____    ______ ____
ROOT
ATOM      1  C   UNL     1       6.831   5.360  14.576  0.00  0.00    +0.000 C 
ATOM      2  C   UNL     1       5.817   4.977  15.614  0.00  0.00    +0.000 A 
ATOM      3  C   UNL     1       5.582   3.638  15.924  0.00  0.00    +0.000 A 
ATOM      4  C   UNL     1       4.633   3.313  16.884  0.00  0.00    +0.000 A 
ATOM      5  C   UNL     1       3.916   4.332  17.542  0.00  0.00    +0.000 A 
ATOM      6  C   UNL     1       4.131   5.678  17.277  0.00  0.00    +0.000 A 
ATOM      7  C   UNL     1       5.090   5.978  16.286  0.00  0.00    +0.000 A 
ATOM      8  C   UNL     1       3.371   6.730  17.986  0.00  0.00    +0.000 C 
ATOM      9  C   UNL     1       2.454   6.551  18.961  0.00  0.00    +0.000 C 
ATOM     10  N   UNL     1       2.129   5.230  19.436  0.00  0.00    +0.000 N 
ATOM     11  C   UNL     1       1.041   4.958  20.396  0.00  0.00    +0.000 C 
ATOM     12  S   UNL     1       2.691   3.844  18.667  0.00  0.00    +0.000 S 
ATOM     13  O   UNL     1       1.602   3.306  17.873  0.00  0.00    +0.000 OA
ATOM     14  O   UNL     1       3.346   3.028  19.677  0.00  0.00    +0.000 OA
ENDROOT
BRANCH   9  15
ATOM     15  C   UNL     1       1.890   7.775  19.685  0.00  0.00    +0.000 C 
ATOM     16  O   UNL     1       1.934   7.857  20.912  0.00  0.00    +0.000 OA
ATOM     17  N   UNL     1       1.279   8.697  18.867  0.00  0.00    +0.000 N 
ATOM     18  C   UNL     1       0.629   9.863  19.263  0.00  0.00    +0.000 A 
ATOM     19  C   UNL     1       1.028  10.625  20.354  0.00  0.00    +0.000 A 
ATOM     20  C   UNL     1       0.267  11.741  20.704  0.00  0.00    +0.000 A 
ATOM     21  C   UNL     1      -0.883  12.034  19.981  0.00  0.00    +0.000 A 
ATOM     22  C   UNL     1      -1.180  11.240  18.887  0.00  0.00    +0.000 A 
ATOM     23  N   UNL     1      -0.423  10.196  18.486  0.00  0.00    +0.000 NA
ATOM     24  H   UNL     1       1.126   8.456  17.897  0.00  0.00    +0.000 HD
ENDBRANCH   9  15
BRANCH   8  25
ATOM     25  O   UNL     1       3.674   8.030  17.573  0.00  0.00    +0.000 OA
ATOM     26  H   UNL     1       4.603   8.059  17.285  0.00  0.00    +0.000 HD
ENDBRANCH   8  25
TORSDOF 2
ENDMDL
MODEL 4
REMARK VINA RESULT:      -6.8      2.102      2.610
REMARK  Name = 
REMARK  4 active torsions:
REMARK  status: ('A' for Active; 'I' for Inactive)
REMARK    1  A    between atoms: C_1  and  C_2
REMARK    2  A    between atoms: C_8  and  O_9
REMARK    3  A    between atoms: C_10  and  C_11
REMARK    4  A    between atoms: N_20  and  C_21
REMARK                            x       y       z     vdW  Elec       q    Type
REMARK                         _______ _______ _______ _____ _____    ______ ____
ROOT
ATOM      1  C   UNL     1       2.969   7.472  17.346  0.00  0.00    +0.000 C 
ATOM      2  C   UNL     1       2.268   7.982  18.571  0.00  0.00    +0.000 A 
ATOM      3  C   UNL     1       2.369   7.304  19.786  0.00  0.00    +0.000 A 
ATOM      4  C   UNL     1       1.704   7.794  20.901  0.00  0.00    +0.000 A 
ATOM      5  C   UNL     1       0.935   8.972  20.805  0.00  0.00    +0.000 A 
ATOM      6  C   UNL     1       0.823   9.686  19.620  0.00  0.00    +0.000 A 
ATOM      7  C   UNL     1       1.496   9.157  18.500  0.00  0.00    +0.000 A 
ATOM      8  C   UNL     1       0.016  10.924  19.545  0.00  0.00    +0.000 C 
ATOM      9  C   UNL     1      -0.645  11.524  20.558  0.00  0.00    +0.000 C 
ATOM     10  N   UNL     1      -0.604  10.980  21.892  0.00  0.00    +0.000 N 
ATOM     11  C   UNL     1      -1.412  11.507  23.009  0.00  0.00    +0.000 C 
ATOM     12  S   UNL     1       0.069   9.474  22.219  0.00  0.00    +0.000 S 
ATOM     13  O   UNL     1      -1.021   8.530  22.384  0.00  0.00    +0.000 OA
ATOM     14  O   UNL     1       1.053   9.662  23.273  0.00  0.00    +0.000 OA
ENDROOT
BRANCH   9  15
ATOM     15  C   UNL     1      -1.295  12.888  20.318  0.00  0.00    +0.000 C 
ATOM     16  O   UNL     1      -2.518  13.015  20.340  0.00  0.00    +0.000 OA
ATOM     17  N   UNL     1      -0.414  13.899  20.007  0.00  0.00    +0.000 N 
ATOM     18  C   UNL     1      -0.735  15.213  19.680  0.00  0.00    +0.000 A 
ATOM     19  C   UNL     1      -1.813  15.894  20.230  0.00  0.00    +0.000 A 
ATOM     20  C   UNL     1      -2.084  17.189  19.785  0.00  0.00    +0.000 A 
ATOM     21  C   UNL     1      -1.298  17.742  18.782  0.00  0.00    +0.000 A 
ATOM     22  C   UNL     1      -0.222  17.003  18.322  0.00  0.00    +0.000 A 
ATOM     23  N   UNL     1       0.103  15.776  18.784  0.00  0.00    +0.000 NA
ATOM     24  H   UNL     1       0.553  13.659  19.828  0.00  0.00    +0.000 HD
ENDBRANCH   9  15
BRANCH   8  25
ATOM     25  O   UNL     1      -0.031  11.499  18.273  0.00  0.00    +0.000 OA
ATOM     26  H   UNL     1       0.692  12.145  18.193  0.00  0.00    +0.000 HD
ENDBRANCH   8  25
TORSDOF 2
ENDMDL
MODEL 5
REMARK VINA RESULT:      -6.5      2.138      7.154
REMARK  Name = 
REMARK  4 active torsions:
REMARK  status: ('A' for Active; 'I' for Inactive)
REMARK    1  A    between atoms: C_1  and  C_2
REMARK    2  A    between atoms: C_8  and  O_9
REMARK    3  A    between atoms: C_10  and  C_11
REMARK    4  A    between atoms: N_20  and  C_21
REMARK                            x       y       z     vdW  Elec       q    Type
REMARK                         _______ _______ _______ _____ _____    ______ ____
ROOT
ATOM      1  C   UNL     1       3.024  16.815  17.540  0.00  0.00    +0.000 C 
ATOM      2  C   UNL     1       2.212  15.800  18.292  0.00  0.00    +0.000 A 
ATOM      3  C   UNL     1       1.254  16.199  19.223  0.00  0.00    +0.000 A 
ATOM      4  C   UNL     1       0.523  15.239  19.909  0.00  0.00    +0.000 A 
ATOM      5  C   UNL     1       0.747  13.869  19.660  0.00  0.00    +0.000 A 
ATOM      6  C   UNL     1       1.678  13.430  18.729  0.00  0.00    +0.000 A 
ATOM      7  C   UNL     1       2.417  14.427  18.059  0.00  0.00    +0.000 A 
ATOM      8  C   UNL     1       1.891  11.987  18.481  0.00  0.00    +0.000 C 
ATOM      9  C   UNL     1       1.224  10.959  19.048  0.00  0.00    +0.000 C 
ATOM     10  N   UNL     1       0.167  11.198  19.997  0.00  0.00    +0.000 N 
ATOM     11  C   UNL     1      -0.504  10.123  20.754  0.00  0.00    +0.000 C 
ATOM     12  S   UNL     1      -0.146  12.731  20.614  0.00  0.00    +0.000 S 
ATOM     13  O   UNL     1       0.416  12.793  21.951  0.00  0.00    +0.000 OA
ATOM     14  O   UNL     1      -1.556  13.007  20.391  0.00  0.00    +0.000 OA
ENDROOT
BRANCH   9  15
ATOM     15  C   UNL     1       1.478   9.538  18.543  0.00  0.00    +0.000 C 
ATOM     16  O   UNL     1       1.238   9.231  17.376  0.00  0.00    +0.000 OA
ATOM     17  N   UNL     1       1.907   8.653  19.506  0.00  0.00    +0.000 N 
ATOM     18  C   UNL     1       2.150   7.293  19.340  0.00  0.00    +0.000 A 
ATOM     19  C   UNL     1       2.651   6.746  18.165  0.00  0.00    +0.000 A 
ATOM     20  C   UNL     1       2.798   5.360  18.081  0.00  0.00    +0.000 A 
ATOM     21  C   UNL     1       2.404   4.569  19.153  0.00  0.00    +0.000 A 
ATOM     22  C   UNL     1       1.953   5.205  20.296  0.00  0.00    +0.000 A 
ATOM     23  N   UNL     1       1.865   6.547  20.428  0.00  0.00    +0.000 NA
ATOM     24  H   UNL     1       1.896   8.949  20.473  0.00  0.00    +0.000 HD
ENDBRANCH   9  15
BRANCH   8  25
ATOM     25  O   UNL     1       2.892  11.710  17.546  0.00  0.00    +0.000 OA
ATOM     26  H   UNL     1       3.746  12.013  17.901  0.00  0.00    +0.000 HD
ENDBRANCH   8  25
TORSDOF 2
ENDMDL
MODEL 6
REMARK VINA RESULT:      -6.3      2.418      7.173
REMARK  Name = 
REMARK  4 active torsions:
REMARK  status: ('A' for Active; 'I' for Inactive)
REMARK    1  A    between atoms: C_1  and  C_2
REMARK    2  A    between atoms: C_8  and  O_9
REMARK    3  A    between atoms: C_10  and  C_11
REMARK    4  A    between atoms: N_20  and  C_21
REMARK                            x       y       z     vdW  Elec       q    Type
REMARK                         _______ _______ _______ _____ _____    ______ ____
ROOT
ATOM      1  C   UNL     1      -3.091  12.444  23.846  0.00  0.00    +0.000 C 
ATOM      2  C   UNL     1      -2.020  12.716  22.831  0.00  0.00    +0.000 A 
ATOM      3  C   UNL     1      -1.506  14.000  22.660  0.00  0.00    +0.000 A 
ATOM      4  C   UNL     1      -0.520  14.223  21.708  0.00  0.00    +0.000 A 
ATOM      5  C   UNL     1      -0.042  13.155  20.922  0.00  0.00    +0.000 A 
ATOM      6  C   UNL     1      -0.513  11.858  21.072  0.00  0.00    +0.000 A 
ATOM      7  C   UNL     1      -1.525  11.664  22.036  0.00  0.00    +0.000 A 
ATOM      8  C   UNL     1       0.010  10.752  20.241  0.00  0.00    +0.000 C 
ATOM      9  C   UNL     1       0.987  10.826  19.313  0.00  0.00    +0.000 C 
ATOM     10  N   UNL     1       1.660  12.072  19.047  0.00  0.00    +0.000 N 
ATOM     11  C   UNL     1       2.635  12.251  17.954  0.00  0.00    +0.000 C 
ATOM     12  S   UNL     1       1.128  13.528  19.700  0.00  0.00    +0.000 S 
ATOM     13  O   UNL     1       0.414  14.244  18.659  0.00  0.00    +0.000 OA
ATOM     14  O   UNL     1       2.263  14.138  20.373  0.00  0.00    +0.000 OA
ENDROOT
BRANCH   9  15
ATOM     15  C   UNL     1       1.501   9.538  18.668  0.00  0.00    +0.000 C 
ATOM     16  O   UNL     1       1.487   9.396  17.447  0.00  0.00    +0.000 OA
ATOM     17  N   UNL     1       1.888   8.563  19.559  0.00  0.00    +0.000 N 
ATOM     18  C   UNL     1       2.331   7.280  19.251  0.00  0.00    +0.000 A 
ATOM     19  C   UNL     1       3.075   6.982  18.116  0.00  0.00    +0.000 A 
ATOM     20  C   UNL     1       3.414   5.651  17.869  0.00  0.00    +0.000 A 
ATOM     21  C   UNL     1       2.966   4.662  18.736  0.00  0.00    +0.000 A 
ATOM     22  C   UNL     1       2.263   5.058  19.861  0.00  0.00    +0.000 A 
ATOM     23  N   UNL     1       1.981   6.345  20.160  0.00  0.00    +0.000 NA
ATOM     24  H   UNL     1       1.689   8.699  20.542  0.00  0.00    +0.000 HD
ENDBRANCH   9  15
BRANCH   8  25
ATOM     25  O   UNL     1      -0.599   9.518  20.485  0.00  0.00    +0.000 OA
ATOM     26  H   UNL     1      -1.229   9.331  19.768  0.00  0.00    +0.000 HD
ENDBRANCH   8  25
TORSDOF 2
ENDMDL
MODEL 7
REMARK VINA RESULT:      -6.2      2.814      6.923
REMARK  Name = 
REMARK  4 active torsions:
REMARK  status: ('A' for Active; 'I' for Inactive)
REMARK    1  A    between atoms: C_1  and  C_2
REMARK    2  A    between atoms: C_8  and  O_9
REMARK    3  A    between atoms: C_10  and  C_11
REMARK    4  A    between atoms: N_20  and  C_21
REMARK                            x       y       z     vdW  Elec       q    Type
REMARK                         _______ _______ _______ _____ _____    ______ ____
ROOT
ATOM      1  C   UNL     1      -0.950  14.566  19.877  0.00  0.00    +0.000 C 
ATOM      2  C   UNL     1      -0.623  13.168  20.315  0.00  0.00    +0.000 A 
ATOM      3  C   UNL     1      -1.116  12.663  21.518  0.00  0.00    +0.000 A 
ATOM      4  C   UNL     1      -0.791  11.369  21.902  0.00  0.00    +0.000 A 
ATOM      5  C   UNL     1       0.030  10.573  21.078  0.00  0.00    +0.000 A 
ATOM      6  C   UNL     1       0.527  11.030  19.865  0.00  0.00    +0.000 A 
ATOM      7  C   UNL     1       0.193  12.353  19.508  0.00  0.00    +0.000 A 
ATOM      8  C   UNL     1       1.380  10.173  19.014  0.00  0.00    +0.000 C 
ATOM      9  C   UNL     1       1.737   8.892  19.251  0.00  0.00    +0.000 C 
ATOM     10  N   UNL     1       1.272   8.202  20.428  0.00  0.00    +0.000 N 
ATOM     11  C   UNL     1       1.735   6.855  20.815  0.00  0.00    +0.000 C 
ATOM     12  S   UNL     1       0.458   8.999  21.665  0.00  0.00    +0.000 S 
ATOM     13  O   UNL     1       1.400   9.212  22.748  0.00  0.00    +0.000 OA
ATOM     14  O   UNL     1      -0.785   8.281  21.895  0.00  0.00    +0.000 OA
ENDROOT
BRANCH   9  15
ATOM     15  C   UNL     1       2.496   8.119  18.172  0.00  0.00    +0.000 C 
ATOM     16  O   UNL     1       2.426   8.454  16.990  0.00  0.00    +0.000 OA
ATOM     17  N   UNL     1       3.170   7.008  18.626  0.00  0.00    +0.000 N 
ATOM     18  C   UNL     1       3.884   6.093  17.858  0.00  0.00    +0.000 A 
ATOM     19  C   UNL     1       4.592   6.446  16.716  0.00  0.00    +0.000 A 
ATOM     20  C   UNL     1       5.221   5.439  15.982  0.00  0.00    +0.000 A 
ATOM     21  C   UNL     1       5.088   4.117  16.388  0.00  0.00    +0.000 A 
ATOM     22  C   UNL     1       4.396   3.866  17.559  0.00  0.00    +0.000 A 
ATOM     23  N   UNL     1       3.836   4.828  18.325  0.00  0.00    +0.000 NA
ATOM     24  H   UNL     1       3.016   6.706  19.579  0.00  0.00    +0.000 HD
ENDBRANCH   9  15
BRANCH   8  25
ATOM     25  O   UNL     1       1.833  10.796  17.848  0.00  0.00    +0.000 OA
ATOM     26  H   UNL     1       1.138  10.737  17.170  0.00  0.00    +0.000 HD
ENDBRANCH   8  25
TORSDOF 2
ENDMDL
MODEL 8
REMARK VINA RESULT:      -6.1      3.277      6.777
REMARK  Name = 
REMARK  4 active torsions:
REMARK  status: ('A' for Active; 'I' for Inactive)
REMARK    1  A    between atoms: C_1  and  C_2
REMARK    2  A    between atoms: C_8  and  O_9
REMARK    3  A    between atoms: C_10  and  C_11
REMARK    4  A    between atoms: N_20  and  C_21
REMARK                            x       y       z     vdW  Elec       q    Type
REMARK                         _______ _______ _______ _____ _____    ______ ____
ROOT
ATOM      1  C   UNL     1      -5.951  11.246  17.892  0.00  0.00    +0.000 C 
ATOM      2  C   UNL     1      -4.642  11.552  18.559  0.00  0.00    +0.000 A 
ATOM      3  C   UNL     1      -4.579  12.427  19.643  0.00  0.00    +0.000 A 
ATOM      4  C   UNL     1      -3.353  12.697  20.236  0.00  0.00    +0.000 A 
ATOM      5  C   UNL     1      -2.181  12.087  19.745  0.00  0.00    +0.000 A 
ATOM      6  C   UNL     1      -2.201  11.197  18.680  0.00  0.00    +0.000 A 
ATOM      7  C   UNL     1      -3.458  10.953  18.088  0.00  0.00    +0.000 A 
ATOM      8  C   UNL     1      -0.959  10.564  18.187  0.00  0.00    +0.000 C 
ATOM      9  C   UNL     1       0.284  10.711  18.695  0.00  0.00    +0.000 C 
ATOM     10  N   UNL     1       0.516  11.542  19.848  0.00  0.00    +0.000 N 
ATOM     11  C   UNL     1       1.863  11.854  20.366  0.00  0.00    +0.000 C 
ATOM     12  S   UNL     1      -0.680  12.538  20.484  0.00  0.00    +0.000 S 
ATOM     13  O   UNL     1      -0.404  13.895  20.048  0.00  0.00    +0.000 OA
ATOM     14  O   UNL     1      -0.795  12.224  21.899  0.00  0.00    +0.000 OA
ENDROOT
BRANCH   9  15
ATOM     15  C   UNL     1       1.419   9.847  18.145  0.00  0.00    +0.000 C 
ATOM     16  O   UNL     1       2.139  10.256  17.235  0.00  0.00    +0.000 OA
ATOM     17  N   UNL     1       1.499   8.586  18.691  0.00  0.00    +0.000 N 
ATOM     18  C   UNL     1       2.389   7.577  18.332  0.00  0.00    +0.000 A 
ATOM     19  C   UNL     1       3.691   7.821  17.914  0.00  0.00    +0.000 A 
ATOM     20  C   UNL     1       4.480   6.741  17.516  0.00  0.00    +0.000 A 
ATOM     21  C   UNL     1       3.932   5.464  17.511  0.00  0.00    +0.000 A 
ATOM     22  C   UNL     1       2.639   5.313  17.981  0.00  0.00    +0.000 A 
ATOM     23  N   UNL     1       1.878   6.332  18.436  0.00  0.00    +0.000 NA
ATOM     24  H   UNL     1       0.751   8.272  19.295  0.00  0.00    +0.000 HD
ENDBRANCH   9  15
BRANCH   8  25
ATOM     25  O   UNL     1      -1.143   9.728  17.082  0.00  0.00    +0.000 OA
ATOM     26  H   UNL     1      -2.077   9.458  17.046  0.00  0.00    +0.000 HD
ENDBRANCH   8  25
TORSDOF 2
ENDMDL
MODEL 9
REMARK VINA RESULT:      -6.1      7.808      9.249
REMARK  Name = 
REMARK  4 active torsions:
REMARK  status: ('A' for Active; 'I' for Inactive)
REMARK    1  A    between atoms: C_1  and  C_2
REMARK    2  A    between atoms: C_8  and  O_9
REMARK    3  A    between atoms: C_10  and  C_11
REMARK    4  A    between atoms: N_20  and  C_21
REMARK                            x       y       z     vdW  Elec       q    Type
REMARK                         _______ _______ _______ _____ _____    ______ ____
ROOT
ATOM      1  C   UNL     1       6.497  10.646  28.602  0.00  0.00    +0.000 C 
ATOM      2  C   UNL     1       6.326  11.664  27.512  0.00  0.00    +0.000 A 
ATOM      3  C   UNL     1       5.313  12.620  27.579  0.00  0.00    +0.000 A 
ATOM      4  C   UNL     1       5.174  13.544  26.553  0.00  0.00    +0.000 A 
ATOM      5  C   UNL     1       6.055  13.516  25.452  0.00  0.00    +0.000 A 
ATOM      6  C   UNL     1       7.087  12.593  25.355  0.00  0.00    +0.000 A 
ATOM      7  C   UNL     1       7.195  11.657  26.404  0.00  0.00    +0.000 A 
ATOM      8  C   UNL     1       8.003  12.589  24.193  0.00  0.00    +0.000 C 
ATOM      9  C   UNL     1       8.001  13.451  23.154  0.00  0.00    +0.000 C 
ATOM     10  N   UNL     1       7.049  14.531  23.093  0.00  0.00    +0.000 N 
ATOM     11  C   UNL     1       6.903  15.419  21.923  0.00  0.00    +0.000 C 
ATOM     12  S   UNL     1       5.766  14.650  24.173  0.00  0.00    +0.000 S 
ATOM     13  O   UNL     1       4.569  14.194  23.491  0.00  0.00    +0.000 OA
ATOM     14  O   UNL     1       5.822  15.977  24.764  0.00  0.00    +0.000 OA
ENDROOT
BRANCH   9  15
ATOM     15  C   UNL     1       9.131  13.381  22.126  0.00  0.00    +0.000 C 
ATOM     16  O   UNL     1       9.996  14.254  22.081  0.00  0.00    +0.000 OA
ATOM     17  N   UNL     1       9.040  12.331  21.241  0.00  0.00    +0.000 N 
ATOM     18  C   UNL     1       9.890  12.066  20.171  0.00  0.00    +0.000 A 
ATOM     19  C   UNL     1      11.251  12.342  20.192  0.00  0.00    +0.000 A 
ATOM     20  C   UNL     1      12.002  12.096  19.042  0.00  0.00    +0.000 A 
ATOM     21  C   UNL     1      11.364  11.624  17.902  0.00  0.00    +0.000 A 
ATOM     22  C   UNL     1      10.012  11.341  17.987  0.00  0.00    +0.000 A 
ATOM     23  N   UNL     1       9.276  11.505  19.108  0.00  0.00    +0.000 NA
ATOM     24  H   UNL     1       8.195  11.774  21.237  0.00  0.00    +0.000 HD
ENDBRANCH   9  15
BRANCH   8  25
ATOM     25  O   UNL     1       8.959  11.571  24.225  0.00  0.00    +0.000 OA
ATOM     26  H   UNL     1       9.294  11.425  23.323  0.00  0.00    +0.000 HD
ENDBRANCH   8  25
TORSDOF 2
ENDMDL
