MODEL 1
REMARK VINA RESULT:      -7.9      0.000      0.000
REMARK  Name = 
REMARK  6 active torsions:
REMARK  status: ('A' for Active; 'I' for Inactive)
REMARK    1  A    between atoms: N_1  and  S_2
REMARK    2  A    between atoms: S_2  and  C_5
REMARK    3  A    between atoms: C_10  and  N_11
REMARK    4  A    between atoms: N_11  and  S_12
REMARK    5  A    between atoms: S_12  and  C_15
REMARK    6  A    between atoms: C_16  and  C_17
REMARK                            x       y       z     vdW  Elec       q    Type
REMARK                         _______ _______ _______ _____ _____    ______ ____
ROOT
ATOM      1  N   UNL     1       5.181   3.489  17.710  0.00  0.00    +0.000 N 
ATOM      2  H   UNL     1       5.498   2.600  17.320  0.00  0.00    +0.000 HD
ENDROOT
BRANCH   1   8
ATOM      3  C   UNL     1       6.473   5.479  16.921  0.00  0.00    +0.000 A 
ATOM      4  C   UNL     1       7.364   6.522  17.237  0.00  0.00    +0.000 A 
ATOM      5  C   UNL     1       7.850   6.667  18.534  0.00  0.00    +0.000 A 
ATOM      6  C   UNL     1       7.424   5.794  19.529  0.00  0.00    +0.000 A 
ATOM      7  C   UNL     1       6.536   4.765  19.217  0.00  0.00    +0.000 A 
ATOM      8  C   UNL     1       6.075   4.573  17.909  0.00  0.00    +0.000 A 
BRANCH   3   9
ATOM      9  S   UNL     1       5.901   5.427  15.251  0.00  0.00    +0.000 S 
ATOM     10  O   UNL     1       5.226   6.674  14.977  0.00  0.00    +0.000 OA
ATOM     11  O   UNL     1       5.293   4.148  14.969  0.00  0.00    +0.000 OA
BRANCH   9  12
ATOM     12  N   UNL     1       7.342   5.489  14.373  0.00  0.00    +0.000 NA
ATOM     13  H   UNL     1       7.520   4.565  13.971  0.00  0.00    +0.000 HD
ATOM     14  H   UNL     1       7.363   6.221  13.664  0.00  0.00    +0.000 HD
ENDBRANCH   9  12
ENDBRANCH   3   9
ENDBRANCH   1   8
BRANCH   1  15
ATOM     15  S   UNL     1       3.591   3.546  18.249  0.00  0.00    +0.000 S 
ATOM     16  O   UNL     1       2.785   2.679  17.410  0.00  0.00    +0.000 OA
ATOM     17  O   UNL     1       3.664   3.310  19.675  0.00  0.00    +0.000 OA
BRANCH  15  18
ATOM     18  C   UNL     1       3.035   5.175  18.021  0.00  0.00    +0.000 C 
ATOM     19  C   UNL     1       2.850   5.935  19.113  0.00  0.00    +0.000 C 
BRANCH  19  20
ATOM     20  C   UNL     1       2.338   7.310  19.105  0.00  0.00    +0.000 A 
ATOM     21  C   UNL     1       2.362   8.108  17.952  0.00  0.00    +0.000 A 
ATOM     22  C   UNL     1       1.765   9.373  17.950  0.00  0.00    +0.000 A 
ATOM     23  C   UNL     1       1.140   9.845  19.102  0.00  0.00    +0.000 A 
ATOM     24 BR   UNL     1       0.300  11.538  19.088  0.00  0.00    +0.000 Br
ATOM     25  C   UNL     1       1.115   9.070  20.259  0.00  0.00    +0.000 A 
ATOM     26  C   UNL     1       1.710   7.805  20.257  0.00  0.00    +0.000 A 
ENDBRANCH  19  20
ENDBRANCH  15  18
ENDBRANCH   1  15
TORSDOF 6
ENDMDL
MODEL 2
REMARK VINA RESULT:      -7.5      0.344      1.064
REMARK  Name = 
REMARK  6 active torsions:
REMARK  status: ('A' for Active; 'I' for Inactive)
REMARK    1  A    between atoms: N_1  and  S_2
REMARK    2  A    between atoms: S_2  and  C_5
REMARK    3  A    between atoms: C_10  and  N_11
REMARK    4  A    between atoms: N_11  and  S_12
REMARK    5  A    between atoms: S_12  and  C_15
REMARK    6  A    between atoms: C_16  and  C_17
REMARK                            x       y       z     vdW  Elec       q    Type
REMARK                         _______ _______ _______ _____ _____    ______ ____
ROOT
ATOM      1  N   UNL     1       4.781   3.498  17.496  0.00  0.00    +0.000 N 
ATOM      2  H   UNL     1       5.027   2.660  16.966  0.00  0.00    +0.000 HD
ENDROOT
BRANCH   1   8
ATOM      3  C   UNL     1       6.287   5.394  16.870  0.00  0.00    +0.000 A 
ATOM      4  C   UNL     1       7.236   6.348  17.284  0.00  0.00    +0.000 A 
ATOM      5  C   UNL     1       7.638   6.412  18.616  0.00  0.00    +0.000 A 
ATOM      6  C   UNL     1       7.071   5.549  19.546  0.00  0.00    +0.000 A 
ATOM      7  C   UNL     1       6.126   4.609  19.138  0.00  0.00    +0.000 A 
ATOM      8  C   UNL     1       5.745   4.496  17.795  0.00  0.00    +0.000 A 
BRANCH   3   9
ATOM      9  S   UNL     1       5.834   5.440  15.163  0.00  0.00    +0.000 S 
ATOM     10  O   UNL     1       5.300   6.753  14.885  0.00  0.00    +0.000 OA
ATOM     11  O   UNL     1       5.130   4.234  14.799  0.00  0.00    +0.000 OA
BRANCH   9  12
ATOM     12  N   UNL     1       7.334   5.387  14.390  0.00  0.00    +0.000 NA
ATOM     13  H   UNL     1       7.654   6.346  14.232  0.00  0.00    +0.000 HD
ATOM     14  H   UNL     1       8.032   4.830  14.881  0.00  0.00    +0.000 HD
ENDBRANCH   9  12
ENDBRANCH   3   9
ENDBRANCH   1   8
BRANCH   1  15
ATOM     15  S   UNL     1       3.226   3.556  18.129  0.00  0.00    +0.000 S 
ATOM     16  O   UNL     1       2.376   2.674  17.351  0.00  0.00    +0.000 OA
ATOM     17  O   UNL     1       3.387   3.339  19.551  0.00  0.00    +0.000 OA
BRANCH  15  18
ATOM     18  C   UNL     1       2.649   5.179  17.914  0.00  0.00    +0.000 C 
ATOM     19  C   UNL     1       2.652   5.994  18.981  0.00  0.00    +0.000 C 
BRANCH  19  20
ATOM     20  C   UNL     1       2.154   7.374  18.987  0.00  0.00    +0.000 A 
ATOM     21  C   UNL     1       1.611   7.967  20.136  0.00  0.00    +0.000 A 
ATOM     22  C   UNL     1       1.249   9.318  20.136  0.00  0.00    +0.000 A 
ATOM     23  C   UNL     1       1.431  10.083  18.986  0.00  0.00    +0.000 A 
ATOM     24 BR   UNL     1       0.977  11.918  18.999  0.00  0.00    +0.000 Br
ATOM     25  C   UNL     1       1.960   9.509  17.833  0.00  0.00    +0.000 A 
ATOM     26  C   UNL     1       2.323   8.159  17.837  0.00  0.00    +0.000 A 
ENDBRANCH  19  20
ENDBRANCH  15  18
ENDBRANCH   1  15
TORSDOF 6
ENDMDL
MODEL 3
REMARK VINA RESULT:      -7.4      2.047      2.602
REMARK  Name = 
REMARK  6 active torsions:
REMARK  status: ('A' for Active; 'I' for Inactive)
REMARK    1  A    between atoms: N_1  and  S_2
REMARK    2  A    between atoms: S_2  and  C_5
REMARK    3  A    between atoms: C_10  and  N_11
REMARK    4  A    between atoms: N_11  and  S_12
REMARK    5  A    between atoms: S_12  and  C_15
REMARK    6  A    between atoms: C_16  and  C_17
REMARK                            x       y       z     vdW  Elec       q    Type
REMARK                         _______ _______ _______ _____ _____    ______ ____
ROOT
ATOM      1  N   UNL     1       5.034   3.289  18.259  0.00  0.00    +0.000 N 
ATOM      2  H   UNL     1       5.624   2.830  18.954  0.00  0.00    +0.000 HD
ENDROOT
BRANCH   1   8
ATOM      3  C   UNL     1       6.584   4.953  17.219  0.00  0.00    +0.000 A 
ATOM      4  C   UNL     1       7.066   5.559  16.043  0.00  0.00    +0.000 A 
ATOM      5  C   UNL     1       6.567   5.182  14.799  0.00  0.00    +0.000 A 
ATOM      6  C   UNL     1       5.611   4.177  14.719  0.00  0.00    +0.000 A 
ATOM      7  C   UNL     1       5.138   3.572  15.883  0.00  0.00    +0.000 A 
ATOM      8  C   UNL     1       5.591   3.971  17.146  0.00  0.00    +0.000 A 
BRANCH   3   9
ATOM      9  S   UNL     1       7.324   5.493  18.730  0.00  0.00    +0.000 S 
ATOM     10  O   UNL     1       8.515   4.705  18.943  0.00  0.00    +0.000 OA
ATOM     11  O   UNL     1       6.317   5.651  19.752  0.00  0.00    +0.000 OA
BRANCH   9  12
ATOM     12  N   UNL     1       7.869   7.041  18.332  0.00  0.00    +0.000 NA
ATOM     13  H   UNL     1       7.454   7.313  17.438  0.00  0.00    +0.000 HD
ATOM     14  H   UNL     1       7.698   7.737  19.057  0.00  0.00    +0.000 HD
ENDBRANCH   9  12
ENDBRANCH   3   9
ENDBRANCH   1   8
BRANCH   1  15
ATOM     15  S   UNL     1       3.386   3.333  18.584  0.00  0.00    +0.000 S 
ATOM     16  O   UNL     1       2.707   2.444  17.659  0.00  0.00    +0.000 OA
ATOM     17  O   UNL     1       3.274   3.115  20.010  0.00  0.00    +0.000 OA
BRANCH  15  18
ATOM     18  C   UNL     1       2.846   4.951  18.262  0.00  0.00    +0.000 C 
ATOM     19  C   UNL     1       2.798   5.814  19.290  0.00  0.00    +0.000 C 
BRANCH  19  20
ATOM     20  C   UNL     1       2.320   7.198  19.205  0.00  0.00    +0.000 A 
ATOM     21  C   UNL     1       2.368   7.933  18.011  0.00  0.00    +0.000 A 
ATOM     22  C   UNL     1       1.802   9.209  17.938  0.00  0.00    +0.000 A 
ATOM     23  C   UNL     1       1.184   9.757  19.060  0.00  0.00    +0.000 A 
ATOM     24 BR   UNL     1       0.386  11.467  18.949  0.00  0.00    +0.000 Br
ATOM     25  C   UNL     1       1.135   9.047  20.256  0.00  0.00    +0.000 A 
ATOM     26  C   UNL     1       1.699   7.769  20.325  0.00  0.00    +0.000 A 
ENDBRANCH  19  20
ENDBRANCH  15  18
ENDBRANCH   1  15
TORSDOF 6
ENDMDL
MODEL 4
REMARK VINA RESULT:      -7.3      3.988      6.338
REMARK  Name = 
REMARK  6 active torsions:
REMARK  status: ('A' for Active; 'I' for Inactive)
REMARK    1  A    between atoms: N_1  and  S_2
REMARK    2  A    between atoms: S_2  and  C_5
REMARK    3  A    between atoms: C_10  and  N_11
REMARK    4  A    between atoms: N_11  and  S_12
REMARK    5  A    between atoms: S_12  and  C_15
REMARK    6  A    between atoms: C_16  and  C_17
REMARK                            x       y       z     vdW  Elec       q    Type
REMARK                         _______ _______ _______ _____ _____    ______ ____
ROOT
ATOM      1  N   UNL     1       5.531   7.046  16.654  0.00  0.00    +0.000 N 
ATOM      2  H   UNL     1       5.485   7.503  15.742  0.00  0.00    +0.000 HD
ENDROOT
BRANCH   1   8
ATOM      3  C   UNL     1       3.914   5.299  17.418  0.00  0.00    +0.000 A 
ATOM      4  C   UNL     1       2.735   4.994  18.124  0.00  0.00    +0.000 A 
ATOM      5  C   UNL     1       2.006   6.003  18.748  0.00  0.00    +0.000 A 
ATOM      6  C   UNL     1       2.467   7.313  18.701  0.00  0.00    +0.000 A 
ATOM      7  C   UNL     1       3.639   7.613  18.007  0.00  0.00    +0.000 A 
ATOM      8  C   UNL     1       4.359   6.621  17.331  0.00  0.00    +0.000 A 
BRANCH   3   9
ATOM      9  S   UNL     1       4.766   3.926  16.703  0.00  0.00    +0.000 S 
ATOM     10  O   UNL     1       5.165   4.302  15.366  0.00  0.00    +0.000 OA
ATOM     11  O   UNL     1       4.055   2.699  16.974  0.00  0.00    +0.000 OA
BRANCH   9  12
ATOM     12  N   UNL     1       6.193   3.876  17.604  0.00  0.00    +0.000 NA
ATOM     13  H   UNL     1       6.012   4.286  18.525  0.00  0.00    +0.000 HD
ATOM     14  H   UNL     1       6.603   2.946  17.678  0.00  0.00    +0.000 HD
ENDBRANCH   9  12
ENDBRANCH   3   9
ENDBRANCH   1   8
BRANCH   1  15
ATOM     15  S   UNL     1       7.046   6.968  17.378  0.00  0.00    +0.000 S 
ATOM     16  O   UNL     1       6.905   6.346  18.681  0.00  0.00    +0.000 OA
ATOM     17  O   UNL     1       7.913   6.377  16.383  0.00  0.00    +0.000 OA
BRANCH  15  18
ATOM     18  C   UNL     1       7.576   8.603  17.623  0.00  0.00    +0.000 C 
ATOM     19  C   UNL     1       8.604   8.811  18.463  0.00  0.00    +0.000 C 
BRANCH  19  20
ATOM     20  C   UNL     1       9.143  10.128  18.821  0.00  0.00    +0.000 A 
ATOM     21  C   UNL     1       9.276  10.543  20.154  0.00  0.00    +0.000 A 
ATOM     22  C   UNL     1       9.897  11.757  20.463  0.00  0.00    +0.000 A 
ATOM     23  C   UNL     1      10.390  12.562  19.438  0.00  0.00    +0.000 A 
ATOM     24 BR   UNL     1      11.263  14.185  19.858  0.00  0.00    +0.000 Br
ATOM     25  C   UNL     1      10.259  12.171  18.109  0.00  0.00    +0.000 A 
ATOM     26  C   UNL     1       9.641  10.955  17.803  0.00  0.00    +0.000 A 
ENDBRANCH  19  20
ENDBRANCH  15  18
ENDBRANCH   1  15
TORSDOF 6
ENDMDL
MODEL 5
REMARK VINA RESULT:      -7.2      2.121      2.809
REMARK  Name = 
REMARK  6 active torsions:
REMARK  status: ('A' for Active; 'I' for Inactive)
REMARK    1  A    between atoms: N_1  and  S_2
REMARK    2  A    between atoms: S_2  and  C_5
REMARK    3  A    between atoms: C_10  and  N_11
REMARK    4  A    between atoms: N_11  and  S_12
REMARK    5  A    between atoms: S_12  and  C_15
REMARK    6  A    between atoms: C_16  and  C_17
REMARK                            x       y       z     vdW  Elec       q    Type
REMARK                         _______ _______ _______ _____ _____    ______ ____
ROOT
ATOM      1  N   UNL     1       4.973   3.313  18.439  0.00  0.00    +0.000 N 
ATOM      2  H   UNL     1       5.617   2.910  19.121  0.00  0.00    +0.000 HD
ENDROOT
BRANCH   1   8
ATOM      3  C   UNL     1       6.493   4.954  17.323  0.00  0.00    +0.000 A 
ATOM      4  C   UNL     1       6.877   5.606  16.135  0.00  0.00    +0.000 A 
ATOM      5  C   UNL     1       6.221   5.334  14.938  0.00  0.00    +0.000 A 
ATOM      6  C   UNL     1       5.204   4.387  14.911  0.00  0.00    +0.000 A 
ATOM      7  C   UNL     1       4.829   3.737  16.086  0.00  0.00    +0.000 A 
ATOM      8  C   UNL     1       5.442   4.032  17.310  0.00  0.00    +0.000 A 
BRANCH   3   9
ATOM      9  S   UNL     1       7.428   5.359  18.767  0.00  0.00    +0.000 S 
ATOM     10  O   UNL     1       8.629   4.558  18.753  0.00  0.00    +0.000 OA
ATOM     11  O   UNL     1       6.563   5.425  19.921  0.00  0.00    +0.000 OA
BRANCH   9  12
ATOM     12  N   UNL     1       7.931   6.938  18.440  0.00  0.00    +0.000 NA
ATOM     13  H   UNL     1       8.406   6.948  17.534  0.00  0.00    +0.000 HD
ATOM     14  H   UNL     1       7.181   7.627  18.483  0.00  0.00    +0.000 HD
ENDBRANCH   9  12
ENDBRANCH   3   9
ENDBRANCH   1   8
BRANCH   1  15
ATOM     15  S   UNL     1       3.336   3.220  18.807  0.00  0.00    +0.000 S 
ATOM     16  O   UNL     1       2.716   2.252  17.920  0.00  0.00    +0.000 OA
ATOM     17  O   UNL     1       3.278   3.030  20.240  0.00  0.00    +0.000 OA
BRANCH  15  18
ATOM     18  C   UNL     1       2.647   4.776  18.462  0.00  0.00    +0.000 C 
ATOM     19  C   UNL     1       2.779   5.740  19.387  0.00  0.00    +0.000 C 
BRANCH  19  20
ATOM     20  C   UNL     1       2.216   7.091  19.280  0.00  0.00    +0.000 A 
ATOM     21  C   UNL     1       1.640   7.749  20.376  0.00  0.00    +0.000 A 
ATOM     22  C   UNL     1       1.215   9.077  20.265  0.00  0.00    +0.000 A 
ATOM     23  C   UNL     1       1.366   9.754  19.057  0.00  0.00    +0.000 A 
ATOM     24 BR   UNL     1       0.827  11.560  18.919  0.00  0.00    +0.000 Br
ATOM     25  C   UNL     1       1.928   9.113  17.956  0.00  0.00    +0.000 A 
ATOM     26  C   UNL     1       2.354   7.787  18.070  0.00  0.00    +0.000 A 
ENDBRANCH  19  20
ENDBRANCH  15  18
ENDBRANCH   1  15
TORSDOF 6
ENDMDL
MODEL 6
REMARK VINA RESULT:      -7.1      4.245      6.305
REMARK  Name = 
REMARK  6 active torsions:
REMARK  status: ('A' for Active; 'I' for Inactive)
REMARK    1  A    between atoms: N_1  and  S_2
REMARK    2  A    between atoms: S_2  and  C_5
REMARK    3  A    between atoms: C_10  and  N_11
REMARK    4  A    between atoms: N_11  and  S_12
REMARK    5  A    between atoms: S_12  and  C_15
REMARK    6  A    between atoms: C_16  and  C_17
REMARK                            x       y       z     vdW  Elec       q    Type
REMARK                         _______ _______ _______ _____ _____    ______ ____
ROOT
ATOM      1  N   UNL     1       5.832   7.312  16.721  0.00  0.00    +0.000 N 
ATOM      2  H   UNL     1       5.596   8.105  16.124  0.00  0.00    +0.000 HD
ENDROOT
BRANCH   1   8
ATOM      3  C   UNL     1       4.916   4.993  16.530  0.00  0.00    +0.000 A 
ATOM      4  C   UNL     1       3.918   4.071  16.902  0.00  0.00    +0.000 A 
ATOM      5  C   UNL     1       2.895   4.450  17.766  0.00  0.00    +0.000 A 
ATOM      6  C   UNL     1       2.880   5.738  18.290  0.00  0.00    +0.000 A 
ATOM      7  C   UNL     1       3.872   6.648  17.928  0.00  0.00    +0.000 A 
ATOM      8  C   UNL     1       4.882   6.301  17.022  0.00  0.00    +0.000 A 
BRANCH   3   9
ATOM      9  S   UNL     1       6.179   4.378  15.458  0.00  0.00    +0.000 S 
ATOM     10  O   UNL     1       6.515   5.428  14.525  0.00  0.00    +0.000 OA
ATOM     11  O   UNL     1       5.859   3.040  15.023  0.00  0.00    +0.000 OA
BRANCH   9  12
ATOM     12  N   UNL     1       7.505   4.253  16.496  0.00  0.00    +0.000 NA
ATOM     13  H   UNL     1       8.236   3.710  16.029  0.00  0.00    +0.000 HD
ATOM     14  H   UNL     1       7.855   5.151  16.829  0.00  0.00    +0.000 HD
ENDBRANCH   9  12
ENDBRANCH   3   9
ENDBRANCH   1   8
BRANCH   1  15
ATOM     15  S   UNL     1       7.343   7.347  17.456  0.00  0.00    +0.000 S 
ATOM     16  O   UNL     1       7.311   6.488  18.624  0.00  0.00    +0.000 OA
ATOM     17  O   UNL     1       8.289   7.089  16.392  0.00  0.00    +0.000 OA
BRANCH  15  18
ATOM     18  C   UNL     1       7.606   8.975  17.998  0.00  0.00    +0.000 C 
ATOM     19  C   UNL     1       8.856   9.330  18.340  0.00  0.00    +0.000 C 
BRANCH  19  20
ATOM     20  C   UNL     1       9.244  10.644  18.865  0.00  0.00    +0.000 A 
ATOM     21  C   UNL     1       9.355  10.896  20.240  0.00  0.00    +0.000 A 
ATOM     22  C   UNL     1       9.834  12.125  20.702  0.00  0.00    +0.000 A 
ATOM     23  C   UNL     1      10.207  13.109  19.789  0.00  0.00    +0.000 A 
ATOM     24 BR   UNL     1      10.891  14.757  20.414  0.00  0.00    +0.000 Br
ATOM     25  C   UNL     1      10.095  12.881  18.421  0.00  0.00    +0.000 A 
ATOM     26  C   UNL     1       9.618  11.649  17.962  0.00  0.00    +0.000 A 
ENDBRANCH  19  20
ENDBRANCH  15  18
ENDBRANCH   1  15
TORSDOF 6
ENDMDL
MODEL 7
REMARK VINA RESULT:      -7.1      3.345      5.928
REMARK  Name = 
REMARK  6 active torsions:
REMARK  status: ('A' for Active; 'I' for Inactive)
REMARK    1  A    between atoms: N_1  and  S_2
REMARK    2  A    between atoms: S_2  and  C_5
REMARK    3  A    between atoms: C_10  and  N_11
REMARK    4  A    between atoms: N_11  and  S_12
REMARK    5  A    between atoms: S_12  and  C_15
REMARK    6  A    between atoms: C_16  and  C_17
REMARK                            x       y       z     vdW  Elec       q    Type
REMARK                         _______ _______ _______ _____ _____    ______ ____
ROOT
ATOM      1  N   UNL     1       5.282   5.636  16.571  0.00  0.00    +0.000 N 
ATOM      2  H   UNL     1       5.081   5.245  15.650  0.00  0.00    +0.000 HD
ENDROOT
BRANCH   1   8
ATOM      3  C   UNL     1       3.575   5.182  18.341  0.00  0.00    +0.000 A 
ATOM      4  C   UNL     1       2.559   5.688  19.174  0.00  0.00    +0.000 A 
ATOM      5  C   UNL     1       2.215   7.036  19.128  0.00  0.00    +0.000 A 
ATOM      6  C   UNL     1       2.904   7.892  18.276  0.00  0.00    +0.000 A 
ATOM      7  C   UNL     1       3.915   7.392  17.456  0.00  0.00    +0.000 A 
ATOM      8  C   UNL     1       4.242   6.031  17.453  0.00  0.00    +0.000 A 
BRANCH   3   9
ATOM      9  S   UNL     1       3.943   3.463  18.522  0.00  0.00    +0.000 S 
ATOM     10  O   UNL     1       4.247   2.937  17.212  0.00  0.00    +0.000 OA
ATOM     11  O   UNL     1       2.980   2.835  19.396  0.00  0.00    +0.000 OA
BRANCH   9  12
ATOM     12  N   UNL     1       5.413   3.494  19.352  0.00  0.00    +0.000 NA
ATOM     13  H   UNL     1       5.855   2.575  19.266  0.00  0.00    +0.000 HD
ATOM     14  H   UNL     1       6.037   4.244  19.057  0.00  0.00    +0.000 HD
ENDBRANCH   9  12
ENDBRANCH   3   9
ENDBRANCH   1   8
BRANCH   1  15
ATOM     15  S   UNL     1       6.897   5.937  16.923  0.00  0.00    +0.000 S 
ATOM     16  O   UNL     1       7.288   5.110  18.050  0.00  0.00    +0.000 OA
ATOM     17  O   UNL     1       7.591   5.812  15.659  0.00  0.00    +0.000 OA
BRANCH  15  18
ATOM     18  C   UNL     1       7.011   7.597  17.416  0.00  0.00    +0.000 C 
ATOM     19  C   UNL     1       8.218   8.066  17.771  0.00  0.00    +0.000 C 
BRANCH  19  20
ATOM     20  C   UNL     1       8.482   9.425  18.260  0.00  0.00    +0.000 A 
ATOM     21  C   UNL     1       9.140   9.667  19.474  0.00  0.00    +0.000 A 
ATOM     22  C   UNL     1       9.474  10.971  19.854  0.00  0.00    +0.000 A 
ATOM     23  C   UNL     1       9.153  12.039  19.020  0.00  0.00    +0.000 A 
ATOM     24 BR   UNL     1       9.639  13.796  19.517  0.00  0.00    +0.000 Br
ATOM     25  C   UNL     1       8.491  11.818  17.815  0.00  0.00    +0.000 A 
ATOM     26  C   UNL     1       8.161  10.514  17.436  0.00  0.00    +0.000 A 
ENDBRANCH  19  20
ENDBRANCH  15  18
ENDBRANCH   1  15
TORSDOF 6
ENDMDL
MODEL 8
REMARK VINA RESULT:      -7.0      3.074      4.037
REMARK  Name = 
REMARK  6 active torsions:
REMARK  status: ('A' for Active; 'I' for Inactive)
REMARK    1  A    between atoms: N_1  and  S_2
REMARK    2  A    between atoms: S_2  and  C_5
REMARK    3  A    between atoms: C_10  and  N_11
REMARK    4  A    between atoms: N_11  and  S_12
REMARK    5  A    between atoms: S_12  and  C_15
REMARK    6  A    between atoms: C_16  and  C_17
REMARK                            x       y       z     vdW  Elec       q    Type
REMARK                         _______ _______ _______ _____ _____    ______ ____
ROOT
ATOM      1  N   UNL     1       3.860   5.612  19.692  0.00  0.00    +0.000 N 
ATOM      2  H   UNL     1       4.501   5.861  20.447  0.00  0.00    +0.000 HD
ENDROOT
BRANCH   1   8
ATOM      3  C   UNL     1       4.463   3.996  17.882  0.00  0.00    +0.000 A 
ATOM      4  C   UNL     1       4.939   3.798  16.572  0.00  0.00    +0.000 A 
ATOM      5  C   UNL     1       5.277   4.887  15.772  0.00  0.00    +0.000 A 
ATOM      6  C   UNL     1       5.109   6.177  16.261  0.00  0.00    +0.000 A 
ATOM      7  C   UNL     1       4.630   6.373  17.556  0.00  0.00    +0.000 A 
ATOM      8  C   UNL     1       4.332   5.291  18.393  0.00  0.00    +0.000 A 
BRANCH   3   9
ATOM      9  S   UNL     1       4.034   2.536  18.780  0.00  0.00    +0.000 S 
ATOM     10  O   UNL     1       4.727   2.579  20.047  0.00  0.00    +0.000 OA
ATOM     11  O   UNL     1       4.090   1.382  17.915  0.00  0.00    +0.000 OA
BRANCH   9  12
ATOM     12  N   UNL     1       2.407   2.800  19.143  0.00  0.00    +0.000 NA
ATOM     13  H   UNL     1       2.024   3.463  18.464  0.00  0.00    +0.000 HD
ATOM     14  H   UNL     1       1.852   1.946  19.193  0.00  0.00    +0.000 HD
ENDBRANCH   9  12
ENDBRANCH   3   9
ENDBRANCH   1   8
BRANCH   1  15
ATOM     15  S   UNL     1       2.219   5.757  20.024  0.00  0.00    +0.000 S 
ATOM     16  O   UNL     1       1.473   5.429  18.823  0.00  0.00    +0.000 OA
ATOM     17  O   UNL     1       2.008   4.998  21.238  0.00  0.00    +0.000 OA
BRANCH  15  18
ATOM     18  C   UNL     1       1.921   7.426  20.397  0.00  0.00    +0.000 C 
ATOM     19  C   UNL     1       0.919   7.711  21.244  0.00  0.00    +0.000 C 
BRANCH  19  20
ATOM     20  C   UNL     1       0.500   9.064  21.626  0.00  0.00    +0.000 A 
ATOM     21  C   UNL     1       0.818  10.191  20.854  0.00  0.00    +0.000 A 
ATOM     22  C   UNL     1       0.308  11.449  21.188  0.00  0.00    +0.000 A 
ATOM     23  C   UNL     1      -0.524  11.587  22.296  0.00  0.00    +0.000 A 
ATOM     24 BR   UNL     1      -1.244  13.281  22.724  0.00  0.00    +0.000 Br
ATOM     25  C   UNL     1      -0.844  10.481  23.080  0.00  0.00    +0.000 A 
ATOM     26  C   UNL     1      -0.335   9.224  22.742  0.00  0.00    +0.000 A 
ENDBRANCH  19  20
ENDBRANCH  15  18
ENDBRANCH   1  15
TORSDOF 6
ENDMDL
MODEL 9
REMARK VINA RESULT:      -7.0      3.066      4.065
REMARK  Name = 
REMARK  6 active torsions:
REMARK  status: ('A' for Active; 'I' for Inactive)
REMARK    1  A    between atoms: N_1  and  S_2
REMARK    2  A    between atoms: S_2  and  C_5
REMARK    3  A    between atoms: C_10  and  N_11
REMARK    4  A    between atoms: N_11  and  S_12
REMARK    5  A    between atoms: S_12  and  C_15
REMARK    6  A    between atoms: C_16  and  C_17
REMARK                            x       y       z     vdW  Elec       q    Type
REMARK                         _______ _______ _______ _____ _____    ______ ____
ROOT
ATOM      1  N   UNL     1       2.426   5.826  18.117  0.00  0.00    +0.000 N 
ATOM      2  H   UNL     1       1.542   5.984  17.630  0.00  0.00    +0.000 HD
ENDROOT
BRANCH   1   8
ATOM      3  C   UNL     1       3.963   4.033  17.296  0.00  0.00    +0.000 A 
ATOM      4  C   UNL     1       5.132   3.699  16.585  0.00  0.00    +0.000 A 
ATOM      5  C   UNL     1       5.911   4.694  16.000  0.00  0.00    +0.000 A 
ATOM      6  C   UNL     1       5.512   6.022  16.094  0.00  0.00    +0.000 A 
ATOM      7  C   UNL     1       4.351   6.352  16.792  0.00  0.00    +0.000 A 
ATOM      8  C   UNL     1       3.581   5.371  17.429  0.00  0.00    +0.000 A 
BRANCH   3   9
ATOM      9  S   UNL     1       3.044   2.677  17.958  0.00  0.00    +0.000 S 
ATOM     10  O   UNL     1       3.725   1.459  17.585  0.00  0.00    +0.000 OA
ATOM     11  O   UNL     1       1.632   2.868  17.724  0.00  0.00    +0.000 OA
BRANCH   9  12
ATOM     12  N   UNL     1       3.294   2.847  19.619  0.00  0.00    +0.000 NA
ATOM     13  H   UNL     1       2.432   3.196  20.045  0.00  0.00    +0.000 HD
ATOM     14  H   UNL     1       3.625   1.997  20.075  0.00  0.00    +0.000 HD
ENDBRANCH   9  12
ENDBRANCH   3   9
ENDBRANCH   1   8
BRANCH   1  15
ATOM     15  S   UNL     1       2.398   5.976  19.790  0.00  0.00    +0.000 S 
ATOM     16  O   UNL     1       1.372   5.096  20.318  0.00  0.00    +0.000 OA
ATOM     17  O   UNL     1       3.774   5.819  20.209  0.00  0.00    +0.000 OA
BRANCH  15  18
ATOM     18  C   UNL     1       1.932   7.611  20.146  0.00  0.00    +0.000 C 
ATOM     19  C   UNL     1       1.115   7.817  21.192  0.00  0.00    +0.000 C 
BRANCH  19  20
ATOM     20  C   UNL     1       0.585   9.124  21.599  0.00  0.00    +0.000 A 
ATOM     21  C   UNL     1       0.786  10.282  20.836  0.00  0.00    +0.000 A 
ATOM     22  C   UNL     1       0.172  11.487  21.196  0.00  0.00    +0.000 A 
ATOM     23  C   UNL     1      -0.647  11.537  22.321  0.00  0.00    +0.000 A 
ATOM     24 BR   UNL     1      -1.506  13.155  22.786  0.00  0.00    +0.000 Br
ATOM     25  C   UNL     1      -0.850  10.398  23.097  0.00  0.00    +0.000 A 
ATOM     26  C   UNL     1      -0.238   9.195  22.733  0.00  0.00    +0.000 A 
ENDBRANCH  19  20
ENDBRANCH  15  18
ENDBRANCH   1  15
TORSDOF 6
ENDMDL
