MODEL 1
REMARK VINA RESULT:      -6.5      0.000      0.000
REMARK  Name = 
REMARK  3 active torsions:
REMARK  status: ('A' for Active; 'I' for Inactive)
REMARK    1  A    between atoms: C_2  and  C_3
REMARK    2  A    between atoms: C_2  and  C_11
REMARK    3  A    between atoms: C_3  and  N_5
REMARK                            x       y       z     vdW  Elec       q    Type
REMARK                         _______ _______ _______ _____ _____    ______ ____
ROOT
ATOM      1  O   UNL     1       1.796   3.936  17.425  0.00  0.00    +0.000 OA
ATOM      2  C   UNL     1       2.657   4.430  18.138  0.00  0.00    +0.000 C 
ENDROOT
BRANCH   2   3
ATOM      3  C   UNL     1       2.392   5.726  18.843  0.00  0.00    +0.000 A 
ATOM      4  C   UNL     1       2.482   6.958  18.185  0.00  0.00    +0.000 A 
ATOM      5  C   UNL     1       2.065   8.129  18.821  0.00  0.00    +0.000 A 
ATOM      6  C   UNL     1       1.601   8.082  20.134  0.00  0.00    +0.000 A 
ATOM      7 BR   UNL     1       0.993   9.665  20.967  0.00  0.00    +0.000 Br
ATOM      8  C   UNL     1       1.572   6.871  20.827  0.00  0.00    +0.000 A 
ATOM      9  C   UNL     1       1.970   5.693  20.183  0.00  0.00    +0.000 A 
ENDBRANCH   2   3
BRANCH   2  10
ATOM     10  C   UNL     1       4.020   3.725  18.234  0.00  0.00    +0.000 C 
ATOM     11  S   UNL     1       4.056   2.393  19.267  0.00  0.00    +0.000 S 
BRANCH  10  12
ATOM     12  N   UNL     1       5.119   4.246  17.536  0.00  0.00    +0.000 N 
ATOM     13  C   UNL     1       5.155   4.413  16.071  0.00  0.00    +0.000 C 
ATOM     14  C   UNL     1       6.553   4.099  15.519  0.00  0.00    +0.000 C 
ATOM     15  O   UNL     1       7.579   4.849  16.187  0.00  0.00    +0.000 OA
ATOM     16  C   UNL     1       7.563   4.583  17.598  0.00  0.00    +0.000 C 
ATOM     17  C   UNL     1       6.215   4.972  18.206  0.00  0.00    +0.000 C 
ENDBRANCH  10  12
ENDBRANCH   2  10
TORSDOF 3
ENDMDL
MODEL 2
REMARK VINA RESULT:      -6.4      0.481      1.261
REMARK  Name = 
REMARK  3 active torsions:
REMARK  status: ('A' for Active; 'I' for Inactive)
REMARK    1  A    between atoms: C_2  and  C_3
REMARK    2  A    between atoms: C_2  and  C_11
REMARK    3  A    between atoms: C_3  and  N_5
REMARK                            x       y       z     vdW  Elec       q    Type
REMARK                         _______ _______ _______ _____ _____    ______ ____
ROOT
ATOM      1  O   UNL     1       1.989   3.453  17.313  0.00  0.00    +0.000 OA
ATOM      2  C   UNL     1       2.731   3.992  18.120  0.00  0.00    +0.000 C 
ENDROOT
BRANCH   2   3
ATOM      3  C   UNL     1       2.259   5.192  18.885  0.00  0.00    +0.000 A 
ATOM      4  C   UNL     1       1.662   5.078  20.147  0.00  0.00    +0.000 A 
ATOM      5  C   UNL     1       1.391   6.218  20.904  0.00  0.00    +0.000 A 
ATOM      6  C   UNL     1       1.670   7.482  20.386  0.00  0.00    +0.000 A 
ATOM      7 BR   UNL     1       1.345   9.016  21.440  0.00  0.00    +0.000 Br
ATOM      8  C   UNL     1       2.200   7.615  19.103  0.00  0.00    +0.000 A 
ATOM      9  C   UNL     1       2.492   6.470  18.350  0.00  0.00    +0.000 A 
ENDBRANCH   2   3
BRANCH   2  10
ATOM     10  C   UNL     1       4.160   3.449  18.276  0.00  0.00    +0.000 C 
ATOM     11  S   UNL     1       4.309   2.139  19.328  0.00  0.00    +0.000 S 
BRANCH  10  12
ATOM     12  N   UNL     1       5.219   4.086  17.614  0.00  0.00    +0.000 N 
ATOM     13  C   UNL     1       5.240   4.341  16.160  0.00  0.00    +0.000 C 
ATOM     14  C   UNL     1       6.656   4.160  15.595  0.00  0.00    +0.000 C 
ATOM     15  O   UNL     1       7.627   4.940  16.308  0.00  0.00    +0.000 OA
ATOM     16  C   UNL     1       7.632   4.591  17.700  0.00  0.00    +0.000 C 
ATOM     17  C   UNL     1       6.262   4.847  18.327  0.00  0.00    +0.000 C 
ENDBRANCH  10  12
ENDBRANCH   2  10
TORSDOF 3
ENDMDL
MODEL 3
REMARK VINA RESULT:      -6.3      1.399      1.521
REMARK  Name = 
REMARK  3 active torsions:
REMARK  status: ('A' for Active; 'I' for Inactive)
REMARK    1  A    between atoms: C_2  and  C_3
REMARK    2  A    between atoms: C_2  and  C_11
REMARK    3  A    between atoms: C_3  and  N_5
REMARK                            x       y       z     vdW  Elec       q    Type
REMARK                         _______ _______ _______ _____ _____    ______ ____
ROOT
ATOM      1  O   UNL     1       3.135   4.700  20.208  0.00  0.00    +0.000 OA
ATOM      2  C   UNL     1       3.173   5.323  19.158  0.00  0.00    +0.000 C 
ENDROOT
BRANCH   2   3
ATOM      3  C   UNL     1       2.647   6.725  19.100  0.00  0.00    +0.000 A 
ATOM      4  C   UNL     1       2.696   7.486  17.926  0.00  0.00    +0.000 A 
ATOM      5  C   UNL     1       2.047   8.720  17.857  0.00  0.00    +0.000 A 
ATOM      6  C   UNL     1       1.385   9.222  18.976  0.00  0.00    +0.000 A 
ATOM      7 BR   UNL     1       0.467  10.870  18.857  0.00  0.00    +0.000 Br
ATOM      8  C   UNL     1       1.386   8.508  20.174  0.00  0.00    +0.000 A 
ATOM      9  C   UNL     1       2.019   7.260  20.238  0.00  0.00    +0.000 A 
ENDBRANCH   2   3
BRANCH   2  10
ATOM     10  C   UNL     1       3.708   4.611  17.905  0.00  0.00    +0.000 C 
ATOM     11  S   UNL     1       2.699   3.408  17.289  0.00  0.00    +0.000 S 
BRANCH  10  12
ATOM     12  N   UNL     1       4.976   4.946  17.408  0.00  0.00    +0.000 N 
ATOM     13  C   UNL     1       5.234   5.306  16.000  0.00  0.00    +0.000 C 
ATOM     14  C   UNL     1       6.585   4.747  15.532  0.00  0.00    +0.000 C 
ATOM     15  O   UNL     1       7.659   5.126  16.407  0.00  0.00    +0.000 OA
ATOM     16  C   UNL     1       7.405   4.673  17.745  0.00  0.00    +0.000 C 
ATOM     17  C   UNL     1       6.112   5.284  18.285  0.00  0.00    +0.000 C 
ENDBRANCH  10  12
ENDBRANCH   2  10
TORSDOF 3
ENDMDL
MODEL 4
REMARK VINA RESULT:      -6.2      1.720      2.164
REMARK  Name = 
REMARK  3 active torsions:
REMARK  status: ('A' for Active; 'I' for Inactive)
REMARK    1  A    between atoms: C_2  and  C_3
REMARK    2  A    between atoms: C_2  and  C_11
REMARK    3  A    between atoms: C_3  and  N_5
REMARK                            x       y       z     vdW  Elec       q    Type
REMARK                         _______ _______ _______ _____ _____    ______ ____
ROOT
ATOM      1  O   UNL     1       4.141   5.461  19.911  0.00  0.00    +0.000 OA
ATOM      2  C   UNL     1       3.564   5.846  18.905  0.00  0.00    +0.000 C 
ENDROOT
BRANCH   2   3
ATOM      3  C   UNL     1       2.633   7.018  18.978  0.00  0.00    +0.000 A 
ATOM      4  C   UNL     1       2.001   7.388  20.171  0.00  0.00    +0.000 A 
ATOM      5  C   UNL     1       1.278   8.579  20.246  0.00  0.00    +0.000 A 
ATOM      6  C   UNL     1       1.143   9.385  19.117  0.00  0.00    +0.000 A 
ATOM      7 BR   UNL     1       0.205  11.020  19.243  0.00  0.00    +0.000 Br
ATOM      8  C   UNL     1       1.709   8.996  17.903  0.00  0.00    +0.000 A 
ATOM      9  C   UNL     1       2.452   7.811  17.832  0.00  0.00    +0.000 A 
ENDBRANCH   2   3
BRANCH   2  10
ATOM     10  C   UNL     1       3.770   5.061  17.599  0.00  0.00    +0.000 C 
ATOM     11  S   UNL     1       2.603   3.883  17.289  0.00  0.00    +0.000 S 
BRANCH  10  12
ATOM     12  N   UNL     1       4.900   5.316  16.809  0.00  0.00    +0.000 N 
ATOM     13  C   UNL     1       5.236   4.556  15.590  0.00  0.00    +0.000 C 
ATOM     14  C   UNL     1       6.753   4.356  15.471  0.00  0.00    +0.000 C 
ATOM     15  O   UNL     1       7.470   5.597  15.565  0.00  0.00    +0.000 OA
ATOM     16  C   UNL     1       7.182   6.255  16.807  0.00  0.00    +0.000 C 
ATOM     17  C   UNL     1       5.688   6.558  16.924  0.00  0.00    +0.000 C 
ENDBRANCH  10  12
ENDBRANCH   2  10
TORSDOF 3
ENDMDL
MODEL 5
REMARK VINA RESULT:      -6.2      3.705      6.175
REMARK  Name = 
REMARK  3 active torsions:
REMARK  status: ('A' for Active; 'I' for Inactive)
REMARK    1  A    between atoms: C_2  and  C_3
REMARK    2  A    between atoms: C_2  and  C_11
REMARK    3  A    between atoms: C_3  and  N_5
REMARK                            x       y       z     vdW  Elec       q    Type
REMARK                         _______ _______ _______ _____ _____    ______ ____
ROOT
ATOM      1  O   UNL     1       5.578   5.250  19.714  0.00  0.00    +0.000 OA
ATOM      2  C   UNL     1       4.866   5.226  18.722  0.00  0.00    +0.000 C 
ENDROOT
BRANCH   2   3
ATOM      3  C   UNL     1       5.459   4.908  17.382  0.00  0.00    +0.000 A 
ATOM      4  C   UNL     1       4.733   4.231  16.394  0.00  0.00    +0.000 A 
ATOM      5  C   UNL     1       5.251   4.101  15.105  0.00  0.00    +0.000 A 
ATOM      6  C   UNL     1       6.516   4.605  14.807  0.00  0.00    +0.000 A 
ATOM      7 BR   UNL     1       7.186   4.468  13.045  0.00  0.00    +0.000 Br
ATOM      8  C   UNL     1       7.280   5.220  15.799  0.00  0.00    +0.000 A 
ATOM      9  C   UNL     1       6.753   5.369  17.088  0.00  0.00    +0.000 A 
ENDBRANCH   2   3
BRANCH   2  10
ATOM     10  C   UNL     1       3.381   5.589  18.879  0.00  0.00    +0.000 C 
ATOM     11  S   UNL     1       2.950   7.094  18.252  0.00  0.00    +0.000 S 
BRANCH  10  12
ATOM     12  N   UNL     1       2.522   4.714  19.560  0.00  0.00    +0.000 N 
ATOM     13  C   UNL     1       2.256   4.791  21.009  0.00  0.00    +0.000 C 
ATOM     14  C   UNL     1       2.120   3.387  21.615  0.00  0.00    +0.000 C 
ATOM     15  O   UNL     1       1.154   2.588  20.917  0.00  0.00    +0.000 OA
ATOM     16  C   UNL     1       1.506   2.466  19.530  0.00  0.00    +0.000 C 
ATOM     17  C   UNL     1       1.559   3.841  18.864  0.00  0.00    +0.000 C 
ENDBRANCH  10  12
ENDBRANCH   2  10
TORSDOF 3
ENDMDL
MODEL 6
REMARK VINA RESULT:      -6.1      1.254      1.735
REMARK  Name = 
REMARK  3 active torsions:
REMARK  status: ('A' for Active; 'I' for Inactive)
REMARK    1  A    between atoms: C_2  and  C_3
REMARK    2  A    between atoms: C_2  and  C_11
REMARK    3  A    between atoms: C_3  and  N_5
REMARK                            x       y       z     vdW  Elec       q    Type
REMARK                         _______ _______ _______ _____ _____    ______ ____
ROOT
ATOM      1  O   UNL     1       3.363   4.380  20.415  0.00  0.00    +0.000 OA
ATOM      2  C   UNL     1       3.259   4.939  19.334  0.00  0.00    +0.000 C 
ENDROOT
BRANCH   2   3
ATOM      3  C   UNL     1       2.602   6.284  19.247  0.00  0.00    +0.000 A 
ATOM      4  C   UNL     1       2.057   6.915  20.372  0.00  0.00    +0.000 A 
ATOM      5  C   UNL     1       1.607   8.234  20.291  0.00  0.00    +0.000 A 
ATOM      6  C   UNL     1       1.655   8.914  19.075  0.00  0.00    +0.000 A 
ATOM      7 BR   UNL     1       1.090  10.715  18.989  0.00  0.00    +0.000 Br
ATOM      8  C   UNL     1       2.131   8.275  17.930  0.00  0.00    +0.000 A 
ATOM      9  C   UNL     1       2.602   6.959  18.014  0.00  0.00    +0.000 A 
ENDBRANCH   2   3
BRANCH   2  10
ATOM     10  C   UNL     1       3.755   4.203  18.079  0.00  0.00    +0.000 C 
ATOM     11  S   UNL     1       2.795   2.904  17.594  0.00  0.00    +0.000 S 
BRANCH  10  12
ATOM     12  N   UNL     1       4.957   4.598  17.475  0.00  0.00    +0.000 N 
ATOM     13  C   UNL     1       5.121   4.782  16.020  0.00  0.00    +0.000 C 
ATOM     14  C   UNL     1       6.508   4.310  15.562  0.00  0.00    +0.000 C 
ATOM     15  O   UNL     1       7.564   4.921  16.320  0.00  0.00    +0.000 OA
ATOM     16  C   UNL     1       7.412   4.637  17.719  0.00  0.00    +0.000 C 
ATOM     17  C   UNL     1       6.079   5.176  18.238  0.00  0.00    +0.000 C 
ENDBRANCH  10  12
ENDBRANCH   2  10
TORSDOF 3
ENDMDL
MODEL 7
REMARK VINA RESULT:      -6.1      3.819      6.273
REMARK  Name = 
REMARK  3 active torsions:
REMARK  status: ('A' for Active; 'I' for Inactive)
REMARK    1  A    between atoms: C_2  and  C_3
REMARK    2  A    between atoms: C_2  and  C_11
REMARK    3  A    between atoms: C_3  and  N_5
REMARK                            x       y       z     vdW  Elec       q    Type
REMARK                         _______ _______ _______ _____ _____    ______ ____
ROOT
ATOM      1  O   UNL     1       6.085   4.272  18.884  0.00  0.00    +0.000 OA
ATOM      2  C   UNL     1       5.295   4.613  18.017  0.00  0.00    +0.000 C 
ENDROOT
BRANCH   2   3
ATOM      3  C   UNL     1       5.723   4.635  16.581  0.00  0.00    +0.000 A 
ATOM      4  C   UNL     1       6.997   5.069  16.195  0.00  0.00    +0.000 A 
ATOM      5  C   UNL     1       7.424   4.918  14.875  0.00  0.00    +0.000 A 
ATOM      6  C   UNL     1       6.564   4.374  13.922  0.00  0.00    +0.000 A 
ATOM      7 BR   UNL     1       7.170   4.127  12.150  0.00  0.00    +0.000 Br
ATOM      8  C   UNL     1       5.267   4.000  14.276  0.00  0.00    +0.000 A 
ATOM      9  C   UNL     1       4.845   4.133  15.605  0.00  0.00    +0.000 A 
ENDBRANCH   2   3
BRANCH   2  10
ATOM     10  C   UNL     1       3.893   5.074  18.446  0.00  0.00    +0.000 C 
ATOM     11  S   UNL     1       3.540   6.686  18.100  0.00  0.00    +0.000 S 
BRANCH  10  12
ATOM     12  N   UNL     1       3.050   4.183  19.127  0.00  0.00    +0.000 N 
ATOM     13  C   UNL     1       2.832   2.784  18.714  0.00  0.00    +0.000 C 
ATOM     14  C   UNL     1       1.372   2.367  18.944  0.00  0.00    +0.000 C 
ATOM     15  O   UNL     1       0.945   2.619  20.292  0.00  0.00    +0.000 OA
ATOM     16  C   UNL     1       1.091   4.010  20.616  0.00  0.00    +0.000 C 
ATOM     17  C   UNL     1       2.551   4.444  20.490  0.00  0.00    +0.000 C 
ENDBRANCH  10  12
ENDBRANCH   2  10
TORSDOF 3
ENDMDL
MODEL 8
REMARK VINA RESULT:      -6.1      1.496      2.262
REMARK  Name = 
REMARK  3 active torsions:
REMARK  status: ('A' for Active; 'I' for Inactive)
REMARK    1  A    between atoms: C_2  and  C_3
REMARK    2  A    between atoms: C_2  and  C_11
REMARK    3  A    between atoms: C_3  and  N_5
REMARK                            x       y       z     vdW  Elec       q    Type
REMARK                         _______ _______ _______ _____ _____    ______ ____
ROOT
ATOM      1  O   UNL     1       3.723   4.795  20.167  0.00  0.00    +0.000 OA
ATOM      2  C   UNL     1       3.449   5.300  19.089  0.00  0.00    +0.000 C 
ENDROOT
BRANCH   2   3
ATOM      3  C   UNL     1       2.695   6.594  19.039  0.00  0.00    +0.000 A 
ATOM      4  C   UNL     1       2.009   7.094  20.153  0.00  0.00    +0.000 A 
ATOM      5  C   UNL     1       1.461   8.378  20.126  0.00  0.00    +0.000 A 
ATOM      6  C   UNL     1       1.555   9.151  18.970  0.00  0.00    +0.000 A 
ATOM      7 BR   UNL     1       0.854  10.906  18.961  0.00  0.00    +0.000 Br
ATOM      8  C   UNL     1       2.174   8.640  17.829  0.00  0.00    +0.000 A 
ATOM      9  C   UNL     1       2.742   7.360  17.862  0.00  0.00    +0.000 A 
ENDBRANCH   2   3
BRANCH   2  10
ATOM     10  C   UNL     1       3.839   4.545  17.808  0.00  0.00    +0.000 C 
ATOM     11  S   UNL     1       2.698   3.425  17.271  0.00  0.00    +0.000 S 
BRANCH  10  12
ATOM     12  N   UNL     1       5.092   4.776  17.223  0.00  0.00    +0.000 N 
ATOM     13  C   UNL     1       6.217   5.423  17.925  0.00  0.00    +0.000 C 
ATOM     14  C   UNL     1       7.007   6.331  16.972  0.00  0.00    +0.000 C 
ATOM     15  O   UNL     1       7.421   5.637  15.784  0.00  0.00    +0.000 OA
ATOM     16  C   UNL     1       6.284   5.105  15.088  0.00  0.00    +0.000 C 
ATOM     17  C   UNL     1       5.520   4.120  15.973  0.00  0.00    +0.000 C 
ENDBRANCH  10  12
ENDBRANCH   2  10
TORSDOF 3
ENDMDL
MODEL 9
REMARK VINA RESULT:      -6.1      2.270      3.608
REMARK  Name = 
REMARK  3 active torsions:
REMARK  status: ('A' for Active; 'I' for Inactive)
REMARK    1  A    between atoms: C_2  and  C_3
REMARK    2  A    between atoms: C_2  and  C_11
REMARK    3  A    between atoms: C_3  and  N_5
REMARK                            x       y       z     vdW  Elec       q    Type
REMARK                         _______ _______ _______ _____ _____    ______ ____
ROOT
ATOM      1  O   UNL     1       4.256   7.081  16.740  0.00  0.00    +0.000 OA
ATOM      2  C   UNL     1       3.706   6.685  17.757  0.00  0.00    +0.000 C 
ENDROOT
BRANCH   2   3
ATOM      3  C   UNL     1       2.684   7.545  18.437  0.00  0.00    +0.000 A 
ATOM      4  C   UNL     1       2.294   7.322  19.764  0.00  0.00    +0.000 A 
ATOM      5  C   UNL     1       1.471   8.238  20.420  0.00  0.00    +0.000 A 
ATOM      6  C   UNL     1       0.994   9.358  19.741  0.00  0.00    +0.000 A 
ATOM      7 BR   UNL     1      -0.078  10.617  20.654  0.00  0.00    +0.000 Br
ATOM      8  C   UNL     1       1.317   9.557  18.399  0.00  0.00    +0.000 A 
ATOM      9  C   UNL     1       2.160   8.649  17.745  0.00  0.00    +0.000 A 
ENDBRANCH   2   3
BRANCH   2  10
ATOM     10  C   UNL     1       4.136   5.330  18.341  0.00  0.00    +0.000 C 
ATOM     11  S   UNL     1       5.626   5.340  19.130  0.00  0.00    +0.000 S 
BRANCH  10  12
ATOM     12  N   UNL     1       3.329   4.201  18.138  0.00  0.00    +0.000 N 
ATOM     13  C   UNL     1       1.872   4.266  17.914  0.00  0.00    +0.000 C 
ATOM     14  C   UNL     1       1.161   3.093  18.602  0.00  0.00    +0.000 C 
ATOM     15  O   UNL     1       1.722   1.826  18.229  0.00  0.00    +0.000 OA
ATOM     16  C   UNL     1       3.120   1.778  18.551  0.00  0.00    +0.000 C 
ATOM     17  C   UNL     1       3.884   2.875  17.808  0.00  0.00    +0.000 C 
ENDBRANCH  10  12
ENDBRANCH   2  10
TORSDOF 3
ENDMDL
