MODEL 1
REMARK VINA RESULT:      -7.1      0.000      0.000
REMARK  Name = 
REMARK  14 active torsions:
REMARK  status: ('A' for Active; 'I' for Inactive)
REMARK    1  A    between atoms: C_1  and  C_2
REMARK    2  A    between atoms: C_2  and  C_3
REMARK    3  A    between atoms: C_3  and  C_4
REMARK    4  A    between atoms: C_4  and  C_5
REMARK    5  A    between atoms: C_5  and  C_6
REMARK    6  A    between atoms: C_6  and  C_7
REMARK    7  A    between atoms: C_7  and  O_8
REMARK    8  A    between atoms: O_8  and  C_9
REMARK    9  A    between atoms: C_9  and  C_10
REMARK   10  A    between atoms: C_10  and  C_11
REMARK   11  A    between atoms: N_15  and  C1*_16
REMARK   12  A    between atoms: C3*_18  and  O3*_19
REMARK   13  A    between atoms: C4*_20  and  C5*_21
REMARK   14  A    between atoms: C5*_21  and  O5*_22
REMARK                            x       y       z     vdW  Elec       q    Type
REMARK                         _______ _______ _______ _____ _____    ______ ____
ROOT
ATOM      1  C   UNL     1       3.516   6.660  18.473  0.00  0.00    +0.000 A 
ATOM      2  C   UNL     1       3.041   7.677  17.744  0.00  0.00    +0.000 A 
ATOM      3  C   UNL     1       2.111   8.304  18.601  0.00  0.00    +0.000 A 
ATOM      4  C   UNL     1       1.299   9.350  18.524  0.00  0.00    +0.000 A 
ATOM      5  N   UNL     1       0.488   9.670  19.598  0.00  0.00    +0.000 N 
ATOM      6  C   UNL     1       0.530   8.947  20.813  0.00  0.00    +0.000 A 
ATOM      7  O   UNL     1      -0.163   9.289  21.768  0.00  0.00    +0.000 OA
ATOM      8  N   UNL     1       1.368   7.853  20.907  0.00  0.00    +0.000 NA
ATOM      9  C   UNL     1       2.075   7.589  19.872  0.00  0.00    +0.000 A 
ATOM     10  O   UNL     1       2.967   6.546  19.779  0.00  0.00    +0.000 OA
ENDROOT
BRANCH   5  11
ATOM     11  C1* UNL     1      -0.425  10.801  19.533  0.00  0.00    +0.000 C 
ATOM     12  C2* UNL     1       0.028  11.911  18.593  0.00  0.00    +0.000 C 
ATOM     13  C3* UNL     1      -1.285  12.546  18.195  0.00  0.00    +0.000 C 
ATOM     14  C4* UNL     1      -2.253  11.365  18.165  0.00  0.00    +0.000 C 
ATOM     15  O4* UNL     1      -1.721  10.367  19.069  0.00  0.00    +0.000 OA
BRANCH  13  16
ATOM     16  O3* UNL     1      -1.670  13.507  19.178  0.00  0.00    +0.000 OA
ATOM     17  H3* UNL     1      -1.327  13.242  20.051  0.00  0.00    +0.000 HD
ENDBRANCH  13  16
BRANCH  14  18
ATOM     18  C5* UNL     1      -2.363  10.736  16.773  0.00  0.00    +0.000 C 
BRANCH  18  19
ATOM     19  O5* UNL     1      -2.835  11.692  15.825  0.00  0.00    +0.000 OA
ATOM     20  H5* UNL     1      -3.624  12.111  16.218  0.00  0.00    +0.000 HD
ENDBRANCH  18  19
ENDBRANCH  14  18
ENDBRANCH   5  11
BRANCH   1  21
ATOM     21  C   UNL     1       4.554   5.663  18.072  0.00  0.00    +0.000 C 
BRANCH  21  22
ATOM     22  C   UNL     1       5.378   5.186  19.264  0.00  0.00    +0.000 C 
BRANCH  22  23
ATOM     23  O   UNL     1       5.281   3.762  19.380  0.00  0.00    +0.000 OA
BRANCH  23  24
ATOM     24  C   UNL     1       4.734   3.204  18.186  0.00  0.00    +0.000 C 
BRANCH  24  25
ATOM     25  C   UNL     1       3.629   2.215  18.533  0.00  0.00    +0.000 C 
BRANCH  25  26
ATOM     26  C   UNL     1       2.416   2.446  17.631  0.00  0.00    +0.000 C 
BRANCH  26  27
ATOM     27  C   UNL     1       1.433   3.446  18.237  0.00  0.00    +0.000 C 
BRANCH  27  28
ATOM     28  C   UNL     1       0.873   2.920  19.559  0.00  0.00    +0.000 C 
BRANCH  28  30
ATOM     29  C   UNL     1       2.094   3.266  21.731  0.00  0.00    +0.000 C 
ATOM     30  C   UNL     1       1.156   3.884  20.708  0.00  0.00    +0.000 C 
ENDBRANCH  28  30
ENDBRANCH  27  28
ENDBRANCH  26  27
ENDBRANCH  25  26
ENDBRANCH  24  25
ENDBRANCH  23  24
ENDBRANCH  22  23
ENDBRANCH  21  22
ENDBRANCH   1  21
TORSDOF 13
ENDMDL
MODEL 2
REMARK VINA RESULT:      -6.7      2.957      4.784
REMARK  Name = 
REMARK  14 active torsions:
REMARK  status: ('A' for Active; 'I' for Inactive)
REMARK    1  A    between atoms: C_1  and  C_2
REMARK    2  A    between atoms: C_2  and  C_3
REMARK    3  A    between atoms: C_3  and  C_4
REMARK    4  A    between atoms: C_4  and  C_5
REMARK    5  A    between atoms: C_5  and  C_6
REMARK    6  A    between atoms: C_6  and  C_7
REMARK    7  A    between atoms: C_7  and  O_8
REMARK    8  A    between atoms: O_8  and  C_9
REMARK    9  A    between atoms: C_9  and  C_10
REMARK   10  A    between atoms: C_10  and  C_11
REMARK   11  A    between atoms: N_15  and  C1*_16
REMARK   12  A    between atoms: C3*_18  and  O3*_19
REMARK   13  A    between atoms: C4*_20  and  C5*_21
REMARK   14  A    between atoms: C5*_21  and  O5*_22
REMARK                            x       y       z     vdW  Elec       q    Type
REMARK                         _______ _______ _______ _____ _____    ______ ____
ROOT
ATOM      1  C   UNL     1       3.575   6.457  18.373  0.00  0.00    +0.000 A 
ATOM      2  C   UNL     1       3.150   7.524  17.688  0.00  0.00    +0.000 A 
ATOM      3  C   UNL     1       2.247   8.156  18.569  0.00  0.00    +0.000 A 
ATOM      4  C   UNL     1       1.484   9.242  18.536  0.00  0.00    +0.000 A 
ATOM      5  N   UNL     1       0.685   9.552  19.622  0.00  0.00    +0.000 N 
ATOM      6  C   UNL     1       0.689   8.776  20.804  0.00  0.00    +0.000 A 
ATOM      7  O   UNL     1       0.009   9.109  21.771  0.00  0.00    +0.000 OA
ATOM      8  N   UNL     1       1.475   7.642  20.853  0.00  0.00    +0.000 NA
ATOM      9  C   UNL     1       2.173   7.391  19.809  0.00  0.00    +0.000 A 
ATOM     10  O   UNL     1       3.017   6.312  19.673  0.00  0.00    +0.000 OA
ENDROOT
BRANCH   5  11
ATOM     11  C1* UNL     1      -0.175  10.727  19.604  0.00  0.00    +0.000 C 
ATOM     12  C2* UNL     1       0.266  11.803  18.620  0.00  0.00    +0.000 C 
ATOM     13  C3* UNL     1      -1.040  12.497  18.303  0.00  0.00    +0.000 C 
ATOM     14  C4* UNL     1      -2.063  11.365  18.356  0.00  0.00    +0.000 C 
ATOM     15  O4* UNL     1      -1.519  10.352  19.236  0.00  0.00    +0.000 OA
BRANCH  13  16
ATOM     16  O3* UNL     1      -1.309  13.487  19.298  0.00  0.00    +0.000 OA
ATOM     17  H3* UNL     1      -0.709  14.245  19.179  0.00  0.00    +0.000 HD
ENDBRANCH  13  16
BRANCH  14  18
ATOM     18  C5* UNL     1      -2.300  10.728  16.983  0.00  0.00    +0.000 C 
BRANCH  18  19
ATOM     19  O5* UNL     1      -2.301  11.723  15.961  0.00  0.00    +0.000 OA
ATOM     20  H5* UNL     1      -2.170  11.254  15.115  0.00  0.00    +0.000 HD
ENDBRANCH  18  19
ENDBRANCH  14  18
ENDBRANCH   5  11
BRANCH   1  21
ATOM     21  C   UNL     1       4.568   5.430  17.932  0.00  0.00    +0.000 C 
BRANCH  21  22
ATOM     22  C   UNL     1       5.523   5.040  19.055  0.00  0.00    +0.000 C 
BRANCH  22  23
ATOM     23  O   UNL     1       6.652   5.921  19.058  0.00  0.00    +0.000 OA
BRANCH  23  24
ATOM     24  C   UNL     1       7.192   6.038  17.741  0.00  0.00    +0.000 C 
BRANCH  24  25
ATOM     25  C   UNL     1       7.443   7.503  17.410  0.00  0.00    +0.000 C 
BRANCH  25  26
ATOM     26  C   UNL     1       8.389   8.119  18.441  0.00  0.00    +0.000 C 
BRANCH  26  27
ATOM     27  C   UNL     1       8.569   9.620  18.231  0.00  0.00    +0.000 C 
BRANCH  27  28
ATOM     28  C   UNL     1       9.168  10.272  19.478  0.00  0.00    +0.000 C 
BRANCH  28  30
ATOM     29  C   UNL     1      10.415  11.575  17.724  0.00  0.00    +0.000 C 
ATOM     30  C   UNL     1      10.443  11.044  19.147  0.00  0.00    +0.000 C 
ENDBRANCH  28  30
ENDBRANCH  27  28
ENDBRANCH  26  27
ENDBRANCH  25  26
ENDBRANCH  24  25
ENDBRANCH  23  24
ENDBRANCH  22  23
ENDBRANCH  21  22
ENDBRANCH   1  21
TORSDOF 13
ENDMDL
MODEL 3
REMARK VINA RESULT:      -6.7      1.619      1.954
REMARK  Name = 
REMARK  14 active torsions:
REMARK  status: ('A' for Active; 'I' for Inactive)
REMARK    1  A    between atoms: C_1  and  C_2
REMARK    2  A    between atoms: C_2  and  C_3
REMARK    3  A    between atoms: C_3  and  C_4
REMARK    4  A    between atoms: C_4  and  C_5
REMARK    5  A    between atoms: C_5  and  C_6
REMARK    6  A    between atoms: C_6  and  C_7
REMARK    7  A    between atoms: C_7  and  O_8
REMARK    8  A    between atoms: O_8  and  C_9
REMARK    9  A    between atoms: C_9  and  C_10
REMARK   10  A    between atoms: C_10  and  C_11
REMARK   11  A    between atoms: N_15  and  C1*_16
REMARK   12  A    between atoms: C3*_18  and  O3*_19
REMARK   13  A    between atoms: C4*_20  and  C5*_21
REMARK   14  A    between atoms: C5*_21  and  O5*_22
REMARK                            x       y       z     vdW  Elec       q    Type
REMARK                         _______ _______ _______ _____ _____    ______ ____
ROOT
ATOM      1  C   UNL     1       2.379   7.360  18.780  0.00  0.00    +0.000 A 
ATOM      2  C   UNL     1       1.935   8.523  18.289  0.00  0.00    +0.000 A 
ATOM      3  C   UNL     1       1.385   9.179  19.411  0.00  0.00    +0.000 A 
ATOM      4  C   UNL     1       0.791  10.343  19.638  0.00  0.00    +0.000 A 
ATOM      5  N   UNL     1       0.351  10.652  20.913  0.00  0.00    +0.000 N 
ATOM      6  C   UNL     1       0.560   9.784  22.011  0.00  0.00    +0.000 A 
ATOM      7  O   UNL     1       0.206  10.111  23.141  0.00  0.00    +0.000 OA
ATOM      8  N   UNL     1       1.174   8.568  21.790  0.00  0.00    +0.000 NA
ATOM      9  C   UNL     1       1.536   8.326  20.585  0.00  0.00    +0.000 A 
ATOM     10  O   UNL     1       2.165   7.173  20.173  0.00  0.00    +0.000 OA
ENDROOT
BRANCH   5  11
ATOM     11  C1* UNL     1      -0.320  11.914  21.185  0.00  0.00    +0.000 C 
ATOM     12  C2* UNL     1       0.628  13.090  21.386  0.00  0.00    +0.000 C 
ATOM     13  C3* UNL     1      -0.230  14.263  20.969  0.00  0.00    +0.000 C 
ATOM     14  C4* UNL     1      -1.096  13.688  19.850  0.00  0.00    +0.000 C 
ATOM     15  O4* UNL     1      -1.188  12.262  20.086  0.00  0.00    +0.000 OA
BRANCH  13  16
ATOM     16  O3* UNL     1      -1.027  14.690  22.074  0.00  0.00    +0.000 OA
ATOM     17  H3* UNL     1      -1.949  14.817  21.786  0.00  0.00    +0.000 HD
ENDBRANCH  13  16
BRANCH  14  18
ATOM     18  C5* UNL     1      -0.478  13.903  18.465  0.00  0.00    +0.000 C 
BRANCH  18  19
ATOM     19  O5* UNL     1      -0.961  12.929  17.542  0.00  0.00    +0.000 OA
ATOM     20  H5* UNL     1      -0.371  12.155  17.618  0.00  0.00    +0.000 HD
ENDBRANCH  18  19
ENDBRANCH  14  18
ENDBRANCH   5  11
BRANCH   1  21
ATOM     21  C   UNL     1       3.077   6.267  18.038  0.00  0.00    +0.000 C 
BRANCH  21  22
ATOM     22  C   UNL     1       4.110   5.557  18.906  0.00  0.00    +0.000 C 
BRANCH  22  23
ATOM     23  O   UNL     1       4.991   4.789  18.078  0.00  0.00    +0.000 OA
BRANCH  23  24
ATOM     24  C   UNL     1       4.240   3.939  17.210  0.00  0.00    +0.000 C 
BRANCH  24  25
ATOM     25  C   UNL     1       3.836   2.669  17.948  0.00  0.00    +0.000 C 
BRANCH  25  26
ATOM     26  C   UNL     1       2.340   2.413  17.769  0.00  0.00    +0.000 C 
BRANCH  26  27
ATOM     27  C   UNL     1       1.668   1.998  19.076  0.00  0.00    +0.000 C 
BRANCH  27  28
ATOM     28  C   UNL     1       0.659   3.055  19.524  0.00  0.00    +0.000 C 
BRANCH  28  30
ATOM     29  C   UNL     1       2.030   3.133  21.632  0.00  0.00    +0.000 C 
ATOM     30  C   UNL     1       1.234   3.944  20.625  0.00  0.00    +0.000 C 
ENDBRANCH  28  30
ENDBRANCH  27  28
ENDBRANCH  26  27
ENDBRANCH  25  26
ENDBRANCH  24  25
ENDBRANCH  23  24
ENDBRANCH  22  23
ENDBRANCH  21  22
ENDBRANCH   1  21
TORSDOF 13
ENDMDL
MODEL 4
REMARK VINA RESULT:      -6.4      2.776      3.982
REMARK  Name = 
REMARK  14 active torsions:
REMARK  status: ('A' for Active; 'I' for Inactive)
REMARK    1  A    between atoms: C_1  and  C_2
REMARK    2  A    between atoms: C_2  and  C_3
REMARK    3  A    between atoms: C_3  and  C_4
REMARK    4  A    between atoms: C_4  and  C_5
REMARK    5  A    between atoms: C_5  and  C_6
REMARK    6  A    between atoms: C_6  and  C_7
REMARK    7  A    between atoms: C_7  and  O_8
REMARK    8  A    between atoms: O_8  and  C_9
REMARK    9  A    between atoms: C_9  and  C_10
REMARK   10  A    between atoms: C_10  and  C_11
REMARK   11  A    between atoms: N_15  and  C1*_16
REMARK   12  A    between atoms: C3*_18  and  O3*_19
REMARK   13  A    between atoms: C4*_20  and  C5*_21
REMARK   14  A    between atoms: C5*_21  and  O5*_22
REMARK                            x       y       z     vdW  Elec       q    Type
REMARK                         _______ _______ _______ _____ _____    ______ ____
ROOT
ATOM      1  C   UNL     1       3.032   6.997  18.226  0.00  0.00    +0.000 A 
ATOM      2  C   UNL     1       2.561   8.185  17.828  0.00  0.00    +0.000 A 
ATOM      3  C   UNL     1       1.807   8.639  18.931  0.00  0.00    +0.000 A 
ATOM      4  C   UNL     1       1.088   9.718  19.215  0.00  0.00    +0.000 A 
ATOM      5  N   UNL     1       0.452   9.815  20.439  0.00  0.00    +0.000 N 
ATOM      6  C   UNL     1       0.582   8.819  21.435  0.00  0.00    +0.000 A 
ATOM      7  O   UNL     1       0.049   8.961  22.533  0.00  0.00    +0.000 OA
ATOM      8  N   UNL     1       1.324   7.689  21.153  0.00  0.00    +0.000 NA
ATOM      9  C   UNL     1       1.868   7.643  19.995  0.00  0.00    +0.000 A 
ATOM     10  O   UNL     1       2.645   6.604  19.536  0.00  0.00    +0.000 OA
ENDROOT
BRANCH   5  11
ATOM     11  C1* UNL     1      -0.357  10.979  20.769  0.00  0.00    +0.000 C 
ATOM     12  C2* UNL     1       0.453  12.235  21.065  0.00  0.00    +0.000 C 
ATOM     13  C3* UNL     1      -0.518  13.333  20.696  0.00  0.00    +0.000 C 
ATOM     14  C4* UNL     1      -1.294  12.740  19.522  0.00  0.00    +0.000 C 
ATOM     15  O4* UNL     1      -1.236  11.301  19.670  0.00  0.00    +0.000 OA
BRANCH  13  16
ATOM     16  O3* UNL     1      -1.379  13.603  21.803  0.00  0.00    +0.000 OA
ATOM     17  H3* UNL     1      -2.179  14.065  21.494  0.00  0.00    +0.000 HD
ENDBRANCH  13  16
BRANCH  14  18
ATOM     18  C5* UNL     1      -0.675  13.106  18.170  0.00  0.00    +0.000 C 
BRANCH  18  19
ATOM     19  O5* UNL     1      -1.213  12.288  17.132  0.00  0.00    +0.000 OA
ATOM     20  H5* UNL     1      -0.693  12.476  16.329  0.00  0.00    +0.000 HD
ENDBRANCH  18  19
ENDBRANCH  14  18
ENDBRANCH   5  11
BRANCH   1  21
ATOM     21  C   UNL     1       3.918   6.068  17.461  0.00  0.00    +0.000 C 
BRANCH  21  22
ATOM     22  C   UNL     1       4.939   5.381  18.363  0.00  0.00    +0.000 C 
BRANCH  22  23
ATOM     23  O   UNL     1       6.263   5.677  17.906  0.00  0.00    +0.000 OA
BRANCH  23  24
ATOM     24  C   UNL     1       6.821   4.546  17.237  0.00  0.00    +0.000 C 
BRANCH  24  25
ATOM     25  C   UNL     1       6.927   4.826  15.744  0.00  0.00    +0.000 C 
BRANCH  25  26
ATOM     26  C   UNL     1       6.100   3.807  14.960  0.00  0.00    +0.000 C 
BRANCH  26  27
ATOM     27  C   UNL     1       5.651   4.351  13.606  0.00  0.00    +0.000 C 
BRANCH  27  28
ATOM     28  C   UNL     1       6.313   3.576  12.466  0.00  0.00    +0.000 C 
BRANCH  28  30
ATOM     29  C   UNL     1       4.145   3.227  11.238  0.00  0.00    +0.000 C 
ATOM     30  C   UNL     1       5.356   2.553  11.858  0.00  0.00    +0.000 C 
ENDBRANCH  28  30
ENDBRANCH  27  28
ENDBRANCH  26  27
ENDBRANCH  25  26
ENDBRANCH  24  25
ENDBRANCH  23  24
ENDBRANCH  22  23
ENDBRANCH  21  22
ENDBRANCH   1  21
TORSDOF 13
ENDMDL
MODEL 5
REMARK VINA RESULT:      -6.4      3.093      4.937
REMARK  Name = 
REMARK  14 active torsions:
REMARK  status: ('A' for Active; 'I' for Inactive)
REMARK    1  A    between atoms: C_1  and  C_2
REMARK    2  A    between atoms: C_2  and  C_3
REMARK    3  A    between atoms: C_3  and  C_4
REMARK    4  A    between atoms: C_4  and  C_5
REMARK    5  A    between atoms: C_5  and  C_6
REMARK    6  A    between atoms: C_6  and  C_7
REMARK    7  A    between atoms: C_7  and  O_8
REMARK    8  A    between atoms: O_8  and  C_9
REMARK    9  A    between atoms: C_9  and  C_10
REMARK   10  A    between atoms: C_10  and  C_11
REMARK   11  A    between atoms: N_15  and  C1*_16
REMARK   12  A    between atoms: C3*_18  and  O3*_19
REMARK   13  A    between atoms: C4*_20  and  C5*_21
REMARK   14  A    between atoms: C5*_21  and  O5*_22
REMARK                            x       y       z     vdW  Elec       q    Type
REMARK                         _______ _______ _______ _____ _____    ______ ____
ROOT
ATOM      1  C   UNL     1       3.020   5.591  18.879  0.00  0.00    +0.000 A 
ATOM      2  C   UNL     1       2.404   6.098  19.953  0.00  0.00    +0.000 A 
ATOM      3  C   UNL     1       2.087   7.419  19.572  0.00  0.00    +0.000 A 
ATOM      4  C   UNL     1       1.484   8.456  20.139  0.00  0.00    +0.000 A 
ATOM      5  N   UNL     1       1.364   9.645  19.442  0.00  0.00    +0.000 N 
ATOM      6  C   UNL     1       1.818   9.784  18.109  0.00  0.00    +0.000 A 
ATOM      7  O   UNL     1       1.648  10.836  17.498  0.00  0.00    +0.000 OA
ATOM      8  N   UNL     1       2.451   8.715  17.507  0.00  0.00    +0.000 NA
ATOM      9  C   UNL     1       2.557   7.650  18.210  0.00  0.00    +0.000 A 
ATOM     10  O   UNL     1       3.150   6.485  17.781  0.00  0.00    +0.000 OA
ENDROOT
BRANCH   5  11
ATOM     11  C1* UNL     1       0.723  10.803  20.046  0.00  0.00    +0.000 C 
ATOM     12  C2* UNL     1      -0.794  10.818  19.904  0.00  0.00    +0.000 C 
ATOM     13  C3* UNL     1      -1.218  11.634  21.104  0.00  0.00    +0.000 C 
ATOM     14  C4* UNL     1      -0.186  11.261  22.167  0.00  0.00    +0.000 C 
ATOM     15  O4* UNL     1       1.008  10.846  21.461  0.00  0.00    +0.000 OA
BRANCH  13  16
ATOM     16  O3* UNL     1      -1.154  13.024  20.784  0.00  0.00    +0.000 OA
ATOM     17  H3* UNL     1      -0.266  13.245  20.446  0.00  0.00    +0.000 HD
ENDBRANCH  13  16
BRANCH  14  18
ATOM     18  C5* UNL     1      -0.650  10.096  23.046  0.00  0.00    +0.000 C 
BRANCH  18  19
ATOM     19  O5* UNL     1       0.407   9.654  23.895  0.00  0.00    +0.000 OA
ATOM     20  H5* UNL     1       1.240   9.814  23.412  0.00  0.00    +0.000 HD
ENDBRANCH  18  19
ENDBRANCH  14  18
ENDBRANCH   5  11
BRANCH   1  21
ATOM     21  C   UNL     1       3.559   4.208  18.709  0.00  0.00    +0.000 C 
BRANCH  21  22
ATOM     22  C   UNL     1       4.061   3.961  17.290  0.00  0.00    +0.000 C 
BRANCH  22  23
ATOM     23  O   UNL     1       5.489   3.847  17.295  0.00  0.00    +0.000 OA
BRANCH  23  24
ATOM     24  C   UNL     1       6.087   5.101  16.965  0.00  0.00    +0.000 C 
BRANCH  24  25
ATOM     25  C   UNL     1       5.920   5.381  15.478  0.00  0.00    +0.000 C 
BRANCH  25  26
ATOM     26  C   UNL     1       6.533   4.244  14.659  0.00  0.00    +0.000 C 
BRANCH  26  27
ATOM     27  C   UNL     1       5.574   3.725  13.590  0.00  0.00    +0.000 C 
BRANCH  27  28
ATOM     28  C   UNL     1       6.334   3.358  12.315  0.00  0.00    +0.000 C 
BRANCH  28  30
ATOM     29  C   UNL     1       6.331   1.153  11.103  0.00  0.00    +0.000 C 
ATOM     30  C   UNL     1       5.529   2.399  11.441  0.00  0.00    +0.000 C 
ENDBRANCH  28  30
ENDBRANCH  27  28
ENDBRANCH  26  27
ENDBRANCH  25  26
ENDBRANCH  24  25
ENDBRANCH  23  24
ENDBRANCH  22  23
ENDBRANCH  21  22
ENDBRANCH   1  21
TORSDOF 13
ENDMDL
MODEL 6
REMARK VINA RESULT:      -6.3      2.542      3.774
REMARK  Name = 
REMARK  14 active torsions:
REMARK  status: ('A' for Active; 'I' for Inactive)
REMARK    1  A    between atoms: C_1  and  C_2
REMARK    2  A    between atoms: C_2  and  C_3
REMARK    3  A    between atoms: C_3  and  C_4
REMARK    4  A    between atoms: C_4  and  C_5
REMARK    5  A    between atoms: C_5  and  C_6
REMARK    6  A    between atoms: C_6  and  C_7
REMARK    7  A    between atoms: C_7  and  O_8
REMARK    8  A    between atoms: O_8  and  C_9
REMARK    9  A    between atoms: C_9  and  C_10
REMARK   10  A    between atoms: C_10  and  C_11
REMARK   11  A    between atoms: N_15  and  C1*_16
REMARK   12  A    between atoms: C3*_18  and  O3*_19
REMARK   13  A    between atoms: C4*_20  and  C5*_21
REMARK   14  A    between atoms: C5*_21  and  O5*_22
REMARK                            x       y       z     vdW  Elec       q    Type
REMARK                         _______ _______ _______ _____ _____    ______ ____
ROOT
ATOM      1  C   UNL     1       3.222   6.777  18.196  0.00  0.00    +0.000 A 
ATOM      2  C   UNL     1       2.787   7.853  17.529  0.00  0.00    +0.000 A 
ATOM      3  C   UNL     1       2.044   8.571  18.490  0.00  0.00    +0.000 A 
ATOM      4  C   UNL     1       1.357   9.706  18.510  0.00  0.00    +0.000 A 
ATOM      5  N   UNL     1       0.721  10.102  19.673  0.00  0.00    +0.000 N 
ATOM      6  C   UNL     1       0.819   9.361  20.873  0.00  0.00    +0.000 A 
ATOM      7  O   UNL     1       0.287   9.768  21.903  0.00  0.00    +0.000 OA
ATOM      8  N   UNL     1       1.527   8.176  20.867  0.00  0.00    +0.000 NA
ATOM      9  C   UNL     1       2.073   7.847  19.756  0.00  0.00    +0.000 A 
ATOM     10  O   UNL     1       2.820   6.709  19.558  0.00  0.00    +0.000 OA
ENDROOT
BRANCH   5  11
ATOM     11  C1* UNL     1      -0.054  11.333  19.717  0.00  0.00    +0.000 C 
ATOM     12  C2* UNL     1       0.342  12.354  18.658  0.00  0.00    +0.000 C 
ATOM     13  C3* UNL     1      -0.941  13.131  18.470  0.00  0.00    +0.000 C 
ATOM     14  C4* UNL     1      -2.026  12.075  18.671  0.00  0.00    +0.000 C 
ATOM     15  O4* UNL     1      -1.455  11.046  19.513  0.00  0.00    +0.000 OA
BRANCH  13  16
ATOM     16  O3* UNL     1      -1.028  14.159  19.458  0.00  0.00    +0.000 OA
ATOM     17  H3* UNL     1      -0.228  14.714  19.429  0.00  0.00    +0.000 HD
ENDBRANCH  13  16
BRANCH  14  18
ATOM     18  C5* UNL     1      -2.460  11.427  17.353  0.00  0.00    +0.000 C 
BRANCH  18  19
ATOM     19  O5* UNL     1      -3.764  11.868  16.981  0.00  0.00    +0.000 OA
ATOM     20  H5* UNL     1      -4.076  12.455  17.694  0.00  0.00    +0.000 HD
ENDBRANCH  18  19
ENDBRANCH  14  18
ENDBRANCH   5  11
BRANCH   1  21
ATOM     21  C   UNL     1       4.081   5.671  17.675  0.00  0.00    +0.000 C 
BRANCH  21  22
ATOM     22  C   UNL     1       5.235   5.352  18.620  0.00  0.00    +0.000 C 
BRANCH  22  23
ATOM     23  O   UNL     1       5.997   4.257  18.099  0.00  0.00    +0.000 OA
BRANCH  23  24
ATOM     24  C   UNL     1       7.113   4.741  17.351  0.00  0.00    +0.000 C 
BRANCH  24  25
ATOM     25  C   UNL     1       6.657   5.187  15.968  0.00  0.00    +0.000 C 
BRANCH  25  26
ATOM     26  C   UNL     1       6.619   3.990  15.018  0.00  0.00    +0.000 C 
BRANCH  26  27
ATOM     27  C   UNL     1       5.687   4.227  13.832  0.00  0.00    +0.000 C 
BRANCH  27  28
ATOM     28  C   UNL     1       6.299   3.676  12.544  0.00  0.00    +0.000 C 
BRANCH  28  30
ATOM     29  C   UNL     1       4.132   3.271  11.332  0.00  0.00    +0.000 C 
ATOM     30  C   UNL     1       5.391   2.634  11.895  0.00  0.00    +0.000 C 
ENDBRANCH  28  30
ENDBRANCH  27  28
ENDBRANCH  26  27
ENDBRANCH  25  26
ENDBRANCH  24  25
ENDBRANCH  23  24
ENDBRANCH  22  23
ENDBRANCH  21  22
ENDBRANCH   1  21
TORSDOF 13
ENDMDL
MODEL 7
REMARK VINA RESULT:      -6.3      2.325      8.430
REMARK  Name = 
REMARK  14 active torsions:
REMARK  status: ('A' for Active; 'I' for Inactive)
REMARK    1  A    between atoms: C_1  and  C_2
REMARK    2  A    between atoms: C_2  and  C_3
REMARK    3  A    between atoms: C_3  and  C_4
REMARK    4  A    between atoms: C_4  and  C_5
REMARK    5  A    between atoms: C_5  and  C_6
REMARK    6  A    between atoms: C_6  and  C_7
REMARK    7  A    between atoms: C_7  and  O_8
REMARK    8  A    between atoms: O_8  and  C_9
REMARK    9  A    between atoms: C_9  and  C_10
REMARK   10  A    between atoms: C_10  and  C_11
REMARK   11  A    between atoms: N_15  and  C1*_16
REMARK   12  A    between atoms: C3*_18  and  O3*_19
REMARK   13  A    between atoms: C4*_20  and  C5*_21
REMARK   14  A    between atoms: C5*_21  and  O5*_22
REMARK                            x       y       z     vdW  Elec       q    Type
REMARK                         _______ _______ _______ _____ _____    ______ ____
ROOT
ATOM      1  C   UNL     1       1.679   9.292  18.590  0.00  0.00    +0.000 A 
ATOM      2  C   UNL     1       1.577   8.221  19.385  0.00  0.00    +0.000 A 
ATOM      3  C   UNL     1       2.473   7.290  18.819  0.00  0.00    +0.000 A 
ATOM      4  C   UNL     1       2.863   6.052  19.096  0.00  0.00    +0.000 A 
ATOM      5  N   UNL     1       3.786   5.424  18.278  0.00  0.00    +0.000 N 
ATOM      6  C   UNL     1       4.378   6.079  17.173  0.00  0.00    +0.000 A 
ATOM      7  O   UNL     1       5.234   5.513  16.498  0.00  0.00    +0.000 OA
ATOM      8  N   UNL     1       3.980   7.365  16.869  0.00  0.00    +0.000 NA
ATOM      9  C   UNL     1       3.104   7.886  17.646  0.00  0.00    +0.000 A 
ATOM     10  O   UNL     1       2.591   9.155  17.508  0.00  0.00    +0.000 OA
ENDROOT
BRANCH   5  11
ATOM     11  C1* UNL     1       4.217   4.061  18.548  0.00  0.00    +0.000 C 
ATOM     12  C2* UNL     1       4.030   3.627  19.997  0.00  0.00    +0.000 C 
ATOM     13  C3* UNL     1       3.881   2.128  19.862  0.00  0.00    +0.000 C 
ATOM     14  C4* UNL     1       3.152   1.964  18.531  0.00  0.00    +0.000 C 
ATOM     15  O4* UNL     1       3.466   3.133  17.736  0.00  0.00    +0.000 OA
BRANCH  13  16
ATOM     16  O3* UNL     1       5.173   1.520  19.825  0.00  0.00    +0.000 OA
ATOM     17  H3* UNL     1       5.862   2.209  19.839  0.00  0.00    +0.000 HD
ENDBRANCH  13  16
BRANCH  14  18
ATOM     18  C5* UNL     1       1.632   1.899  18.703  0.00  0.00    +0.000 C 
BRANCH  18  19
ATOM     19  O5* UNL     1       1.006   3.018  18.077  0.00  0.00    +0.000 OA
ATOM     20  H5* UNL     1       1.055   3.757  18.712  0.00  0.00    +0.000 HD
ENDBRANCH  18  19
ENDBRANCH  14  18
ENDBRANCH   5  11
BRANCH   1  21
ATOM     21  C   UNL     1       0.964  10.597  18.727  0.00  0.00    +0.000 C 
BRANCH  21  22
ATOM     22  C   UNL     1       0.647  10.924  20.183  0.00  0.00    +0.000 C 
BRANCH  22  23
ATOM     23  O   UNL     1      -0.166  12.101  20.248  0.00  0.00    +0.000 OA
BRANCH  23  24
ATOM     24  C   UNL     1      -1.548  11.755  20.160  0.00  0.00    +0.000 C 
BRANCH  24  25
ATOM     25  C   UNL     1      -2.142  12.312  18.872  0.00  0.00    +0.000 C 
BRANCH  25  26
ATOM     26  C   UNL     1      -3.228  11.372  18.348  0.00  0.00    +0.000 C 
BRANCH  26  27
ATOM     27  C   UNL     1      -2.673   9.995  17.992  0.00  0.00    +0.000 C 
BRANCH  27  28
ATOM     28  C   UNL     1      -2.081   9.999  16.582  0.00  0.00    +0.000 C 
BRANCH  28  30
ATOM     29  C   UNL     1      -3.165  10.063  14.312  0.00  0.00    +0.000 C 
ATOM     30  C   UNL     1      -2.944  10.809  15.617  0.00  0.00    +0.000 C 
ENDBRANCH  28  30
ENDBRANCH  27  28
ENDBRANCH  26  27
ENDBRANCH  25  26
ENDBRANCH  24  25
ENDBRANCH  23  24
ENDBRANCH  22  23
ENDBRANCH  21  22
ENDBRANCH   1  21
TORSDOF 13
ENDMDL
MODEL 8
REMARK VINA RESULT:      -6.3      0.917      1.422
REMARK  Name = 
REMARK  14 active torsions:
REMARK  status: ('A' for Active; 'I' for Inactive)
REMARK    1  A    between atoms: C_1  and  C_2
REMARK    2  A    between atoms: C_2  and  C_3
REMARK    3  A    between atoms: C_3  and  C_4
REMARK    4  A    between atoms: C_4  and  C_5
REMARK    5  A    between atoms: C_5  and  C_6
REMARK    6  A    between atoms: C_6  and  C_7
REMARK    7  A    between atoms: C_7  and  O_8
REMARK    8  A    between atoms: O_8  and  C_9
REMARK    9  A    between atoms: C_9  and  C_10
REMARK   10  A    between atoms: C_10  and  C_11
REMARK   11  A    between atoms: N_15  and  C1*_16
REMARK   12  A    between atoms: C3*_18  and  O3*_19
REMARK   13  A    between atoms: C4*_20  and  C5*_21
REMARK   14  A    between atoms: C5*_21  and  O5*_22
REMARK                            x       y       z     vdW  Elec       q    Type
REMARK                         _______ _______ _______ _____ _____    ______ ____
ROOT
ATOM      1  C   UNL     1       3.719   6.575  18.130  0.00  0.00    +0.000 A 
ATOM      2  C   UNL     1       3.188   7.602  17.457  0.00  0.00    +0.000 A 
ATOM      3  C   UNL     1       2.291   8.184  18.376  0.00  0.00    +0.000 A 
ATOM      4  C   UNL     1       1.455   9.215  18.371  0.00  0.00    +0.000 A 
ATOM      5  N   UNL     1       0.694   9.487  19.494  0.00  0.00    +0.000 N 
ATOM      6  C   UNL     1       0.811   8.730  20.683  0.00  0.00    +0.000 A 
ATOM      7  O   UNL     1       0.160   9.030  21.681  0.00  0.00    +0.000 OA
ATOM      8  N   UNL     1       1.673   7.651  20.703  0.00  0.00    +0.000 NA
ATOM      9  C   UNL     1       2.332   7.433  19.626  0.00  0.00    +0.000 A 
ATOM     10  O   UNL     1       3.239   6.412  19.458  0.00  0.00    +0.000 OA
ENDROOT
BRANCH   5  11
ATOM     11  C1* UNL     1      -0.243  10.600  19.508  0.00  0.00    +0.000 C 
ATOM     12  C2* UNL     1       0.131  11.738  18.567  0.00  0.00    +0.000 C 
ATOM     13  C3* UNL     1      -1.216  12.354  18.262  0.00  0.00    +0.000 C 
ATOM     14  C4* UNL     1      -2.161  11.154  18.265  0.00  0.00    +0.000 C 
ATOM     15  O4* UNL     1      -1.556  10.149  19.114  0.00  0.00    +0.000 OA
BRANCH  13  16
ATOM     16  O3* UNL     1      -1.559  13.287  19.287  0.00  0.00    +0.000 OA
ATOM     17  H3* UNL     1      -0.848  13.946  19.386  0.00  0.00    +0.000 HD
ENDBRANCH  13  16
BRANCH  14  18
ATOM     18  C5* UNL     1      -2.343  10.552  16.868  0.00  0.00    +0.000 C 
BRANCH  18  19
ATOM     19  O5* UNL     1      -2.356  11.577  15.876  0.00  0.00    +0.000 OA
ATOM     20  H5* UNL     1      -1.467  11.979  15.877  0.00  0.00    +0.000 HD
ENDBRANCH  18  19
ENDBRANCH  14  18
ENDBRANCH   5  11
BRANCH   1  21
ATOM     21  C   UNL     1       4.755   5.611  17.648  0.00  0.00    +0.000 C 
BRANCH  21  22
ATOM     22  C   UNL     1       4.232   4.727  16.521  0.00  0.00    +0.000 C 
BRANCH  22  23
ATOM     23  O   UNL     1       4.444   3.349  16.849  0.00  0.00    +0.000 OA
BRANCH  23  24
ATOM     24  C   UNL     1       3.255   2.782  17.399  0.00  0.00    +0.000 C 
BRANCH  24  25
ATOM     25  C   UNL     1       3.602   1.912  18.600  0.00  0.00    +0.000 C 
BRANCH  25  26
ATOM     26  C   UNL     1       3.984   2.791  19.791  0.00  0.00    +0.000 C 
BRANCH  26  27
ATOM     27  C   UNL     1       3.614   2.144  21.124  0.00  0.00    +0.000 C 
BRANCH  27  28
ATOM     28  C   UNL     1       2.410   2.849  21.750  0.00  0.00    +0.000 C 
BRANCH  28  30
ATOM     29  C   UNL     1       0.805   4.108  20.277  0.00  0.00    +0.000 C 
ATOM     30  C   UNL     1       1.178   2.752  20.852  0.00  0.00    +0.000 C 
ENDBRANCH  28  30
ENDBRANCH  27  28
ENDBRANCH  26  27
ENDBRANCH  25  26
ENDBRANCH  24  25
ENDBRANCH  23  24
ENDBRANCH  22  23
ENDBRANCH  21  22
ENDBRANCH   1  21
TORSDOF 13
ENDMDL
MODEL 9
REMARK VINA RESULT:      -6.3      2.328      2.998
REMARK  Name = 
REMARK  14 active torsions:
REMARK  status: ('A' for Active; 'I' for Inactive)
REMARK    1  A    between atoms: C_1  and  C_2
REMARK    2  A    between atoms: C_2  and  C_3
REMARK    3  A    between atoms: C_3  and  C_4
REMARK    4  A    between atoms: C_4  and  C_5
REMARK    5  A    between atoms: C_5  and  C_6
REMARK    6  A    between atoms: C_6  and  C_7
REMARK    7  A    between atoms: C_7  and  O_8
REMARK    8  A    between atoms: O_8  and  C_9
REMARK    9  A    between atoms: C_9  and  C_10
REMARK   10  A    between atoms: C_10  and  C_11
REMARK   11  A    between atoms: N_15  and  C1*_16
REMARK   12  A    between atoms: C3*_18  and  O3*_19
REMARK   13  A    between atoms: C4*_20  and  C5*_21
REMARK   14  A    between atoms: C5*_21  and  O5*_22
REMARK                            x       y       z     vdW  Elec       q    Type
REMARK                         _______ _______ _______ _____ _____    ______ ____
ROOT
ATOM      1  C   UNL     1       1.785   8.593  18.612  0.00  0.00    +0.000 A 
ATOM      2  C   UNL     1       1.140   9.764  18.554  0.00  0.00    +0.000 A 
ATOM      3  C   UNL     1       0.744  10.001  19.887  0.00  0.00    +0.000 A 
ATOM      4  C   UNL     1       0.085  10.956  20.531  0.00  0.00    +0.000 A 
ATOM      5  N   UNL     1      -0.140  10.838  21.891  0.00  0.00    +0.000 N 
ATOM      6  C   UNL     1       0.359   9.748  22.643  0.00  0.00    +0.000 A 
ATOM      7  O   UNL     1       0.189   9.700  23.859  0.00  0.00    +0.000 OA
ATOM      8  N   UNL     1       1.043   8.745  21.987  0.00  0.00    +0.000 NA
ATOM      9  C   UNL     1       1.197   8.895  20.724  0.00  0.00    +0.000 A 
ATOM     10  O   UNL     1       1.854   8.006  19.905  0.00  0.00    +0.000 OA
ENDROOT
BRANCH   5  11
ATOM     11  C1* UNL     1      -0.875  11.862  22.617  0.00  0.00    +0.000 C 
ATOM     12  C2* UNL     1      -0.405  13.283  22.333  0.00  0.00    +0.000 C 
ATOM     13  C3* UNL     1      -1.655  14.090  22.604  0.00  0.00    +0.000 C 
ATOM     14  C4* UNL     1      -2.780  13.161  22.154  0.00  0.00    +0.000 C 
ATOM     15  O4* UNL     1      -2.275  11.809  22.269  0.00  0.00    +0.000 OA
BRANCH  13  16
ATOM     16  O3* UNL     1      -1.745  14.378  24.000  0.00  0.00    +0.000 OA
ATOM     17  H3* UNL     1      -0.946  14.853  24.291  0.00  0.00    +0.000 HD
ENDBRANCH  13  16
BRANCH  14  18
ATOM     18  C5* UNL     1      -3.184  13.398  20.696  0.00  0.00    +0.000 C 
BRANCH  18  19
ATOM     19  O5* UNL     1      -3.265  14.794  20.416  0.00  0.00    +0.000 OA
ATOM     20  H5* UNL     1      -2.750  15.249  21.109  0.00  0.00    +0.000 HD
ENDBRANCH  18  19
ENDBRANCH  14  18
ENDBRANCH   5  11
BRANCH   1  21
ATOM     21  C   UNL     1       2.442   7.861  17.487  0.00  0.00    +0.000 C 
BRANCH  21  22
ATOM     22  C   UNL     1       3.759   7.220  17.914  0.00  0.00    +0.000 C 
BRANCH  22  23
ATOM     23  O   UNL     1       3.550   5.833  18.203  0.00  0.00    +0.000 OA
BRANCH  23  24
ATOM     24  C   UNL     1       4.290   5.021  17.291  0.00  0.00    +0.000 C 
BRANCH  24  25
ATOM     25  C   UNL     1       3.597   3.677  17.112  0.00  0.00    +0.000 C 
BRANCH  25  26
ATOM     26  C   UNL     1       2.162   3.754  17.633  0.00  0.00    +0.000 C 
BRANCH  26  27
ATOM     27  C   UNL     1       1.727   2.457  18.312  0.00  0.00    +0.000 C 
BRANCH  27  28
ATOM     28  C   UNL     1       0.681   2.737  19.391  0.00  0.00    +0.000 C 
BRANCH  28  30
ATOM     29  C   UNL     1       1.895   3.157  21.555  0.00  0.00    +0.000 C 
ATOM     30  C   UNL     1       1.169   3.792  20.381  0.00  0.00    +0.000 C 
ENDBRANCH  28  30
ENDBRANCH  27  28
ENDBRANCH  26  27
ENDBRANCH  25  26
ENDBRANCH  24  25
ENDBRANCH  23  24
ENDBRANCH  22  23
ENDBRANCH  21  22
ENDBRANCH   1  21
TORSDOF 13
ENDMDL
