MODEL 1
REMARK VINA RESULT:      -7.8      0.000      0.000
REMARK  Name = 
REMARK  3 active torsions:
REMARK  status: ('A' for Active; 'I' for Inactive)
REMARK    1  A    between atoms: C_5  and  C_6
REMARK    2  A    between atoms: C_8  and  C_9
REMARK    3  A    between atoms: C_16  and  C_17
REMARK                            x       y       z     vdW  Elec       q    Type
REMARK                         _______ _______ _______ _____ _____    ______ ____
ROOT
ATOM      1  C   UNL     1       3.089   5.836  18.352  0.00  0.00    +0.000 A 
ATOM      2  N   UNL     1       2.066   6.593  18.878  0.00  0.00    +0.000 N 
ATOM      3  C   UNL     1       2.253   7.907  18.539  0.00  0.00    +0.000 A 
ATOM      4  N   UNL     1       3.343   8.043  17.816  0.00  0.00    +0.000 NA
ATOM      5  C   UNL     1       3.892   6.779  17.715  0.00  0.00    +0.000 A 
ATOM      6  H   UNL     1       1.283   6.250  19.415  0.00  0.00    +0.000 HD
ENDROOT
BRANCH   1  11
ATOM      7  F   UNL     1       3.716   0.286  18.732  0.00  0.00    +0.000 F 
ATOM      8  C   UNL     1       3.511   1.608  18.684  0.00  0.00    +0.000 A 
ATOM      9  C   UNL     1       2.661   2.136  17.724  0.00  0.00    +0.000 A 
ATOM     10  C   UNL     1       2.467   3.517  17.664  0.00  0.00    +0.000 A 
ATOM     11  C   UNL     1       3.168   4.380  18.522  0.00  0.00    +0.000 A 
ATOM     12  C   UNL     1       3.994   3.820  19.509  0.00  0.00    +0.000 A 
ATOM     13  C   UNL     1       4.161   2.435  19.591  0.00  0.00    +0.000 A 
ENDBRANCH   1  11
BRANCH   3  14
ATOM     14  C   UNL     1       1.388   8.985  18.927  0.00  0.00    +0.000 A 
ATOM     15  C   UNL     1       0.857   9.952  18.090  0.00  0.00    +0.000 A 
ATOM     16  C   UNL     1       0.045  10.898  18.787  0.00  0.00    +0.000 A 
ATOM     17  C   UNL     1      -0.006  10.608  20.126  0.00  0.00    +0.000 A 
ATOM     18 BR   UNL     1      -0.965  11.628  21.370  0.00  0.00    +0.000 Br
ATOM     19  S   UNL     1       0.889   9.234  20.549  0.00  0.00    +0.000 S 
ENDBRANCH   3  14
BRANCH   5  20
ATOM     20  C   UNL     1       5.139   6.547  16.998  0.00  0.00    +0.000 A 
ATOM     21  C   UNL     1       6.357   7.076  17.430  0.00  0.00    +0.000 A 
ATOM     22  C   UNL     1       7.513   6.720  16.756  0.00  0.00    +0.000 A 
ATOM     23  N   UNL     1       7.531   5.932  15.663  0.00  0.00    +0.000 NA
ATOM     24  C   UNL     1       6.336   5.489  15.219  0.00  0.00    +0.000 A 
ATOM     25  C   UNL     1       5.130   5.762  15.844  0.00  0.00    +0.000 A 
ENDBRANCH   5  20
TORSDOF 3
ENDMDL
MODEL 2
REMARK VINA RESULT:      -7.6      2.126      4.170
REMARK  Name = 
REMARK  3 active torsions:
REMARK  status: ('A' for Active; 'I' for Inactive)
REMARK    1  A    between atoms: C_5  and  C_6
REMARK    2  A    between atoms: C_8  and  C_9
REMARK    3  A    between atoms: C_16  and  C_17
REMARK                            x       y       z     vdW  Elec       q    Type
REMARK                         _______ _______ _______ _____ _____    ______ ____
ROOT
ATOM      1  C   UNL     1       3.608   6.383  18.306  0.00  0.00    +0.000 A 
ATOM      2  N   UNL     1       3.087   7.643  18.122  0.00  0.00    +0.000 N 
ATOM      3  C   UNL     1       2.143   7.890  19.084  0.00  0.00    +0.000 A 
ATOM      4  N   UNL     1       2.027   6.855  19.887  0.00  0.00    +0.000 NA
ATOM      5  C   UNL     1       2.901   5.900  19.405  0.00  0.00    +0.000 A 
ATOM      6  H   UNL     1       3.358   8.305  17.409  0.00  0.00    +0.000 HD
ENDROOT
BRANCH   1  11
ATOM      7  F   UNL     1       7.522   4.556  14.745  0.00  0.00    +0.000 F 
ATOM      8  C   UNL     1       6.604   4.940  15.639  0.00  0.00    +0.000 A 
ATOM      9  C   UNL     1       5.320   4.418  15.572  0.00  0.00    +0.000 A 
ATOM     10  C   UNL     1       4.360   4.837  16.494  0.00  0.00    +0.000 A 
ATOM     11  C   UNL     1       4.659   5.825  17.447  0.00  0.00    +0.000 A 
ATOM     12  C   UNL     1       5.974   6.311  17.519  0.00  0.00    +0.000 A 
ATOM     13  C   UNL     1       6.945   5.865  16.617  0.00  0.00    +0.000 A 
ENDBRANCH   1  11
BRANCH   3  14
ATOM     14  C   UNL     1       1.382   9.102  19.194  0.00  0.00    +0.000 A 
ATOM     15  C   UNL     1       1.312  10.114  18.252  0.00  0.00    +0.000 A 
ATOM     16  C   UNL     1       0.479  11.197  18.667  0.00  0.00    +0.000 A 
ATOM     17  C   UNL     1      -0.050  10.960  19.910  0.00  0.00    +0.000 A 
ATOM     18 BR   UNL     1      -1.187  12.156  20.796  0.00  0.00    +0.000 Br
ATOM     19  S   UNL     1       0.428   9.476  20.570  0.00  0.00    +0.000 S 
ENDBRANCH   3  14
BRANCH   5  20
ATOM     20  C   UNL     1       3.022   4.592  20.037  0.00  0.00    +0.000 A 
ATOM     21  C   UNL     1       4.003   3.671  19.662  0.00  0.00    +0.000 A 
ATOM     22  C   UNL     1       4.122   2.496  20.384  0.00  0.00    +0.000 A 
ATOM     23  N   UNL     1       3.305   2.156  21.402  0.00  0.00    +0.000 NA
ATOM     24  C   UNL     1       2.320   3.028  21.702  0.00  0.00    +0.000 A 
ATOM     25  C   UNL     1       2.141   4.242  21.060  0.00  0.00    +0.000 A 
ENDBRANCH   5  20
TORSDOF 3
ENDMDL
MODEL 3
REMARK VINA RESULT:      -7.5      2.322      4.300
REMARK  Name = 
REMARK  3 active torsions:
REMARK  status: ('A' for Active; 'I' for Inactive)
REMARK    1  A    between atoms: C_5  and  C_6
REMARK    2  A    between atoms: C_8  and  C_9
REMARK    3  A    between atoms: C_16  and  C_17
REMARK                            x       y       z     vdW  Elec       q    Type
REMARK                         _______ _______ _______ _____ _____    ______ ____
ROOT
ATOM      1  C   UNL     1       3.604   6.422  18.334  0.00  0.00    +0.000 A 
ATOM      2  N   UNL     1       3.085   7.686  18.169  0.00  0.00    +0.000 N 
ATOM      3  C   UNL     1       2.148   7.922  19.141  0.00  0.00    +0.000 A 
ATOM      4  N   UNL     1       2.034   6.877  19.931  0.00  0.00    +0.000 NA
ATOM      5  C   UNL     1       2.904   5.926  19.431  0.00  0.00    +0.000 A 
ATOM      6  H   UNL     1       3.352   8.356  17.463  0.00  0.00    +0.000 HD
ENDROOT
BRANCH   1  11
ATOM      7  F   UNL     1       7.485   4.629  14.719  0.00  0.00    +0.000 F 
ATOM      8  C   UNL     1       6.576   5.005  15.626  0.00  0.00    +0.000 A 
ATOM      9  C   UNL     1       5.298   4.468  15.581  0.00  0.00    +0.000 A 
ATOM     10  C   UNL     1       4.346   4.879  16.516  0.00  0.00    +0.000 A 
ATOM     11  C   UNL     1       4.648   5.874  17.460  0.00  0.00    +0.000 A 
ATOM     12  C   UNL     1       5.958   6.376  17.510  0.00  0.00    +0.000 A 
ATOM     13  C   UNL     1       6.921   5.938  16.596  0.00  0.00    +0.000 A 
ENDBRANCH   1  11
BRANCH   3  14
ATOM     14  C   UNL     1       1.389   9.134  19.271  0.00  0.00    +0.000 A 
ATOM     15  C   UNL     1       0.389   9.379  20.198  0.00  0.00    +0.000 A 
ATOM     16  C   UNL     1      -0.186  10.679  20.057  0.00  0.00    +0.000 A 
ATOM     17  C   UNL     1       0.403  11.366  19.027  0.00  0.00    +0.000 A 
ATOM     18 BR   UNL     1      -0.088  13.103  18.528  0.00  0.00    +0.000 Br
ATOM     19  S   UNL     1       1.622  10.488  18.244  0.00  0.00    +0.000 S 
ENDBRANCH   3  14
BRANCH   5  20
ATOM     20  C   UNL     1       3.026   4.611  20.045  0.00  0.00    +0.000 A 
ATOM     21  C   UNL     1       4.025   3.707  19.678  0.00  0.00    +0.000 A 
ATOM     22  C   UNL     1       4.143   2.522  20.384  0.00  0.00    +0.000 A 
ATOM     23  N   UNL     1       3.308   2.156  21.378  0.00  0.00    +0.000 NA
ATOM     24  C   UNL     1       2.305   3.012  21.669  0.00  0.00    +0.000 A 
ATOM     25  C   UNL     1       2.127   4.234  21.043  0.00  0.00    +0.000 A 
ENDBRANCH   5  20
TORSDOF 3
ENDMDL
MODEL 4
REMARK VINA RESULT:      -7.5      4.586      7.418
REMARK  Name = 
REMARK  3 active torsions:
REMARK  status: ('A' for Active; 'I' for Inactive)
REMARK    1  A    between atoms: C_5  and  C_6
REMARK    2  A    between atoms: C_8  and  C_9
REMARK    3  A    between atoms: C_16  and  C_17
REMARK                            x       y       z     vdW  Elec       q    Type
REMARK                         _______ _______ _______ _____ _____    ______ ____
ROOT
ATOM      1  C   UNL     1       3.271   6.072  18.114  0.00  0.00    +0.000 A 
ATOM      2  N   UNL     1       4.118   6.234  17.041  0.00  0.00    +0.000 N 
ATOM      3  C   UNL     1       4.600   5.011  16.654  0.00  0.00    +0.000 A 
ATOM      4  N   UNL     1       4.107   4.062  17.420  0.00  0.00    +0.000 NA
ATOM      5  C   UNL     1       3.307   4.700  18.349  0.00  0.00    +0.000 A 
ATOM      6  H   UNL     1       4.346   7.105  16.584  0.00  0.00    +0.000 HD
ENDROOT
BRANCH   1  11
ATOM      7  F   UNL     1       0.250  10.174  20.434  0.00  0.00    +0.000 F 
ATOM      8  C   UNL     1       1.031   9.229  19.898  0.00  0.00    +0.000 A 
ATOM      9  C   UNL     1       1.428   9.337  18.574  0.00  0.00    +0.000 A 
ATOM     10  C   UNL     1       2.224   8.338  18.012  0.00  0.00    +0.000 A 
ATOM     11  C   UNL     1       2.575   7.196  18.752  0.00  0.00    +0.000 A 
ATOM     12  C   UNL     1       2.192   7.126  20.100  0.00  0.00    +0.000 A 
ATOM     13  C   UNL     1       1.424   8.145  20.672  0.00  0.00    +0.000 A 
ENDBRANCH   1  11
BRANCH   3  14
ATOM     14  C   UNL     1       5.522   4.797  15.575  0.00  0.00    +0.000 A 
ATOM     15  C   UNL     1       6.854   5.173  15.549  0.00  0.00    +0.000 A 
ATOM     16  C   UNL     1       7.499   4.831  14.321  0.00  0.00    +0.000 A 
ATOM     17  C   UNL     1       6.626   4.208  13.466  0.00  0.00    +0.000 A 
ATOM     18 BR   UNL     1       7.100   3.617  11.753  0.00  0.00    +0.000 Br
ATOM     19  S   UNL     1       5.070   4.027  14.110  0.00  0.00    +0.000 S 
ENDBRANCH   3  14
BRANCH   5  20
ATOM     20  C   UNL     1       2.610   3.956  19.390  0.00  0.00    +0.000 A 
ATOM     21  C   UNL     1       3.254   3.510  20.546  0.00  0.00    +0.000 A 
ATOM     22  C   UNL     1       2.499   2.907  21.537  0.00  0.00    +0.000 A 
ATOM     23  N   UNL     1       1.177   2.669  21.431  0.00  0.00    +0.000 NA
ATOM     24  C   UNL     1       0.586   3.043  20.277  0.00  0.00    +0.000 A 
ATOM     25  C   UNL     1       1.250   3.683  19.243  0.00  0.00    +0.000 A 
ENDBRANCH   5  20
TORSDOF 3
ENDMDL
MODEL 5
REMARK VINA RESULT:      -7.5      2.265      4.219
REMARK  Name = 
REMARK  3 active torsions:
REMARK  status: ('A' for Active; 'I' for Inactive)
REMARK    1  A    between atoms: C_5  and  C_6
REMARK    2  A    between atoms: C_8  and  C_9
REMARK    3  A    between atoms: C_16  and  C_17
REMARK                            x       y       z     vdW  Elec       q    Type
REMARK                         _______ _______ _______ _____ _____    ______ ____
ROOT
ATOM      1  C   UNL     1       3.346   6.724  18.159  0.00  0.00    +0.000 A 
ATOM      2  N   UNL     1       3.089   8.063  17.967  0.00  0.00    +0.000 N 
ATOM      3  C   UNL     1       2.025   8.437  18.745  0.00  0.00    +0.000 A 
ATOM      4  N   UNL     1       1.580   7.411  19.437  0.00  0.00    +0.000 NA
ATOM      5  C   UNL     1       2.364   6.334  19.065  0.00  0.00    +0.000 A 
ATOM      6  H   UNL     1       3.603   8.691  17.367  0.00  0.00    +0.000 HD
ENDROOT
BRANCH   1  11
ATOM      7  F   UNL     1       7.424   4.263  15.218  0.00  0.00    +0.000 F 
ATOM      8  C   UNL     1       6.467   4.811  15.976  0.00  0.00    +0.000 A 
ATOM      9  C   UNL     1       5.208   4.233  16.016  0.00  0.00    +0.000 A 
ATOM     10  C   UNL     1       4.206   4.820  16.791  0.00  0.00    +0.000 A 
ATOM     11  C   UNL     1       4.441   6.022  17.479  0.00  0.00    +0.000 A 
ATOM     12  C   UNL     1       5.734   6.568  17.454  0.00  0.00    +0.000 A 
ATOM     13  C   UNL     1       6.746   5.960  16.705  0.00  0.00    +0.000 A 
ENDBRANCH   1  11
BRANCH   3  14
ATOM     14  C   UNL     1       1.468   9.759  18.792  0.00  0.00    +0.000 A 
ATOM     15  C   UNL     1       2.033  10.906  18.259  0.00  0.00    +0.000 A 
ATOM     16  C   UNL     1       1.237  12.069  18.487  0.00  0.00    +0.000 A 
ATOM     17  C   UNL     1       0.098  11.756  19.183  0.00  0.00    +0.000 A 
ATOM     18 BR   UNL     1      -1.193  13.019  19.679  0.00  0.00    +0.000 Br
ATOM     19  S   UNL     1      -0.027  10.109  19.557  0.00  0.00    +0.000 S 
ENDBRANCH   3  14
BRANCH   5  20
ATOM     20  C   UNL     1       2.137   5.004  19.616  0.00  0.00    +0.000 A 
ATOM     21  C   UNL     1       2.525   4.658  20.912  0.00  0.00    +0.000 A 
ATOM     22  C   UNL     1       2.177   3.410  21.400  0.00  0.00    +0.000 A 
ATOM     23  N   UNL     1       1.530   2.477  20.674  0.00  0.00    +0.000 NA
ATOM     24  C   UNL     1       1.226   2.804  19.401  0.00  0.00    +0.000 A 
ATOM     25  C   UNL     1       1.502   4.038  18.835  0.00  0.00    +0.000 A 
ENDBRANCH   5  20
TORSDOF 3
ENDMDL
MODEL 6
REMARK VINA RESULT:      -7.4      1.432      1.704
REMARK  Name = 
REMARK  3 active torsions:
REMARK  status: ('A' for Active; 'I' for Inactive)
REMARK    1  A    between atoms: C_5  and  C_6
REMARK    2  A    between atoms: C_8  and  C_9
REMARK    3  A    between atoms: C_16  and  C_17
REMARK                            x       y       z     vdW  Elec       q    Type
REMARK                         _______ _______ _______ _____ _____    ______ ____
ROOT
ATOM      1  C   UNL     1       2.716   6.331  18.215  0.00  0.00    +0.000 A 
ATOM      2  N   UNL     1       1.871   7.373  18.520  0.00  0.00    +0.000 N 
ATOM      3  C   UNL     1       2.429   8.550  18.095  0.00  0.00    +0.000 A 
ATOM      4  N   UNL     1       3.593   8.326  17.526  0.00  0.00    +0.000 NA
ATOM      5  C   UNL     1       3.804   6.963  17.617  0.00  0.00    +0.000 A 
ATOM      6  H   UNL     1       0.969   7.301  18.968  0.00  0.00    +0.000 HD
ENDROOT
BRANCH   1  11
ATOM      7  F   UNL     1       1.109   1.066  19.231  0.00  0.00    +0.000 F 
ATOM      8  C   UNL     1       1.555   2.309  19.018  0.00  0.00    +0.000 A 
ATOM      9  C   UNL     1       1.362   3.283  19.987  0.00  0.00    +0.000 A 
ATOM     10  C   UNL     1       1.809   4.584  19.752  0.00  0.00    +0.000 A 
ATOM     11  C   UNL     1       2.396   4.933  18.524  0.00  0.00    +0.000 A 
ATOM     12  C   UNL     1       2.614   3.923  17.574  0.00  0.00    +0.000 A 
ATOM     13  C   UNL     1       2.197   2.612  17.824  0.00  0.00    +0.000 A 
ENDBRANCH   1  11
BRANCH   3  14
ATOM     14  C   UNL     1       1.833   9.846  18.258  0.00  0.00    +0.000 A 
ATOM     15  C   UNL     1       2.430  11.064  17.978  0.00  0.00    +0.000 A 
ATOM     16  C   UNL     1       1.578  12.174  18.264  0.00  0.00    +0.000 A 
ATOM     17  C   UNL     1       0.368  11.751  18.750  0.00  0.00    +0.000 A 
ATOM     18 BR   UNL     1      -1.012  12.915  19.248  0.00  0.00    +0.000 Br
ATOM     19  S   UNL     1       0.241  10.065  18.860  0.00  0.00    +0.000 S 
ENDBRANCH   3  14
BRANCH   5  20
ATOM     20  C   UNL     1       5.023   6.347  17.109  0.00  0.00    +0.000 A 
ATOM     21  C   UNL     1       6.102   6.035  17.938  0.00  0.00    +0.000 A 
ATOM     22  C   UNL     1       7.179   5.352  17.399  0.00  0.00    +0.000 A 
ATOM     23  N   UNL     1       7.277   5.016  16.097  0.00  0.00    +0.000 NA
ATOM     24  C   UNL     1       6.256   5.390  15.298  0.00  0.00    +0.000 A 
ATOM     25  C   UNL     1       5.122   6.045  15.750  0.00  0.00    +0.000 A 
ENDBRANCH   5  20
TORSDOF 3
ENDMDL
MODEL 7
REMARK VINA RESULT:      -7.4      2.099      4.194
REMARK  Name = 
REMARK  3 active torsions:
REMARK  status: ('A' for Active; 'I' for Inactive)
REMARK    1  A    between atoms: C_5  and  C_6
REMARK    2  A    between atoms: C_8  and  C_9
REMARK    3  A    between atoms: C_16  and  C_17
REMARK                            x       y       z     vdW  Elec       q    Type
REMARK                         _______ _______ _______ _____ _____    ______ ____
ROOT
ATOM      1  C   UNL     1       3.496   6.548  18.318  0.00  0.00    +0.000 A 
ATOM      2  N   UNL     1       2.939   7.799  18.175  0.00  0.00    +0.000 N 
ATOM      3  C   UNL     1       2.011   7.998  19.164  0.00  0.00    +0.000 A 
ATOM      4  N   UNL     1       1.938   6.942  19.943  0.00  0.00    +0.000 NA
ATOM      5  C   UNL     1       2.826   6.021  19.419  0.00  0.00    +0.000 A 
ATOM      6  H   UNL     1       3.178   8.484  17.473  0.00  0.00    +0.000 HD
ENDROOT
BRANCH   1  11
ATOM      7  F   UNL     1       7.588   4.329  15.209  0.00  0.00    +0.000 F 
ATOM      8  C   UNL     1       6.597   4.904  15.900  0.00  0.00    +0.000 A 
ATOM      9  C   UNL     1       6.873   5.987  16.722  0.00  0.00    +0.000 A 
ATOM     10  C   UNL     1       5.840   6.571  17.457  0.00  0.00    +0.000 A 
ATOM     11  C   UNL     1       4.541   6.038  17.423  0.00  0.00    +0.000 A 
ATOM     12  C   UNL     1       4.279   4.965  16.556  0.00  0.00    +0.000 A 
ATOM     13  C   UNL     1       5.307   4.403  15.793  0.00  0.00    +0.000 A 
ENDBRANCH   1  11
BRANCH   3  14
ATOM     14  C   UNL     1       1.222   9.187  19.319  0.00  0.00    +0.000 A 
ATOM     15  C   UNL     1       0.780  10.016  18.302  0.00  0.00    +0.000 A 
ATOM     16  C   UNL     1       0.028  11.130  18.786  0.00  0.00    +0.000 A 
ATOM     17  C   UNL     1      -0.069  11.098  20.153  0.00  0.00    +0.000 A 
ATOM     18 BR   UNL     1      -0.973  12.396  21.157  0.00  0.00    +0.000 Br
ATOM     19  S   UNL     1       0.713   9.767  20.851  0.00  0.00    +0.000 S 
ENDBRANCH   3  14
BRANCH   5  20
ATOM     20  C   UNL     1       2.994   4.702  20.016  0.00  0.00    +0.000 A 
ATOM     21  C   UNL     1       3.998   3.822  19.609  0.00  0.00    +0.000 A 
ATOM     22  C   UNL     1       4.161   2.633  20.300  0.00  0.00    +0.000 A 
ATOM     23  N   UNL     1       3.366   2.242  21.315  0.00  0.00    +0.000 NA
ATOM     24  C   UNL     1       2.356   3.074  21.647  0.00  0.00    +0.000 A 
ATOM     25  C   UNL     1       2.134   4.299  21.039  0.00  0.00    +0.000 A 
ENDBRANCH   5  20
TORSDOF 3
ENDMDL
MODEL 8
REMARK VINA RESULT:      -7.4      1.470      1.806
REMARK  Name = 
REMARK  3 active torsions:
REMARK  status: ('A' for Active; 'I' for Inactive)
REMARK    1  A    between atoms: C_5  and  C_6
REMARK    2  A    between atoms: C_8  and  C_9
REMARK    3  A    between atoms: C_16  and  C_17
REMARK                            x       y       z     vdW  Elec       q    Type
REMARK                         _______ _______ _______ _____ _____    ______ ____
ROOT
ATOM      1  C   UNL     1       2.713   6.523  18.201  0.00  0.00    +0.000 A 
ATOM      2  N   UNL     1       1.774   7.465  18.555  0.00  0.00    +0.000 N 
ATOM      3  C   UNL     1       2.178   8.698  18.116  0.00  0.00    +0.000 A 
ATOM      4  N   UNL     1       3.331   8.606  17.490  0.00  0.00    +0.000 NA
ATOM      5  C   UNL     1       3.695   7.274  17.559  0.00  0.00    +0.000 A 
ATOM      6  H   UNL     1       0.908   7.292  19.044  0.00  0.00    +0.000 HD
ENDROOT
BRANCH   1  11
ATOM      7  F   UNL     1       1.845   1.192  19.669  0.00  0.00    +0.000 F 
ATOM      8  C   UNL     1       2.102   2.444  19.274  0.00  0.00    +0.000 A 
ATOM      9  C   UNL     1       3.071   3.186  19.933  0.00  0.00    +0.000 A 
ATOM     10  C   UNL     1       3.322   4.499  19.531  0.00  0.00    +0.000 A 
ATOM     11  C   UNL     1       2.563   5.097  18.511  0.00  0.00    +0.000 A 
ATOM     12  C   UNL     1       1.613   4.315  17.835  0.00  0.00    +0.000 A 
ATOM     13  C   UNL     1       1.387   2.989  18.215  0.00  0.00    +0.000 A 
ENDBRANCH   1  11
BRANCH   3  14
ATOM     14  C   UNL     1       1.453   9.920  18.319  0.00  0.00    +0.000 A 
ATOM     15  C   UNL     1       0.090  10.037  18.534  0.00  0.00    +0.000 A 
ATOM     16  C   UNL     1      -0.329  11.395  18.684  0.00  0.00    +0.000 A 
ATOM     17  C   UNL     1       0.735  12.251  18.576  0.00  0.00    +0.000 A 
ATOM     18 BR   UNL     1       0.583  14.113  18.708  0.00  0.00    +0.000 Br
ATOM     19  S   UNL     1       2.208  11.460  18.307  0.00  0.00    +0.000 S 
ENDBRANCH   3  14
BRANCH   5  20
ATOM     20  C   UNL     1       4.948   6.798  16.988  0.00  0.00    +0.000 A 
ATOM     21  C   UNL     1       6.189   7.113  17.546  0.00  0.00    +0.000 A 
ATOM     22  C   UNL     1       7.326   6.534  17.011  0.00  0.00    +0.000 A 
ATOM     23  N   UNL     1       7.317   5.719  15.936  0.00  0.00    +0.000 NA
ATOM     24  C   UNL     1       6.116   5.484  15.368  0.00  0.00    +0.000 A 
ATOM     25  C   UNL     1       4.920   5.990  15.851  0.00  0.00    +0.000 A 
ENDBRANCH   5  20
TORSDOF 3
ENDMDL
MODEL 9
REMARK VINA RESULT:      -7.4      1.434      1.758
REMARK  Name = 
REMARK  3 active torsions:
REMARK  status: ('A' for Active; 'I' for Inactive)
REMARK    1  A    between atoms: C_5  and  C_6
REMARK    2  A    between atoms: C_8  and  C_9
REMARK    3  A    between atoms: C_16  and  C_17
REMARK                            x       y       z     vdW  Elec       q    Type
REMARK                         _______ _______ _______ _____ _____    ______ ____
ROOT
ATOM      1  C   UNL     1       2.625   6.261  18.187  0.00  0.00    +0.000 A 
ATOM      2  N   UNL     1       1.807   7.331  18.470  0.00  0.00    +0.000 N 
ATOM      3  C   UNL     1       2.425   8.491  18.082  0.00  0.00    +0.000 A 
ATOM      4  N   UNL     1       3.602   8.228  17.557  0.00  0.00    +0.000 NA
ATOM      5  C   UNL     1       3.759   6.858  17.641  0.00  0.00    +0.000 A 
ATOM      6  H   UNL     1       0.886   7.288  18.881  0.00  0.00    +0.000 HD
ENDROOT
BRANCH   1  11
ATOM      7  F   UNL     1       1.550   0.904  19.405  0.00  0.00    +0.000 F 
ATOM      8  C   UNL     1       1.742   2.189  19.088  0.00  0.00    +0.000 A 
ATOM      9  C   UNL     1       2.235   2.521  17.834  0.00  0.00    +0.000 A 
ATOM     10  C   UNL     1       2.453   3.861  17.515  0.00  0.00    +0.000 A 
ATOM     11  C   UNL     1       2.241   4.872  18.467  0.00  0.00    +0.000 A 
ATOM     12  C   UNL     1       1.707   4.516  19.715  0.00  0.00    +0.000 A 
ATOM     13  C   UNL     1       1.455   3.176  20.023  0.00  0.00    +0.000 A 
ENDBRANCH   1  11
BRANCH   3  14
ATOM     14  C   UNL     1       1.872   9.806  18.236  0.00  0.00    +0.000 A 
ATOM     15  C   UNL     1       2.512  11.002  17.956  0.00  0.00    +0.000 A 
ATOM     16  C   UNL     1       1.695  12.141  18.232  0.00  0.00    +0.000 A 
ATOM     17  C   UNL     1       0.468  11.760  18.711  0.00  0.00    +0.000 A 
ATOM     18 BR   UNL     1      -0.876  12.972  19.195  0.00  0.00    +0.000 Br
ATOM     19  S   UNL     1       0.284  10.080  18.825  0.00  0.00    +0.000 S 
ENDBRANCH   3  14
BRANCH   5  20
ATOM     20  C   UNL     1       4.974   6.202  17.175  0.00  0.00    +0.000 A 
ATOM     21  C   UNL     1       5.185   5.893  15.829  0.00  0.00    +0.000 A 
ATOM     22  C   UNL     1       6.410   5.370  15.451  0.00  0.00    +0.000 A 
ATOM     23  N   UNL     1       7.402   5.085  16.318  0.00  0.00    +0.000 NA
ATOM     24  C   UNL     1       7.152   5.324  17.622  0.00  0.00    +0.000 A 
ATOM     25  C   UNL     1       5.972   5.876  18.093  0.00  0.00    +0.000 A 
ENDBRANCH   5  20
TORSDOF 3
ENDMDL
