MODEL 1
REMARK VINA RESULT:      -9.0      0.000      0.000
REMARK  Name = 
REMARK  6 active torsions:
REMARK  status: ('A' for Active; 'I' for Inactive)
REMARK    1  A    between atoms: C_2  and  C_14
REMARK    2  A    between atoms: N_3  and  C_4
REMARK    3  A    between atoms: C_17  and  C_18
REMARK    4  A    between atoms: C_18  and  N_19
REMARK    5  A    between atoms: N_19  and  C_20
REMARK    6  A    between atoms: C_21  and  N_22
REMARK                            x       y       z     vdW  Elec       q    Type
REMARK                         _______ _______ _______ _____ _____    ______ ____
ROOT
ATOM      1  C   UNL     1       2.324   7.360  19.202  0.00  0.00    +0.000 A 
ATOM      2  C   UNL     1       1.642   7.922  20.288  0.00  0.00    +0.000 A 
ATOM      3  C   UNL     1       1.080   9.189  20.171  0.00  0.00    +0.000 A 
ATOM      4  C   UNL     1       1.198   9.909  18.975  0.00  0.00    +0.000 A 
ATOM      5  C   UNL     1       1.819   9.307  17.869  0.00  0.00    +0.000 A 
ATOM      6  C   UNL     1       2.391   8.042  17.985  0.00  0.00    +0.000 A 
ENDROOT
BRANCH   1   8
ATOM      7  O   UNL     1       2.632   5.223  20.148  0.00  0.00    +0.000 OA
ATOM      8  C   UNL     1       2.997   6.042  19.317  0.00  0.00    +0.000 C 
ATOM      9  N   UNL     1       3.995   5.825  18.401  0.00  0.00    +0.000 N 
ATOM     10  H   UNL     1       4.170   6.503  17.673  0.00  0.00    +0.000 HD
BRANCH   9  11
ATOM     11  C   UNL     1       4.760   4.591  18.334  0.00  0.00    +0.000 C 
ATOM     12  C   UNL     1       5.741   4.518  19.511  0.00  0.00    +0.000 C 
ATOM     13  C   UNL     1       6.886   5.512  19.335  0.00  0.00    +0.000 C 
ATOM     14  C   UNL     1       7.680   5.216  18.065  0.00  0.00    +0.000 C 
ATOM     15  C   UNL     1       6.813   4.942  16.860  0.00  0.00    +0.000 A 
ATOM     16  C   UNL     1       7.379   5.033  15.580  0.00  0.00    +0.000 A 
ATOM     17  C   UNL     1       6.608   4.794  14.442  0.00  0.00    +0.000 A 
ATOM     18  C   UNL     1       5.274   4.419  14.569  0.00  0.00    +0.000 A 
ATOM     19  C   UNL     1       4.707   4.296  15.836  0.00  0.00    +0.000 A 
ATOM     20  C   UNL     1       5.463   4.568  16.991  0.00  0.00    +0.000 A 
ENDBRANCH   9  11
ENDBRANCH   1   8
BRANCH   4  21
ATOM     21  C   UNL     1       0.556  11.267  18.899  0.00  0.00    +0.000 C 
BRANCH  21  22
ATOM     22  N   UNL     1      -0.576  11.306  17.981  0.00  0.00    +0.000 N 
ATOM     23  H   UNL     1      -0.482  10.653  17.201  0.00  0.00    +0.000 HD
BRANCH  22  24
ATOM     24  C   UNL     1      -1.767  11.673  18.407  0.00  0.00    +0.000 C 
ATOM     25  C   UNL     1      -2.323  12.249  19.529  0.00  0.00    +0.000 C 
ATOM     26  C   UNL     1      -3.698  11.986  19.025  0.00  0.00    +0.000 C 
ATOM     27  O   UNL     1      -4.841  12.061  19.408  0.00  0.00    +0.000 OA
ATOM     28  C   UNL     1      -3.088  11.518  17.757  0.00  0.00    +0.000 C 
ATOM     29  O   UNL     1      -3.543  11.071  16.735  0.00  0.00    +0.000 OA
BRANCH  25  30
ATOM     30  N   UNL     1      -1.907  12.743  20.679  0.00  0.00    +0.000 N 
ATOM     31  C   UNL     1      -1.031  13.928  20.798  0.00  0.00    +0.000 C 
ATOM     32  C   UNL     1       0.139  13.633  21.752  0.00  0.00    +0.000 C 
ATOM     33  O   UNL     1      -0.326  13.163  23.029  0.00  0.00    +0.000 OA
ATOM     34  C   UNL     1      -1.123  11.977  22.868  0.00  0.00    +0.000 C 
ATOM     35  C   UNL     1      -2.358  12.240  21.988  0.00  0.00    +0.000 C 
ENDBRANCH  25  30
ENDBRANCH  22  24
ENDBRANCH  21  22
ENDBRANCH   4  21
TORSDOF 6
ENDMDL
MODEL 2
REMARK VINA RESULT:      -8.9      2.595      3.879
REMARK  Name = 
REMARK  6 active torsions:
REMARK  status: ('A' for Active; 'I' for Inactive)
REMARK    1  A    between atoms: C_2  and  C_14
REMARK    2  A    between atoms: N_3  and  C_4
REMARK    3  A    between atoms: C_17  and  C_18
REMARK    4  A    between atoms: C_18  and  N_19
REMARK    5  A    between atoms: N_19  and  C_20
REMARK    6  A    between atoms: C_21  and  N_22
REMARK                            x       y       z     vdW  Elec       q    Type
REMARK                         _______ _______ _______ _____ _____    ______ ____
ROOT
ATOM      1  C   UNL     1       2.349   7.431  19.097  0.00  0.00    +0.000 A 
ATOM      2  C   UNL     1       2.420   8.164  17.906  0.00  0.00    +0.000 A 
ATOM      3  C   UNL     1       1.773   9.392  17.810  0.00  0.00    +0.000 A 
ATOM      4  C   UNL     1       1.046   9.897  18.896  0.00  0.00    +0.000 A 
ATOM      5  C   UNL     1       1.044   9.190  20.109  0.00  0.00    +0.000 A 
ATOM      6  C   UNL     1       1.683   7.956  20.206  0.00  0.00    +0.000 A 
ENDROOT
BRANCH   1   8
ATOM      7  O   UNL     1       2.506   5.247  19.969  0.00  0.00    +0.000 OA
ATOM      8  C   UNL     1       2.967   6.086  19.208  0.00  0.00    +0.000 C 
ATOM      9  N   UNL     1       4.030   5.871  18.369  0.00  0.00    +0.000 N 
ATOM     10  H   UNL     1       4.289   6.572  17.689  0.00  0.00    +0.000 HD
BRANCH   9  11
ATOM     11  C   UNL     1       4.757   4.614  18.311  0.00  0.00    +0.000 C 
ATOM     12  C   UNL     1       5.725   4.512  19.498  0.00  0.00    +0.000 C 
ATOM     13  C   UNL     1       6.901   5.471  19.332  0.00  0.00    +0.000 C 
ATOM     14  C   UNL     1       7.698   5.148  18.069  0.00  0.00    +0.000 C 
ATOM     15  C   UNL     1       6.834   4.899  16.857  0.00  0.00    +0.000 A 
ATOM     16  C   UNL     1       7.415   4.970  15.582  0.00  0.00    +0.000 A 
ATOM     17  C   UNL     1       6.647   4.753  14.437  0.00  0.00    +0.000 A 
ATOM     18  C   UNL     1       5.302   4.420  14.552  0.00  0.00    +0.000 A 
ATOM     19  C   UNL     1       4.719   4.317  15.814  0.00  0.00    +0.000 A 
ATOM     20  C   UNL     1       5.472   4.567  16.975  0.00  0.00    +0.000 A 
ENDBRANCH   9  11
ENDBRANCH   1   8
BRANCH   4  21
ATOM     21  C   UNL     1       0.382  11.238  18.743  0.00  0.00    +0.000 C 
BRANCH  21  22
ATOM     22  N   UNL     1       1.330  12.345  18.775  0.00  0.00    +0.000 N 
ATOM     23  H   UNL     1       1.632  12.642  17.846  0.00  0.00    +0.000 HD
BRANCH  22  24
ATOM     24  C   UNL     1       1.327  13.195  19.782  0.00  0.00    +0.000 C 
ATOM     25  C   UNL     1       1.756  14.479  20.041  0.00  0.00    +0.000 C 
ATOM     26  C   UNL     1       1.456  14.323  21.491  0.00  0.00    +0.000 C 
ATOM     27  O   UNL     1       1.616  14.923  22.526  0.00  0.00    +0.000 OA
ATOM     28  C   UNL     1       0.850  13.007  21.170  0.00  0.00    +0.000 C 
ATOM     29  O   UNL     1       0.344  12.144  21.841  0.00  0.00    +0.000 OA
BRANCH  25  30
ATOM     30  N   UNL     1       2.326  15.469  19.381  0.00  0.00    +0.000 N 
ATOM     31  C   UNL     1       1.794  16.848  19.345  0.00  0.00    +0.000 C 
ATOM     32  C   UNL     1       1.746  17.362  17.895  0.00  0.00    +0.000 C 
ATOM     33  O   UNL     1       3.027  17.250  17.252  0.00  0.00    +0.000 OA
ATOM     34  C   UNL     1       3.475  15.883  17.260  0.00  0.00    +0.000 C 
ATOM     35  C   UNL     1       3.622  15.344  18.694  0.00  0.00    +0.000 C 
ENDBRANCH  25  30
ENDBRANCH  22  24
ENDBRANCH  21  22
ENDBRANCH   4  21
TORSDOF 6
ENDMDL
MODEL 3
REMARK VINA RESULT:      -8.8      2.100     10.326
REMARK  Name = 
REMARK  6 active torsions:
REMARK  status: ('A' for Active; 'I' for Inactive)
REMARK    1  A    between atoms: C_2  and  C_14
REMARK    2  A    between atoms: N_3  and  C_4
REMARK    3  A    between atoms: C_17  and  C_18
REMARK    4  A    between atoms: C_18  and  N_19
REMARK    5  A    between atoms: N_19  and  C_20
REMARK    6  A    between atoms: C_21  and  N_22
REMARK                            x       y       z     vdW  Elec       q    Type
REMARK                         _______ _______ _______ _____ _____    ______ ____
ROOT
ATOM      1  C   UNL     1       0.960   9.631  19.448  0.00  0.00    +0.000 A 
ATOM      2  C   UNL     1       1.715   8.863  18.553  0.00  0.00    +0.000 A 
ATOM      3  C   UNL     1       2.209   7.624  18.950  0.00  0.00    +0.000 A 
ATOM      4  C   UNL     1       1.960   7.143  20.242  0.00  0.00    +0.000 A 
ATOM      5  C   UNL     1       1.140   7.887  21.106  0.00  0.00    +0.000 A 
ATOM      6  C   UNL     1       0.652   9.131  20.715  0.00  0.00    +0.000 A 
ENDROOT
BRANCH   1   8
ATOM      7  O   UNL     1       1.262  11.839  18.682  0.00  0.00    +0.000 OA
ATOM      8  C   UNL     1       0.481  10.987  19.082  0.00  0.00    +0.000 C 
ATOM      9  N   UNL     1      -0.875  11.163  19.185  0.00  0.00    +0.000 N 
ATOM     10  H   UNL     1      -1.472  10.383  19.418  0.00  0.00    +0.000 HD
BRANCH   9  11
ATOM     11  C   UNL     1      -1.543  12.412  18.853  0.00  0.00    +0.000 C 
ATOM     12  C   UNL     1      -1.480  13.374  20.046  0.00  0.00    +0.000 C 
ATOM     13  C   UNL     1      -2.397  12.911  21.175  0.00  0.00    +0.000 C 
ATOM     14  C   UNL     1      -3.852  12.857  20.713  0.00  0.00    +0.000 C 
ATOM     15  C   UNL     1      -4.034  12.205  19.364  0.00  0.00    +0.000 A 
ATOM     16  C   UNL     1      -5.309  11.750  18.995  0.00  0.00    +0.000 A 
ATOM     17  C   UNL     1      -5.515  11.136  17.759  0.00  0.00    +0.000 A 
ATOM     18  C   UNL     1      -4.462  11.007  16.860  0.00  0.00    +0.000 A 
ATOM     19  C   UNL     1      -3.197  11.481  17.202  0.00  0.00    +0.000 A 
ATOM     20  C   UNL     1      -2.966  12.071  18.457  0.00  0.00    +0.000 A 
ENDBRANCH   9  11
ENDBRANCH   1   8
BRANCH   4  21
ATOM     21  C   UNL     1       2.502   5.789  20.611  0.00  0.00    +0.000 C 
BRANCH  21  22
ATOM     22  N   UNL     1       3.748   5.474  19.923  0.00  0.00    +0.000 N 
ATOM     23  H   UNL     1       4.551   5.986  20.291  0.00  0.00    +0.000 HD
BRANCH  22  24
ATOM     24  C   UNL     1       3.911   4.302  19.343  0.00  0.00    +0.000 C 
ATOM     25  C   UNL     1       4.667   3.756  18.328  0.00  0.00    +0.000 C 
ATOM     26  C   UNL     1       3.894   2.486  18.389  0.00  0.00    +0.000 C 
ATOM     27  O   UNL     1       3.792   1.449  17.779  0.00  0.00    +0.000 OA
ATOM     28  C   UNL     1       3.201   3.027  19.584  0.00  0.00    +0.000 C 
ATOM     29  O   UNL     1       2.328   2.601  20.298  0.00  0.00    +0.000 OA
BRANCH  25  30
ATOM     30  N   UNL     1       5.615   4.149  17.498  0.00  0.00    +0.000 N 
ATOM     31  C   UNL     1       6.902   4.729  17.935  0.00  0.00    +0.000 C 
ATOM     32  C   UNL     1       7.199   6.019  17.149  0.00  0.00    +0.000 C 
ATOM     33  O   UNL     1       7.150   5.796  15.730  0.00  0.00    +0.000 OA
ATOM     34  C   UNL     1       5.860   5.287  15.345  0.00  0.00    +0.000 C 
ATOM     35  C   UNL     1       5.549   3.949  16.041  0.00  0.00    +0.000 C 
ENDBRANCH  25  30
ENDBRANCH  22  24
ENDBRANCH  21  22
ENDBRANCH   4  21
TORSDOF 6
ENDMDL
MODEL 4
REMARK VINA RESULT:      -8.8      2.192     10.343
REMARK  Name = 
REMARK  6 active torsions:
REMARK  status: ('A' for Active; 'I' for Inactive)
REMARK    1  A    between atoms: C_2  and  C_14
REMARK    2  A    between atoms: N_3  and  C_4
REMARK    3  A    between atoms: C_17  and  C_18
REMARK    4  A    between atoms: C_18  and  N_19
REMARK    5  A    between atoms: N_19  and  C_20
REMARK    6  A    between atoms: C_21  and  N_22
REMARK                            x       y       z     vdW  Elec       q    Type
REMARK                         _______ _______ _______ _____ _____    ______ ____
ROOT
ATOM      1  C   UNL     1       1.074   9.971  19.219  0.00  0.00    +0.000 A 
ATOM      2  C   UNL     1       0.945   9.373  20.479  0.00  0.00    +0.000 A 
ATOM      3  C   UNL     1       1.468   8.103  20.698  0.00  0.00    +0.000 A 
ATOM      4  C   UNL     1       2.119   7.416  19.664  0.00  0.00    +0.000 A 
ATOM      5  C   UNL     1       2.307   8.055  18.428  0.00  0.00    +0.000 A 
ATOM      6  C   UNL     1       1.777   9.322  18.202  0.00  0.00    +0.000 A 
ENDROOT
BRANCH   1   8
ATOM      7  O   UNL     1       1.126  12.193  18.433  0.00  0.00    +0.000 OA
ATOM      8  C   UNL     1       0.464  11.293  18.931  0.00  0.00    +0.000 C 
ATOM      9  N   UNL     1      -0.873  11.384  19.220  0.00  0.00    +0.000 N 
ATOM     10  H   UNL     1      -1.382  10.567  19.528  0.00  0.00    +0.000 HD
BRANCH   9  11
ATOM     11  C   UNL     1      -1.658  12.586  18.992  0.00  0.00    +0.000 C 
ATOM     12  C   UNL     1      -1.604  13.491  20.229  0.00  0.00    +0.000 C 
ATOM     13  C   UNL     1      -2.415  12.899  21.380  0.00  0.00    +0.000 C 
ATOM     14  C   UNL     1      -3.884  12.747  20.994  0.00  0.00    +0.000 C 
ATOM     15  C   UNL     1      -4.091  12.148  19.624  0.00  0.00    +0.000 A 
ATOM     16  C   UNL     1      -5.344  11.606  19.300  0.00  0.00    +0.000 A 
ATOM     17  C   UNL     1      -5.571  11.037  18.046  0.00  0.00    +0.000 A 
ATOM     18  C   UNL     1      -4.564  11.041  17.086  0.00  0.00    +0.000 A 
ATOM     19  C   UNL     1      -3.324  11.601  17.385  0.00  0.00    +0.000 A 
ATOM     20  C   UNL     1      -3.070  12.147  18.655  0.00  0.00    +0.000 A 
ENDBRANCH   9  11
ENDBRANCH   1   8
BRANCH   4  21
ATOM     21  C   UNL     1       2.681   6.053  19.963  0.00  0.00    +0.000 C 
BRANCH  21  22
ATOM     22  N   UNL     1       2.082   5.005  19.146  0.00  0.00    +0.000 N 
ATOM     23  H   UNL     1       1.357   5.351  18.516  0.00  0.00    +0.000 HD
BRANCH  22  24
ATOM     24  C   UNL     1       2.768   3.920  18.846  0.00  0.00    +0.000 C 
ATOM     25  C   UNL     1       3.916   3.591  18.159  0.00  0.00    +0.000 C 
ATOM     26  C   UNL     1       3.604   2.139  18.264  0.00  0.00    +0.000 C 
ATOM     27  O   UNL     1       4.015   1.084  17.846  0.00  0.00    +0.000 OA
ATOM     28  C   UNL     1       2.461   2.502  19.138  0.00  0.00    +0.000 C 
ATOM     29  O   UNL     1       1.603   1.860  19.688  0.00  0.00    +0.000 OA
BRANCH  25  30
ATOM     30  N   UNL     1       4.887   4.219  17.523  0.00  0.00    +0.000 N 
ATOM     31  C   UNL     1       4.983   4.309  16.051  0.00  0.00    +0.000 C 
ATOM     32  C   UNL     1       6.403   3.938  15.587  0.00  0.00    +0.000 C 
ATOM     33  O   UNL     1       7.401   4.730  16.252  0.00  0.00    +0.000 OA
ATOM     34  C   UNL     1       7.305   4.565  17.678  0.00  0.00    +0.000 C 
ATOM     35  C   UNL     1       5.928   5.004  18.207  0.00  0.00    +0.000 C 
ENDBRANCH  25  30
ENDBRANCH  22  24
ENDBRANCH  21  22
ENDBRANCH   4  21
TORSDOF 6
ENDMDL
MODEL 5
REMARK VINA RESULT:      -8.7      1.464      1.935
REMARK  Name = 
REMARK  6 active torsions:
REMARK  status: ('A' for Active; 'I' for Inactive)
REMARK    1  A    between atoms: C_2  and  C_14
REMARK    2  A    between atoms: N_3  and  C_4
REMARK    3  A    between atoms: C_17  and  C_18
REMARK    4  A    between atoms: C_18  and  N_19
REMARK    5  A    between atoms: N_19  and  C_20
REMARK    6  A    between atoms: C_21  and  N_22
REMARK                            x       y       z     vdW  Elec       q    Type
REMARK                         _______ _______ _______ _____ _____    ______ ____
ROOT
ATOM      1  C   UNL     1       2.265   7.269  18.996  0.00  0.00    +0.000 A 
ATOM      2  C   UNL     1       2.160   8.030  17.825  0.00  0.00    +0.000 A 
ATOM      3  C   UNL     1       1.545   9.278  17.865  0.00  0.00    +0.000 A 
ATOM      4  C   UNL     1       1.025   9.773  19.068  0.00  0.00    +0.000 A 
ATOM      5  C   UNL     1       1.201   9.034  20.249  0.00  0.00    +0.000 A 
ATOM      6  C   UNL     1       1.808   7.782  20.211  0.00  0.00    +0.000 A 
ENDROOT
BRANCH   1   8
ATOM      7  O   UNL     1       2.169   4.927  19.249  0.00  0.00    +0.000 OA
ATOM      8  C   UNL     1       2.850   5.905  18.974  0.00  0.00    +0.000 C 
ATOM      9  N   UNL     1       4.163   5.849  18.581  0.00  0.00    +0.000 N 
ATOM     10  H   UNL     1       4.633   6.685  18.263  0.00  0.00    +0.000 HD
BRANCH   9  11
ATOM     11  C   UNL     1       4.911   4.607  18.475  0.00  0.00    +0.000 C 
ATOM     12  C   UNL     1       5.958   4.528  19.593  0.00  0.00    +0.000 C 
ATOM     13  C   UNL     1       7.101   5.510  19.347  0.00  0.00    +0.000 C 
ATOM     14  C   UNL     1       7.816   5.201  18.033  0.00  0.00    +0.000 C 
ATOM     15  C   UNL     1       6.878   4.932  16.882  0.00  0.00    +0.000 A 
ATOM     16  C   UNL     1       7.369   5.012  15.571  0.00  0.00    +0.000 A 
ATOM     17  C   UNL     1       6.530   4.777  14.481  0.00  0.00    +0.000 A 
ATOM     18  C   UNL     1       5.203   4.416  14.687  0.00  0.00    +0.000 A 
ATOM     19  C   UNL     1       4.709   4.304  15.986  0.00  0.00    +0.000 A 
ATOM     20  C   UNL     1       5.534   4.572  17.093  0.00  0.00    +0.000 A 
ENDBRANCH   9  11
ENDBRANCH   1   8
BRANCH   4  21
ATOM     21  C   UNL     1       0.386  11.136  19.056  0.00  0.00    +0.000 C 
BRANCH  21  22
ATOM     22  N   UNL     1      -0.931  11.146  19.680  0.00  0.00    +0.000 N 
ATOM     23  H   UNL     1      -0.910  11.437  20.659  0.00  0.00    +0.000 HD
BRANCH  22  24
ATOM     24  C   UNL     1      -2.013  11.332  18.950  0.00  0.00    +0.000 C 
ATOM     25  C   UNL     1      -3.225  11.979  19.059  0.00  0.00    +0.000 C 
ATOM     26  C   UNL     1      -3.714  11.347  17.803  0.00  0.00    +0.000 C 
ATOM     27  O   UNL     1      -4.734  11.254  17.165  0.00  0.00    +0.000 OA
ATOM     28  C   UNL     1      -2.352  10.788  17.616  0.00  0.00    +0.000 C 
ATOM     29  O   UNL     1      -1.858  10.073  16.781  0.00  0.00    +0.000 OA
BRANCH  25  30
ATOM     30  N   UNL     1      -3.842  12.754  19.930  0.00  0.00    +0.000 N 
ATOM     31  C   UNL     1      -3.154  13.750  20.777  0.00  0.00    +0.000 C 
ATOM     32  C   UNL     1      -3.602  13.604  22.242  0.00  0.00    +0.000 C 
ATOM     33  O   UNL     1      -5.033  13.671  22.367  0.00  0.00    +0.000 OA
ATOM     34  C   UNL     1      -5.655  12.646  21.572  0.00  0.00    +0.000 C 
ATOM     35  C   UNL     1      -5.307  12.798  20.080  0.00  0.00    +0.000 C 
ENDBRANCH  25  30
ENDBRANCH  22  24
ENDBRANCH  21  22
ENDBRANCH   4  21
TORSDOF 6
ENDMDL
MODEL 6
REMARK VINA RESULT:      -8.7      2.480     10.532
REMARK  Name = 
REMARK  6 active torsions:
REMARK  status: ('A' for Active; 'I' for Inactive)
REMARK    1  A    between atoms: C_2  and  C_14
REMARK    2  A    between atoms: N_3  and  C_4
REMARK    3  A    between atoms: C_17  and  C_18
REMARK    4  A    between atoms: C_18  and  N_19
REMARK    5  A    between atoms: N_19  and  C_20
REMARK    6  A    between atoms: C_21  and  N_22
REMARK                            x       y       z     vdW  Elec       q    Type
REMARK                         _______ _______ _______ _____ _____    ______ ____
ROOT
ATOM      1  C   UNL     1       0.590   9.652  21.228  0.00  0.00    +0.000 A 
ATOM      2  C   UNL     1       0.650  10.087  19.899  0.00  0.00    +0.000 A 
ATOM      3  C   UNL     1       1.305   9.312  18.947  0.00  0.00    +0.000 A 
ATOM      4  C   UNL     1       1.909   8.102  19.312  0.00  0.00    +0.000 A 
ATOM      5  C   UNL     1       1.779   7.640  20.631  0.00  0.00    +0.000 A 
ATOM      6  C   UNL     1       1.132   8.417  21.589  0.00  0.00    +0.000 A 
ENDROOT
BRANCH   1   8
ATOM      7  O   UNL     1      -0.069  10.111  23.444  0.00  0.00    +0.000 OA
ATOM      8  C   UNL     1      -0.037  10.489  22.282  0.00  0.00    +0.000 C 
ATOM      9  N   UNL     1      -0.512  11.699  21.846  0.00  0.00    +0.000 N 
ATOM     10  H   UNL     1      -0.356  11.992  20.892  0.00  0.00    +0.000 HD
BRANCH   9  11
ATOM     11  C   UNL     1      -1.142  12.671  22.726  0.00  0.00    +0.000 C 
ATOM     12  C   UNL     1      -2.631  12.338  22.895  0.00  0.00    +0.000 C 
ATOM     13  C   UNL     1      -3.410  12.640  21.617  0.00  0.00    +0.000 C 
ATOM     14  C   UNL     1      -3.315  14.120  21.253  0.00  0.00    +0.000 C 
ATOM     15  C   UNL     1      -1.918  14.680  21.357  0.00  0.00    +0.000 A 
ATOM     16  C   UNL     1      -1.617  15.885  20.704  0.00  0.00    +0.000 A 
ATOM     17  C   UNL     1      -0.334  16.430  20.771  0.00  0.00    +0.000 A 
ATOM     18  C   UNL     1       0.652  15.803  21.526  0.00  0.00    +0.000 A 
ATOM     19  C   UNL     1       0.358  14.621  22.204  0.00  0.00    +0.000 A 
ATOM     20  C   UNL     1      -0.920  14.041  22.117  0.00  0.00    +0.000 A 
ENDBRANCH   9  11
ENDBRANCH   1   8
BRANCH   4  21
ATOM     21  C   UNL     1       2.588   7.296  18.238  0.00  0.00    +0.000 C 
BRANCH  21  22
ATOM     22  N   UNL     1       2.241   5.882  18.289  0.00  0.00    +0.000 N 
ATOM     23  H   UNL     1       1.585   5.603  17.559  0.00  0.00    +0.000 HD
BRANCH  22  24
ATOM     24  C   UNL     1       3.082   5.007  18.803  0.00  0.00    +0.000 C 
ATOM     25  C   UNL     1       4.375   4.581  18.592  0.00  0.00    +0.000 C 
ATOM     26  C   UNL     1       4.198   3.456  19.551  0.00  0.00    +0.000 C 
ATOM     27  O   UNL     1       4.794   2.477  19.929  0.00  0.00    +0.000 OA
ATOM     28  C   UNL     1       2.868   4.022  19.887  0.00  0.00    +0.000 C 
ATOM     29  O   UNL     1       1.985   3.674  20.629  0.00  0.00    +0.000 OA
BRANCH  25  30
ATOM     30  N   UNL     1       5.387   4.889  17.803  0.00  0.00    +0.000 N 
ATOM     31  C   UNL     1       5.304   4.909  16.328  0.00  0.00    +0.000 C 
ATOM     32  C   UNL     1       6.486   4.136  15.717  0.00  0.00    +0.000 C 
ATOM     33  O   UNL     1       7.746   4.628  16.203  0.00  0.00    +0.000 OA
ATOM     34  C   UNL     1       7.803   4.534  17.637  0.00  0.00    +0.000 C 
ATOM     35  C   UNL     1       6.689   5.362  18.303  0.00  0.00    +0.000 C 
ENDBRANCH  25  30
ENDBRANCH  22  24
ENDBRANCH  21  22
ENDBRANCH   4  21
TORSDOF 6
ENDMDL
MODEL 7
REMARK VINA RESULT:      -8.6      2.278     10.735
REMARK  Name = 
REMARK  6 active torsions:
REMARK  status: ('A' for Active; 'I' for Inactive)
REMARK    1  A    between atoms: C_2  and  C_14
REMARK    2  A    between atoms: N_3  and  C_4
REMARK    3  A    between atoms: C_17  and  C_18
REMARK    4  A    between atoms: C_18  and  N_19
REMARK    5  A    between atoms: N_19  and  C_20
REMARK    6  A    between atoms: C_21  and  N_22
REMARK                            x       y       z     vdW  Elec       q    Type
REMARK                         _______ _______ _______ _____ _____    ______ ____
ROOT
ATOM      1  C   UNL     1      -0.271  10.974  19.722  0.00  0.00    +0.000 A 
ATOM      2  C   UNL     1       0.397  10.556  18.565  0.00  0.00    +0.000 A 
ATOM      3  C   UNL     1       1.187   9.411  18.597  0.00  0.00    +0.000 A 
ATOM      4  C   UNL     1       1.322   8.677  19.783  0.00  0.00    +0.000 A 
ATOM      5  C   UNL     1       0.590   9.063  20.917  0.00  0.00    +0.000 A 
ATOM      6  C   UNL     1      -0.195  10.213  20.891  0.00  0.00    +0.000 A 
ENDROOT
BRANCH   1   8
ATOM      7  O   UNL     1      -0.545  13.299  19.451  0.00  0.00    +0.000 OA
ATOM      8  C   UNL     1      -1.062  12.230  19.741  0.00  0.00    +0.000 C 
ATOM      9  N   UNL     1      -2.388  12.068  20.054  0.00  0.00    +0.000 N 
ATOM     10  H   UNL     1      -2.771  11.142  20.177  0.00  0.00    +0.000 HD
BRANCH   9  11
ATOM     11  C   UNL     1      -3.334  13.171  20.106  0.00  0.00    +0.000 C 
ATOM     12  C   UNL     1      -3.211  13.906  21.447  0.00  0.00    +0.000 C 
ATOM     13  C   UNL     1      -3.772  13.063  22.590  0.00  0.00    +0.000 C 
ATOM     14  C   UNL     1      -5.253  12.762  22.372  0.00  0.00    +0.000 C 
ATOM     15  C   UNL     1      -5.582  12.324  20.966  0.00  0.00    +0.000 A 
ATOM     16  C   UNL     1      -6.795  11.662  20.725  0.00  0.00    +0.000 A 
ATOM     17  C   UNL     1      -7.130  11.236  19.439  0.00  0.00    +0.000 A 
ATOM     18  C   UNL     1      -6.279  11.503  18.372  0.00  0.00    +0.000 A 
ATOM     19  C   UNL     1      -5.084  12.185  18.592  0.00  0.00    +0.000 A 
ATOM     20  C   UNL     1      -4.717  12.590  19.888  0.00  0.00    +0.000 A 
ENDBRANCH   9  11
ENDBRANCH   1   8
BRANCH   4  21
ATOM     21  C   UNL     1       2.174   7.437  19.756  0.00  0.00    +0.000 C 
BRANCH  21  22
ATOM     22  N   UNL     1       2.321   6.883  18.416  0.00  0.00    +0.000 N 
ATOM     23  H   UNL     1       2.404   7.598  17.693  0.00  0.00    +0.000 HD
BRANCH  22  24
ATOM     24  C   UNL     1       2.855   5.690  18.243  0.00  0.00    +0.000 C 
ATOM     25  C   UNL     1       3.926   5.132  17.581  0.00  0.00    +0.000 C 
ATOM     26  C   UNL     1       3.439   3.758  17.878  0.00  0.00    +0.000 C 
ATOM     27  O   UNL     1       3.700   2.615  17.591  0.00  0.00    +0.000 OA
ATOM     28  C   UNL     1       2.384   4.371  18.722  0.00  0.00    +0.000 C 
ATOM     29  O   UNL     1       1.473   3.918  19.367  0.00  0.00    +0.000 OA
BRANCH  25  30
ATOM     30  N   UNL     1       4.944   5.546  16.849  0.00  0.00    +0.000 N 
ATOM     31  C   UNL     1       5.380   4.890  15.599  0.00  0.00    +0.000 C 
ATOM     32  C   UNL     1       6.902   4.663  15.619  0.00  0.00    +0.000 C 
ATOM     33  O   UNL     1       7.615   5.884  15.876  0.00  0.00    +0.000 OA
ATOM     34  C   UNL     1       7.200   6.454  17.130  0.00  0.00    +0.000 C 
ATOM     35  C   UNL     1       5.695   6.781  17.132  0.00  0.00    +0.000 C 
ENDBRANCH  25  30
ENDBRANCH  22  24
ENDBRANCH  21  22
ENDBRANCH   4  21
TORSDOF 6
ENDMDL
MODEL 8
REMARK VINA RESULT:      -8.6      2.256     10.790
REMARK  Name = 
REMARK  6 active torsions:
REMARK  status: ('A' for Active; 'I' for Inactive)
REMARK    1  A    between atoms: C_2  and  C_14
REMARK    2  A    between atoms: N_3  and  C_4
REMARK    3  A    between atoms: C_17  and  C_18
REMARK    4  A    between atoms: C_18  and  N_19
REMARK    5  A    between atoms: N_19  and  C_20
REMARK    6  A    between atoms: C_21  and  N_22
REMARK                            x       y       z     vdW  Elec       q    Type
REMARK                         _______ _______ _______ _____ _____    ______ ____
ROOT
ATOM      1  C   UNL     1      -0.574  10.976  20.055  0.00  0.00    +0.000 A 
ATOM      2  C   UNL     1      -0.589  10.351  21.308  0.00  0.00    +0.000 A 
ATOM      3  C   UNL     1       0.210   9.234  21.533  0.00  0.00    +0.000 A 
ATOM      4  C   UNL     1       1.025   8.728  20.511  0.00  0.00    +0.000 A 
ATOM      5  C   UNL     1       1.088   9.406  19.284  0.00  0.00    +0.000 A 
ATOM      6  C   UNL     1       0.283  10.519  19.052  0.00  0.00    +0.000 A 
ENDROOT
BRANCH   1   8
ATOM      7  O   UNL     1      -1.233  12.873  18.821  0.00  0.00    +0.000 OA
ATOM      8  C   UNL     1      -1.467  12.124  19.760  0.00  0.00    +0.000 C 
ATOM      9  N   UNL     1      -2.562  12.225  20.579  0.00  0.00    +0.000 N 
ATOM     10  H   UNL     1      -2.749  11.508  21.265  0.00  0.00    +0.000 HD
BRANCH   9  11
ATOM     11  C   UNL     1      -3.566  13.267  20.441  0.00  0.00    +0.000 C 
ATOM     12  C   UNL     1      -3.671  14.072  21.743  0.00  0.00    +0.000 C 
ATOM     13  C   UNL     1      -4.336  13.251  22.845  0.00  0.00    +0.000 C 
ATOM     14  C   UNL     1      -5.754  12.847  22.448  0.00  0.00    +0.000 C 
ATOM     15  C   UNL     1      -5.860  12.322  21.037  0.00  0.00    +0.000 A 
ATOM     16  C   UNL     1      -6.990  11.574  20.672  0.00  0.00    +0.000 A 
ATOM     17  C   UNL     1      -7.120  11.066  19.379  0.00  0.00    +0.000 A 
ATOM     18  C   UNL     1      -6.147  11.334  18.423  0.00  0.00    +0.000 A 
ATOM     19  C   UNL     1      -5.033  12.100  18.764  0.00  0.00    +0.000 A 
ATOM     20  C   UNL     1      -4.871  12.590  20.072  0.00  0.00    +0.000 A 
ENDBRANCH   9  11
ENDBRANCH   1   8
BRANCH   4  21
ATOM     21  C   UNL     1       1.881   7.529  20.816  0.00  0.00    +0.000 C 
BRANCH  21  22
ATOM     22  N   UNL     1       2.506   6.965  19.626  0.00  0.00    +0.000 N 
ATOM     23  H   UNL     1       2.799   7.674  18.952  0.00  0.00    +0.000 HD
BRANCH  22  24
ATOM     24  C   UNL     1       3.123   5.802  19.685  0.00  0.00    +0.000 C 
ATOM     25  C   UNL     1       4.280   5.229  19.203  0.00  0.00    +0.000 C 
ATOM     26  C   UNL     1       3.852   3.884  19.675  0.00  0.00    +0.000 C 
ATOM     27  O   UNL     1       4.205   2.733  19.593  0.00  0.00    +0.000 OA
ATOM     28  C   UNL     1       2.692   4.540  20.328  0.00  0.00    +0.000 C 
ATOM     29  O   UNL     1       1.757   4.126  20.964  0.00  0.00    +0.000 OA
BRANCH  25  30
ATOM     30  N   UNL     1       5.331   5.600  18.497  0.00  0.00    +0.000 N 
ATOM     31  C   UNL     1       5.245   6.336  17.218  0.00  0.00    +0.000 C 
ATOM     32  C   UNL     1       6.138   5.668  16.158  0.00  0.00    +0.000 C 
ATOM     33  O   UNL     1       7.492   5.526  16.620  0.00  0.00    +0.000 OA
ATOM     34  C   UNL     1       7.530   4.753  17.833  0.00  0.00    +0.000 C 
ATOM     35  C   UNL     1       6.719   5.424  18.957  0.00  0.00    +0.000 C 
ENDBRANCH  25  30
ENDBRANCH  22  24
ENDBRANCH  21  22
ENDBRANCH   4  21
TORSDOF 6
ENDMDL
MODEL 9
REMARK VINA RESULT:      -8.6      2.269     10.280
REMARK  Name = 
REMARK  6 active torsions:
REMARK  status: ('A' for Active; 'I' for Inactive)
REMARK    1  A    between atoms: C_2  and  C_14
REMARK    2  A    between atoms: N_3  and  C_4
REMARK    3  A    between atoms: C_17  and  C_18
REMARK    4  A    between atoms: C_18  and  N_19
REMARK    5  A    between atoms: N_19  and  C_20
REMARK    6  A    between atoms: C_21  and  N_22
REMARK                            x       y       z     vdW  Elec       q    Type
REMARK                         _______ _______ _______ _____ _____    ______ ____
ROOT
ATOM      1  C   UNL     1       0.584   9.977  19.089  0.00  0.00    +0.000 A 
ATOM      2  C   UNL     1       0.786   9.253  20.271  0.00  0.00    +0.000 A 
ATOM      3  C   UNL     1       1.584   8.113  20.255  0.00  0.00    +0.000 A 
ATOM      4  C   UNL     1       2.180   7.682  19.063  0.00  0.00    +0.000 A 
ATOM      5  C   UNL     1       2.031   8.456  17.901  0.00  0.00    +0.000 A 
ATOM      6  C   UNL     1       1.226   9.592  17.911  0.00  0.00    +0.000 A 
ENDROOT
BRANCH   1   8
ATOM      7  O   UNL     1      -1.367  11.122  18.427  0.00  0.00    +0.000 OA
ATOM      8  C   UNL     1      -0.319  11.155  19.056  0.00  0.00    +0.000 C 
ATOM      9  N   UNL     1       0.101  12.221  19.810  0.00  0.00    +0.000 N 
ATOM     10  H   UNL     1       0.923  12.139  20.390  0.00  0.00    +0.000 HD
BRANCH   9  11
ATOM     11  C   UNL     1      -0.651  13.460  19.925  0.00  0.00    +0.000 C 
ATOM     12  C   UNL     1       0.288  14.661  19.761  0.00  0.00    +0.000 C 
ATOM     13  C   UNL     1       1.194  14.823  20.980  0.00  0.00    +0.000 C 
ATOM     14  C   UNL     1       0.372  15.061  22.245  0.00  0.00    +0.000 C 
ATOM     15  C   UNL     1      -0.810  14.133  22.382  0.00  0.00    +0.000 A 
ATOM     16  C   UNL     1      -1.412  13.978  23.639  0.00  0.00    +0.000 A 
ATOM     17  C   UNL     1      -2.503  13.124  23.806  0.00  0.00    +0.000 A 
ATOM     18  C   UNL     1      -3.033  12.447  22.713  0.00  0.00    +0.000 A 
ATOM     19  C   UNL     1      -2.463  12.614  21.452  0.00  0.00    +0.000 A 
ATOM     20  C   UNL     1      -1.342  13.445  21.275  0.00  0.00    +0.000 A 
ENDBRANCH   9  11
ENDBRANCH   1   8
BRANCH   4  21
ATOM     21  C   UNL     1       3.047   6.452  19.108  0.00  0.00    +0.000 C 
BRANCH  21  22
ATOM     22  N   UNL     1       4.205   6.546  18.228  0.00  0.00    +0.000 N 
ATOM     23  H   UNL     1       4.929   7.173  18.583  0.00  0.00    +0.000 HD
BRANCH  22  24
ATOM     24  C   UNL     1       4.518   5.545  17.430  0.00  0.00    +0.000 C 
ATOM     25  C   UNL     1       4.334   4.181  17.375  0.00  0.00    +0.000 C 
ATOM     26  C   UNL     1       5.267   4.067  16.221  0.00  0.00    +0.000 C 
ATOM     27  O   UNL     1       5.803   3.209  15.562  0.00  0.00    +0.000 OA
ATOM     28  C   UNL     1       5.327   5.549  16.191  0.00  0.00    +0.000 C 
ATOM     29  O   UNL     1       5.929   6.339  15.508  0.00  0.00    +0.000 OA
BRANCH  25  30
ATOM     30  N   UNL     1       3.715   3.251  18.078  0.00  0.00    +0.000 N 
ATOM     31  C   UNL     1       2.543   2.494  17.589  0.00  0.00    +0.000 C 
ATOM     32  C   UNL     1       1.431   2.490  18.653  0.00  0.00    +0.000 C 
ATOM     33  O   UNL     1       1.910   2.004  19.917  0.00  0.00    +0.000 OA
ATOM     34  C   UNL     1       3.011   2.807  20.380  0.00  0.00    +0.000 C 
ATOM     35  C   UNL     1       4.189   2.776  19.389  0.00  0.00    +0.000 C 
ENDBRANCH  25  30
ENDBRANCH  22  24
ENDBRANCH  21  22
ENDBRANCH   4  21
TORSDOF 6
ENDMDL
