MODEL 1
REMARK VINA RESULT:      -7.6      0.000      0.000
REMARK  Name = 
REMARK  4 active torsions:
REMARK  status: ('A' for Active; 'I' for Inactive)
REMARK    1  A    between atoms: N_1  and  C_2
REMARK    2  A    between atoms: C_2  and  C_3
REMARK    3  A    between atoms: N_22  and  C_23
REMARK    4  A    between atoms: C_23  and  C_24
REMARK                            x       y       z     vdW  Elec       q    Type
REMARK                         _______ _______ _______ _____ _____    ______ ____
ROOT
ATOM      1  C   UNL     1       9.314  16.854  18.395  0.00  0.00    +0.000 C 
ATOM      2  O   UNL     1       9.513  18.025  18.725  0.00  0.00    +0.000 OA
ATOM      3  N   UNL     1       8.078  16.245  18.535  0.00  0.00    +0.000 N 
ATOM      4  C   UNL     1       6.936  17.028  19.015  0.00  0.00    +0.000 C 
ATOM      5  C   UNL     1       5.677  16.757  18.170  0.00  0.00    +0.000 C 
ATOM      6  N   UNL     1       5.442  15.310  18.090  0.00  0.00    +0.000 N 
ATOM      7  C   UNL     1       4.174  14.801  18.208  0.00  0.00    +0.000 A 
ATOM      8  N   UNL     1       3.196  15.654  18.506  0.00  0.00    +0.000 NA
ATOM      9  C   UNL     1       1.952  15.197  18.733  0.00  0.00    +0.000 A 
ATOM     10  N   UNL     1       1.025  16.153  19.102  0.00  0.00    +0.000 N 
ATOM     11  C   UNL     1       1.410  17.545  19.257  0.00  0.00    +0.000 C 
ATOM     12  C   UNL     1       0.189  18.123  19.959  0.00  0.00    +0.000 C 
ATOM     13  C   UNL     1      -0.975  17.400  19.292  0.00  0.00    +0.000 C 
ATOM     14  C   UNL     1      -0.411  16.036  18.878  0.00  0.00    +0.000 C 
ATOM     15  C   UNL     1       1.657  13.837  18.673  0.00  0.00    +0.000 A 
ATOM     16  N   UNL     1       0.428  13.326  18.957  0.00  0.00    +0.000 NA
ATOM     17  C   UNL     1       0.309  11.993  18.912  0.00  0.00    +0.000 A 
ATOM     18 CL   UNL     1      -1.274  11.434  19.283  0.00  0.00    +0.000 Cl
ATOM     19  C   UNL     1       1.361  11.140  18.573  0.00  0.00    +0.000 A 
ATOM     20  N   UNL     1       1.137   9.773  18.477  0.00  0.00    +0.000 N 
ATOM     21  N   UNL     1       2.569  11.673  18.266  0.00  0.00    +0.000 NA
ATOM     22  C   UNL     1       2.742  13.012  18.332  0.00  0.00    +0.000 A 
ATOM     23  N   UNL     1       3.962  13.486  18.093  0.00  0.00    +0.000 NA
ATOM     24  C   UNL     1       6.548  14.513  17.570  0.00  0.00    +0.000 C 
ATOM     25  C   UNL     1       7.818  14.801  18.397  0.00  0.00    +0.000 C 
ATOM     26  H   UNL     1       0.643   9.376  19.270  0.00  0.00    +0.000 HD
ENDROOT
BRANCH   1  27
ATOM     27  C   UNL     1      10.446  16.040  17.757  0.00  0.00    +0.000 C 
BRANCH  27  28
ATOM     28  N   UNL     1      10.466  16.246  16.299  0.00  0.00    +0.000 NA
ATOM     29  H   UNL     1      11.160  16.958  16.076  0.00  0.00    +0.000 HD
ATOM     30  H   UNL     1       9.563  16.637  16.024  0.00  0.00    +0.000 HD
ENDBRANCH  27  28
ENDBRANCH   1  27
BRANCH  20  31
ATOM     31  C   UNL     1       2.069   8.886  17.824  0.00  0.00    +0.000 C 
BRANCH  31  32
ATOM     32  C   UNL     1       2.113   7.614  18.646  0.00  0.00    +0.000 A 
ATOM     33  C   UNL     1       1.754   7.651  20.002  0.00  0.00    +0.000 A 
ATOM     34  C   UNL     1       1.833   6.504  20.794  0.00  0.00    +0.000 A 
ATOM     35  C   UNL     1       2.287   5.308  20.242  0.00  0.00    +0.000 A 
ATOM     36  C   UNL     1       2.665   5.260  18.900  0.00  0.00    +0.000 A 
ATOM     37  C   UNL     1       2.584   6.407  18.106  0.00  0.00    +0.000 A 
ENDBRANCH  31  32
ENDBRANCH  20  31
TORSDOF 4
ENDMDL
MODEL 2
REMARK VINA RESULT:      -7.0      5.051      8.640
REMARK  Name = 
REMARK  4 active torsions:
REMARK  status: ('A' for Active; 'I' for Inactive)
REMARK    1  A    between atoms: N_1  and  C_2
REMARK    2  A    between atoms: C_2  and  C_3
REMARK    3  A    between atoms: N_22  and  C_23
REMARK    4  A    between atoms: C_23  and  C_24
REMARK                            x       y       z     vdW  Elec       q    Type
REMARK                         _______ _______ _______ _____ _____    ______ ____
ROOT
ATOM      1  C   UNL     1      -7.096  14.455  23.384  0.00  0.00    +0.000 C 
ATOM      2  O   UNL     1      -7.705  15.515  23.228  0.00  0.00    +0.000 OA
ATOM      3  N   UNL     1      -5.947  14.150  22.674  0.00  0.00    +0.000 N 
ATOM      4  C   UNL     1      -5.375  15.144  21.762  0.00  0.00    +0.000 C 
ATOM      5  C   UNL     1      -3.847  15.247  21.933  0.00  0.00    +0.000 C 
ATOM      6  N   UNL     1      -3.251  13.909  21.837  0.00  0.00    +0.000 N 
ATOM      7  C   UNL     1      -2.089  13.711  21.138  0.00  0.00    +0.000 A 
ATOM      8  N   UNL     1      -1.594  14.747  20.464  0.00  0.00    +0.000 NA
ATOM      9  C   UNL     1      -0.514  14.585  19.680  0.00  0.00    +0.000 A 
ATOM     10  N   UNL     1      -0.120  15.703  18.971  0.00  0.00    +0.000 N 
ATOM     11  C   UNL     1      -0.865  16.948  19.064  0.00  0.00    +0.000 C 
ATOM     12  C   UNL     1      -0.274  17.744  17.910  0.00  0.00    +0.000 C 
ATOM     13  C   UNL     1       1.203  17.374  17.947  0.00  0.00    +0.000 C 
ATOM     14  C   UNL     1       1.243  15.951  18.515  0.00  0.00    +0.000 C 
ATOM     15  C   UNL     1       0.103  13.344  19.544  0.00  0.00    +0.000 A 
ATOM     16  N   UNL     1       1.158  13.121  18.713  0.00  0.00    +0.000 NA
ATOM     17  C   UNL     1       1.610  11.862  18.644  0.00  0.00    +0.000 A 
ATOM     18 CL   UNL     1       2.943  11.671  17.574  0.00  0.00    +0.000 Cl
ATOM     19  C   UNL     1       1.070  10.812  19.389  0.00  0.00    +0.000 A 
ATOM     20  N   UNL     1       1.645   9.549  19.316  0.00  0.00    +0.000 N 
ATOM     21  N   UNL     1       0.038  11.062  20.230  0.00  0.00    +0.000 NA
ATOM     22  C   UNL     1      -0.471  12.312  20.305  0.00  0.00    +0.000 A 
ATOM     23  N   UNL     1      -1.530  12.497  21.090  0.00  0.00    +0.000 NA
ATOM     24  C   UNL     1      -3.771  12.913  22.770  0.00  0.00    +0.000 C 
ATOM     25  C   UNL     1      -5.303  12.825  22.620  0.00  0.00    +0.000 C 
ATOM     26  H   UNL     1       1.812   9.222  18.370  0.00  0.00    +0.000 HD
ENDROOT
BRANCH   1  27
ATOM     27  C   UNL     1      -7.581  13.445  24.431  0.00  0.00    +0.000 C 
BRANCH  27  28
ATOM     28  N   UNL     1      -7.915  12.162  23.789  0.00  0.00    +0.000 NA
ATOM     29  H   UNL     1      -7.943  11.435  24.502  0.00  0.00    +0.000 HD
ATOM     30  H   UNL     1      -7.147  11.914  23.163  0.00  0.00    +0.000 HD
ENDBRANCH  27  28
ENDBRANCH   1  27
BRANCH  20  31
ATOM     31  C   UNL     1       1.357   8.518  20.283  0.00  0.00    +0.000 C 
BRANCH  31  32
ATOM     32  C   UNL     1       1.980   7.240  19.760  0.00  0.00    +0.000 A 
ATOM     33  C   UNL     1       1.858   6.055  20.502  0.00  0.00    +0.000 A 
ATOM     34  C   UNL     1       2.465   4.874  20.068  0.00  0.00    +0.000 A 
ATOM     35  C   UNL     1       3.214   4.869  18.893  0.00  0.00    +0.000 A 
ATOM     36  C   UNL     1       3.360   6.044  18.156  0.00  0.00    +0.000 A 
ATOM     37  C   UNL     1       2.751   7.225  18.588  0.00  0.00    +0.000 A 
ENDBRANCH  31  32
ENDBRANCH  20  31
TORSDOF 4
ENDMDL
MODEL 3
REMARK VINA RESULT:      -6.9      0.808      1.168
REMARK  Name = 
REMARK  4 active torsions:
REMARK  status: ('A' for Active; 'I' for Inactive)
REMARK    1  A    between atoms: N_1  and  C_2
REMARK    2  A    between atoms: C_2  and  C_3
REMARK    3  A    between atoms: N_22  and  C_23
REMARK    4  A    between atoms: C_23  and  C_24
REMARK                            x       y       z     vdW  Elec       q    Type
REMARK                         _______ _______ _______ _____ _____    ______ ____
ROOT
ATOM      1  C   UNL     1       9.700  16.350  18.490  0.00  0.00    +0.000 C 
ATOM      2  O   UNL     1      10.059  17.451  18.912  0.00  0.00    +0.000 OA
ATOM      3  N   UNL     1       8.409  15.877  18.656  0.00  0.00    +0.000 N 
ATOM      4  C   UNL     1       7.400  16.736  19.281  0.00  0.00    +0.000 C 
ATOM      5  C   UNL     1       6.072  16.698  18.501  0.00  0.00    +0.000 C 
ATOM      6  N   UNL     1       5.658  15.303  18.305  0.00  0.00    +0.000 N 
ATOM      7  C   UNL     1       4.346  14.936  18.460  0.00  0.00    +0.000 A 
ATOM      8  N   UNL     1       3.497  15.863  18.900  0.00  0.00    +0.000 NA
ATOM      9  C   UNL     1       2.222  15.533  19.166  0.00  0.00    +0.000 A 
ATOM     10  N   UNL     1       1.440  16.549  19.683  0.00  0.00    +0.000 N 
ATOM     11  C   UNL     1       1.999  17.866  19.938  0.00  0.00    +0.000 C 
ATOM     12  C   UNL     1       0.899  18.508  20.770  0.00  0.00    +0.000 C 
ATOM     13  C   UNL     1      -0.379  17.995  20.119  0.00  0.00    +0.000 C 
ATOM     14  C   UNL     1      -0.010  16.623  19.545  0.00  0.00    +0.000 C 
ATOM     15  C   UNL     1       1.760  14.230  19.002  0.00  0.00    +0.000 A 
ATOM     16  N   UNL     1       0.495  13.839  19.320  0.00  0.00    +0.000 NA
ATOM     17  C   UNL     1       0.212  12.540  19.161  0.00  0.00    +0.000 A 
ATOM     18 CL   UNL     1      -1.404  12.134  19.584  0.00  0.00    +0.000 Cl
ATOM     19  C   UNL     1       1.132  11.609  18.675  0.00  0.00    +0.000 A 
ATOM     20  N   UNL     1       0.738  10.293  18.470  0.00  0.00    +0.000 N 
ATOM     21  N   UNL     1       2.377  12.025  18.338  0.00  0.00    +0.000 NA
ATOM     22  C   UNL     1       2.715  13.322  18.515  0.00  0.00    +0.000 A 
ATOM     23  N   UNL     1       3.970  13.672  18.240  0.00  0.00    +0.000 NA
ATOM     24  C   UNL     1       6.628  14.439  17.641  0.00  0.00    +0.000 C 
ATOM     25  C   UNL     1       7.967  14.494  18.404  0.00  0.00    +0.000 C 
ATOM     26  H   UNL     1       0.244   9.879  19.254  0.00  0.00    +0.000 HD
ENDROOT
BRANCH   1  27
ATOM     27  C   UNL     1      10.688  15.477  17.706  0.00  0.00    +0.000 C 
BRANCH  27  28
ATOM     28  N   UNL     1      11.521  14.689  18.631  0.00  0.00    +0.000 NA
ATOM     29  H   UNL     1      11.345  15.007  19.584  0.00  0.00    +0.000 HD
ATOM     30  H   UNL     1      12.500  14.908  18.437  0.00  0.00    +0.000 HD
ENDBRANCH  27  28
ENDBRANCH   1  27
BRANCH  20  31
ATOM     31  C   UNL     1       1.517   9.372  17.677  0.00  0.00    +0.000 C 
BRANCH  31  32
ATOM     32  C   UNL     1       1.812   8.176  18.559  0.00  0.00    +0.000 A 
ATOM     33  C   UNL     1       2.246   6.975  17.975  0.00  0.00    +0.000 A 
ATOM     34  C   UNL     1       2.478   5.843  18.759  0.00  0.00    +0.000 A 
ATOM     35  C   UNL     1       2.264   5.894  20.135  0.00  0.00    +0.000 A 
ATOM     36  C   UNL     1       1.814   7.075  20.725  0.00  0.00    +0.000 A 
ATOM     37  C   UNL     1       1.584   8.209  19.943  0.00  0.00    +0.000 A 
ENDBRANCH  31  32
ENDBRANCH  20  31
TORSDOF 4
ENDMDL
MODEL 4
REMARK VINA RESULT:      -6.8      3.239      4.239
REMARK  Name = 
REMARK  4 active torsions:
REMARK  status: ('A' for Active; 'I' for Inactive)
REMARK    1  A    between atoms: N_1  and  C_2
REMARK    2  A    between atoms: C_2  and  C_3
REMARK    3  A    between atoms: N_22  and  C_23
REMARK    4  A    between atoms: C_23  and  C_24
REMARK                            x       y       z     vdW  Elec       q    Type
REMARK                         _______ _______ _______ _____ _____    ______ ____
ROOT
ATOM      1  C   UNL     1      10.397  15.603  18.531  0.00  0.00    +0.000 C 
ATOM      2  O   UNL     1      11.240  16.283  19.121  0.00  0.00    +0.000 OA
ATOM      3  N   UNL     1       9.134  15.376  19.051  0.00  0.00    +0.000 N 
ATOM      4  C   UNL     1       8.740  16.025  20.304  0.00  0.00    +0.000 C 
ATOM      5  C   UNL     1       7.323  16.622  20.205  0.00  0.00    +0.000 C 
ATOM      6  N   UNL     1       6.391  15.595  19.724  0.00  0.00    +0.000 N 
ATOM      7  C   UNL     1       5.145  15.468  20.280  0.00  0.00    +0.000 A 
ATOM      8  N   UNL     1       4.863  16.230  21.335  0.00  0.00    +0.000 NA
ATOM      9  C   UNL     1       3.695  16.075  21.983  0.00  0.00    +0.000 A 
ATOM     10  N   UNL     1       3.527  16.865  23.104  0.00  0.00    +0.000 N 
ATOM     11  C   UNL     1       4.577  17.767  23.546  0.00  0.00    +0.000 C 
ATOM     12  C   UNL     1       4.085  18.151  24.934  0.00  0.00    +0.000 C 
ATOM     13  C   UNL     1       2.577  18.269  24.753  0.00  0.00    +0.000 C 
ATOM     14  C   UNL     1       2.233  17.281  23.632  0.00  0.00    +0.000 C 
ATOM     15  C   UNL     1       2.763  15.122  21.580  0.00  0.00    +0.000 A 
ATOM     16  N   UNL     1       1.598  14.889  22.244  0.00  0.00    +0.000 NA
ATOM     17  C   UNL     1       0.827  13.900  21.772  0.00  0.00    +0.000 A 
ATOM     18 CL   UNL     1      -0.624  13.676  22.668  0.00  0.00    +0.000 Cl
ATOM     19  C   UNL     1       1.156  13.143  20.646  0.00  0.00    +0.000 A 
ATOM     20  N   UNL     1       0.267  12.184  20.177  0.00  0.00    +0.000 N 
ATOM     21  N   UNL     1       2.308  13.410  19.985  0.00  0.00    +0.000 NA
ATOM     22  C   UNL     1       3.132  14.377  20.447  0.00  0.00    +0.000 A 
ATOM     23  N   UNL     1       4.286  14.557  19.809  0.00  0.00    +0.000 NA
ATOM     24  C   UNL     1       6.737  14.967  18.452  0.00  0.00    +0.000 C 
ATOM     25  C   UNL     1       8.164  14.391  18.539  0.00  0.00    +0.000 C 
ATOM     26  H   UNL     1      -0.088  11.559  20.894  0.00  0.00    +0.000 HD
ENDROOT
BRANCH   1  27
ATOM     27  C   UNL     1      10.719  15.021  17.149  0.00  0.00    +0.000 C 
BRANCH  27  28
ATOM     28  N   UNL     1      10.670  16.079  16.125  0.00  0.00    +0.000 NA
ATOM     29  H   UNL     1       9.701  16.363  15.992  0.00  0.00    +0.000 HD
ATOM     30  H   UNL     1      10.969  15.671  15.237  0.00  0.00    +0.000 HD
ENDBRANCH  27  28
ENDBRANCH   1  27
BRANCH  20  31
ATOM     31  C   UNL     1       0.386  11.606  18.860  0.00  0.00    +0.000 C 
BRANCH  31  32
ATOM     32  C   UNL     1      -1.008  11.190  18.437  0.00  0.00    +0.000 A 
ATOM     33  C   UNL     1      -1.173  10.095  17.574  0.00  0.00    +0.000 A 
ATOM     34  C   UNL     1      -2.443   9.722  17.128  0.00  0.00    +0.000 A 
ATOM     35  C   UNL     1      -3.562  10.449  17.529  0.00  0.00    +0.000 A 
ATOM     36  C   UNL     1      -3.411  11.551  18.370  0.00  0.00    +0.000 A 
ATOM     37  C   UNL     1      -2.141  11.924  18.819  0.00  0.00    +0.000 A 
ENDBRANCH  31  32
ENDBRANCH  20  31
TORSDOF 4
ENDMDL
MODEL 5
REMARK VINA RESULT:      -6.7      2.380      2.641
REMARK  Name = 
REMARK  4 active torsions:
REMARK  status: ('A' for Active; 'I' for Inactive)
REMARK    1  A    between atoms: N_1  and  C_2
REMARK    2  A    between atoms: C_2  and  C_3
REMARK    3  A    between atoms: N_22  and  C_23
REMARK    4  A    between atoms: C_23  and  C_24
REMARK                            x       y       z     vdW  Elec       q    Type
REMARK                         _______ _______ _______ _____ _____    ______ ____
ROOT
ATOM      1  C   UNL     1       9.577  16.786  18.353  0.00  0.00    +0.000 C 
ATOM      2  O   UNL     1      10.236  17.658  18.923  0.00  0.00    +0.000 OA
ATOM      3  N   UNL     1       8.386  16.303  18.868  0.00  0.00    +0.000 N 
ATOM      4  C   UNL     1       7.833  16.895  20.088  0.00  0.00    +0.000 C 
ATOM      5  C   UNL     1       6.321  17.157  19.948  0.00  0.00    +0.000 C 
ATOM      6  N   UNL     1       5.650  15.931  19.500  0.00  0.00    +0.000 N 
ATOM      7  C   UNL     1       4.452  15.550  20.047  0.00  0.00    +0.000 A 
ATOM      8  N   UNL     1       3.987  16.270  21.066  0.00  0.00    +0.000 NA
ATOM      9  C   UNL     1       2.869  15.885  21.707  0.00  0.00    +0.000 A 
ATOM     10  N   UNL     1       2.508  16.659  22.793  0.00  0.00    +0.000 N 
ATOM     11  C   UNL     1       3.322  17.789  23.208  0.00  0.00    +0.000 C 
ATOM     12  C   UNL     1       2.729  18.106  24.573  0.00  0.00    +0.000 C 
ATOM     13  C   UNL     1       1.237  17.878  24.370  0.00  0.00    +0.000 C 
ATOM     14  C   UNL     1       1.143  16.797  23.288  0.00  0.00    +0.000 C 
ATOM     15  C   UNL     1       2.181  14.733  21.334  0.00  0.00    +0.000 A 
ATOM     16  N   UNL     1       1.083  14.271  21.994  0.00  0.00    +0.000 NA
ATOM     17  C   UNL     1       0.561  13.119  21.555  0.00  0.00    +0.000 A 
ATOM     18 CL   UNL     1      -0.822  12.612  22.443  0.00  0.00    +0.000 Cl
ATOM     19  C   UNL     1       1.073  12.411  20.466  0.00  0.00    +0.000 A 
ATOM     20  N   UNL     1       0.429  11.262  20.027  0.00  0.00    +0.000 N 
ATOM     21  N   UNL     1       2.150  12.903  19.806  0.00  0.00    +0.000 NA
ATOM     22  C   UNL     1       2.728  14.046  20.237  0.00  0.00    +0.000 A 
ATOM     23  N   UNL     1       3.826  14.455  19.605  0.00  0.00    +0.000 NA
ATOM     24  C   UNL     1       6.152  15.348  18.260  0.00  0.00    +0.000 C 
ATOM     25  C   UNL     1       7.670  15.107  18.386  0.00  0.00    +0.000 C 
ATOM     26  H   UNL     1       0.206  10.601  20.765  0.00  0.00    +0.000 HD
ENDROOT
BRANCH   1  27
ATOM     27  C   UNL     1      10.048  16.237  17.000  0.00  0.00    +0.000 C 
BRANCH  27  28
ATOM     28  N   UNL     1      11.520  16.190  16.952  0.00  0.00    +0.000 NA
ATOM     29  H   UNL     1      11.823  16.337  15.990  0.00  0.00    +0.000 HD
ATOM     30  H   UNL     1      11.813  15.243  17.199  0.00  0.00    +0.000 HD
ENDBRANCH  27  28
ENDBRANCH   1  27
BRANCH  20  31
ATOM     31  C   UNL     1       0.699  10.675  18.737  0.00  0.00    +0.000 C 
BRANCH  31  32
ATOM     32  C   UNL     1       1.279   9.299  18.993  0.00  0.00    +0.000 A 
ATOM     33  C   UNL     1       1.151   8.718  20.264  0.00  0.00    +0.000 A 
ATOM     34  C   UNL     1       1.720   7.473  20.541  0.00  0.00    +0.000 A 
ATOM     35  C   UNL     1       2.437   6.801  19.553  0.00  0.00    +0.000 A 
ATOM     36  C   UNL     1       2.589   7.376  18.291  0.00  0.00    +0.000 A 
ATOM     37  C   UNL     1       2.018   8.620  18.012  0.00  0.00    +0.000 A 
ENDBRANCH  31  32
ENDBRANCH  20  31
TORSDOF 4
ENDMDL
MODEL 6
REMARK VINA RESULT:      -6.4      6.261      7.963
REMARK  Name = 
REMARK  4 active torsions:
REMARK  status: ('A' for Active; 'I' for Inactive)
REMARK    1  A    between atoms: N_1  and  C_2
REMARK    2  A    between atoms: C_2  and  C_3
REMARK    3  A    between atoms: N_22  and  C_23
REMARK    4  A    between atoms: C_23  and  C_24
REMARK                            x       y       z     vdW  Elec       q    Type
REMARK                         _______ _______ _______ _____ _____    ______ ____
ROOT
ATOM      1  C   UNL     1      -2.392  16.219  25.677  0.00  0.00    +0.000 C 
ATOM      2  O   UNL     1      -3.407  16.709  26.177  0.00  0.00    +0.000 OA
ATOM      3  N   UNL     1      -2.439  15.370  24.585  0.00  0.00    +0.000 N 
ATOM      4  C   UNL     1      -3.725  15.097  23.936  0.00  0.00    +0.000 C 
ATOM      5  C   UNL     1      -3.606  15.177  22.402  0.00  0.00    +0.000 C 
ATOM      6  N   UNL     1      -2.497  14.328  21.951  0.00  0.00    +0.000 N 
ATOM      7  C   UNL     1      -2.627  13.544  20.834  0.00  0.00    +0.000 A 
ATOM      8  N   UNL     1      -3.824  13.501  20.251  0.00  0.00    +0.000 NA
ATOM      9  C   UNL     1      -4.036  12.671  19.215  0.00  0.00    +0.000 A 
ATOM     10  N   UNL     1      -5.328  12.650  18.725  0.00  0.00    +0.000 N 
ATOM     11  C   UNL     1      -6.371  13.458  19.334  0.00  0.00    +0.000 C 
ATOM     12  C   UNL     1      -7.622  12.875  18.693  0.00  0.00    +0.000 C 
ATOM     13  C   UNL     1      -7.184  12.591  17.262  0.00  0.00    +0.000 C 
ATOM     14  C   UNL     1      -5.683  12.295  17.356  0.00  0.00    +0.000 C 
ATOM     15  C   UNL     1      -3.029  11.839  18.734  0.00  0.00    +0.000 A 
ATOM     16  N   UNL     1      -3.218  10.939  17.730  0.00  0.00    +0.000 NA
ATOM     17  C   UNL     1      -2.171  10.167  17.412  0.00  0.00    +0.000 A 
ATOM     18 CL   UNL     1      -2.497   9.063  16.135  0.00  0.00    +0.000 Cl
ATOM     19  C   UNL     1      -0.927  10.266  18.039  0.00  0.00    +0.000 A 
ATOM     20  N   UNL     1       0.130   9.478  17.602  0.00  0.00    +0.000 N 
ATOM     21  N   UNL     1      -0.753  11.187  19.018  0.00  0.00    +0.000 NA
ATOM     22  C   UNL     1      -1.794  11.964  19.392  0.00  0.00    +0.000 A 
ATOM     23  N   UNL     1      -1.599  12.805  20.406  0.00  0.00    +0.000 NA
ATOM     24  C   UNL     1      -1.195  14.613  22.547  0.00  0.00    +0.000 C 
ATOM     25  C   UNL     1      -1.315  14.559  24.084  0.00  0.00    +0.000 C 
ATOM     26  H   UNL     1      -0.100   8.496  17.494  0.00  0.00    +0.000 HD
ENDROOT
BRANCH   1  27
ATOM     27  C   UNL     1      -1.013  16.590  26.237  0.00  0.00    +0.000 C 
BRANCH  27  28
ATOM     28  N   UNL     1      -0.538  17.848  25.636  0.00  0.00    +0.000 NA
ATOM     29  H   UNL     1      -0.869  18.628  26.201  0.00  0.00    +0.000 HD
ATOM     30  H   UNL     1      -0.986  17.950  24.723  0.00  0.00    +0.000 HD
ENDBRANCH  27  28
ENDBRANCH   1  27
BRANCH  20  31
ATOM     31  C   UNL     1       1.497   9.755  17.970  0.00  0.00    +0.000 C 
BRANCH  31  32
ATOM     32  C   UNL     1       2.128   8.428  18.342  0.00  0.00    +0.000 A 
ATOM     33  C   UNL     1       1.818   7.835  19.577  0.00  0.00    +0.000 A 
ATOM     34  C   UNL     1       2.423   6.638  19.966  0.00  0.00    +0.000 A 
ATOM     35  C   UNL     1       3.357   6.028  19.131  0.00  0.00    +0.000 A 
ATOM     36  C   UNL     1       3.689   6.616  17.911  0.00  0.00    +0.000 A 
ATOM     37  C   UNL     1       3.082   7.812  17.519  0.00  0.00    +0.000 A 
ENDBRANCH  31  32
ENDBRANCH  20  31
TORSDOF 4
ENDMDL
MODEL 7
REMARK VINA RESULT:      -6.4      6.130      7.747
REMARK  Name = 
REMARK  4 active torsions:
REMARK  status: ('A' for Active; 'I' for Inactive)
REMARK    1  A    between atoms: N_1  and  C_2
REMARK    2  A    between atoms: C_2  and  C_3
REMARK    3  A    between atoms: N_22  and  C_23
REMARK    4  A    between atoms: C_23  and  C_24
REMARK                            x       y       z     vdW  Elec       q    Type
REMARK                         _______ _______ _______ _____ _____    ______ ____
ROOT
ATOM      1  C   UNL     1      -1.518  16.989  25.612  0.00  0.00    +0.000 C 
ATOM      2  O   UNL     1      -2.447  17.533  26.212  0.00  0.00    +0.000 OA
ATOM      3  N   UNL     1      -1.729  16.078  24.590  0.00  0.00    +0.000 N 
ATOM      4  C   UNL     1      -3.095  15.802  24.138  0.00  0.00    +0.000 C 
ATOM      5  C   UNL     1      -3.183  15.789  22.600  0.00  0.00    +0.000 C 
ATOM      6  N   UNL     1      -2.161  14.886  22.057  0.00  0.00    +0.000 N 
ATOM      7  C   UNL     1      -2.455  14.042  21.018  0.00  0.00    +0.000 A 
ATOM      8  N   UNL     1      -3.720  13.996  20.605  0.00  0.00    +0.000 NA
ATOM      9  C   UNL     1      -4.086  13.113  19.659  0.00  0.00    +0.000 A 
ATOM     10  N   UNL     1      -5.433  13.097  19.349  0.00  0.00    +0.000 N 
ATOM     11  C   UNL     1      -6.369  13.967  20.041  0.00  0.00    +0.000 C 
ATOM     12  C   UNL     1      -7.705  13.380  19.611  0.00  0.00    +0.000 C 
ATOM     13  C   UNL     1      -7.471  13.001  18.154  0.00  0.00    +0.000 C 
ATOM     14  C   UNL     1      -5.976  12.672  18.064  0.00  0.00    +0.000 C 
ATOM     15  C   UNL     1      -3.168  12.228  19.099  0.00  0.00    +0.000 A 
ATOM     16  N   UNL     1      -3.508  11.276  18.187  0.00  0.00    +0.000 NA
ATOM     17  C   UNL     1      -2.528  10.460  17.780  0.00  0.00    +0.000 A 
ATOM     18 CL   UNL     1      -3.044   9.291  16.629  0.00  0.00    +0.000 Cl
ATOM     19  C   UNL     1      -1.209  10.562  18.228  0.00  0.00    +0.000 A 
ATOM     20  N   UNL     1      -0.236   9.723  17.702  0.00  0.00    +0.000 N 
ATOM     21  N   UNL     1      -0.888  11.534  19.116  0.00  0.00    +0.000 NA
ATOM     22  C   UNL     1      -1.854  12.359  19.578  0.00  0.00    +0.000 A 
ATOM     23  N   UNL     1      -1.508  13.252  20.502  0.00  0.00    +0.000 NA
ATOM     24  C   UNL     1      -0.785  15.171  22.455  0.00  0.00    +0.000 C 
ATOM     25  C   UNL     1      -0.697  15.210  23.994  0.00  0.00    +0.000 C 
ATOM     26  H   UNL     1      -0.496   8.742  17.686  0.00  0.00    +0.000 HD
ENDROOT
BRANCH   1  27
ATOM     27  C   UNL     1      -0.070  17.355  25.959  0.00  0.00    +0.000 C 
BRANCH  27  28
ATOM     28  N   UNL     1      -0.027  18.631  26.694  0.00  0.00    +0.000 NA
ATOM     29  H   UNL     1       0.651  19.246  26.247  0.00  0.00    +0.000 HD
ATOM     30  H   UNL     1       0.337  18.443  27.630  0.00  0.00    +0.000 HD
ENDBRANCH  27  28
ENDBRANCH   1  27
BRANCH  20  31
ATOM     31  C   UNL     1       1.173   9.984  17.866  0.00  0.00    +0.000 C 
BRANCH  31  32
ATOM     32  C   UNL     1       1.777   8.750  18.504  0.00  0.00    +0.000 A 
ATOM     33  C   UNL     1       2.601   7.907  17.741  0.00  0.00    +0.000 A 
ATOM     34  C   UNL     1       3.129   6.736  18.290  0.00  0.00    +0.000 A 
ATOM     35  C   UNL     1       2.829   6.388  19.605  0.00  0.00    +0.000 A 
ATOM     36  C   UNL     1       1.996   7.206  20.369  0.00  0.00    +0.000 A 
ATOM     37  C   UNL     1       1.469   8.379  19.821  0.00  0.00    +0.000 A 
ENDBRANCH  31  32
ENDBRANCH  20  31
TORSDOF 4
ENDMDL
MODEL 8
REMARK VINA RESULT:      -6.3      3.541      5.056
REMARK  Name = 
REMARK  4 active torsions:
REMARK  status: ('A' for Active; 'I' for Inactive)
REMARK    1  A    between atoms: N_1  and  C_2
REMARK    2  A    between atoms: C_2  and  C_3
REMARK    3  A    between atoms: N_22  and  C_23
REMARK    4  A    between atoms: C_23  and  C_24
REMARK                            x       y       z     vdW  Elec       q    Type
REMARK                         _______ _______ _______ _____ _____    ______ ____
ROOT
ATOM      1  C   UNL     1      11.059  13.510  18.577  0.00  0.00    +0.000 C 
ATOM      2  O   UNL     1      12.094  13.601  19.242  0.00  0.00    +0.000 OA
ATOM      3  N   UNL     1       9.806  13.722  19.127  0.00  0.00    +0.000 N 
ATOM      4  C   UNL     1       9.691  14.148  20.524  0.00  0.00    +0.000 C 
ATOM      5  C   UNL     1       8.673  15.295  20.677  0.00  0.00    +0.000 C 
ATOM      6  N   UNL     1       7.405  14.913  20.044  0.00  0.00    +0.000 N 
ATOM      7  C   UNL     1       6.208  15.195  20.651  0.00  0.00    +0.000 A 
ATOM      8  N   UNL     1       6.250  15.721  21.873  0.00  0.00    +0.000 NA
ATOM      9  C   UNL     1       5.110  15.925  22.556  0.00  0.00    +0.000 A 
ATOM     10  N   UNL     1       5.263  16.410  23.841  0.00  0.00    +0.000 N 
ATOM     11  C   UNL     1       6.585  16.643  24.397  0.00  0.00    +0.000 C 
ATOM     12  C   UNL     1       6.264  16.847  25.871  0.00  0.00    +0.000 C 
ATOM     13  C   UNL     1       4.960  17.634  25.840  0.00  0.00    +0.000 C 
ATOM     14  C   UNL     1       4.259  17.194  24.550  0.00  0.00    +0.000 C 
ATOM     15  C   UNL     1       3.871  15.587  22.016  0.00  0.00    +0.000 A 
ATOM     16  N   UNL     1       2.699  15.717  22.696  0.00  0.00    +0.000 NA
ATOM     17  C   UNL     1       1.593  15.298  22.067  0.00  0.00    +0.000 A 
ATOM     18 CL   UNL     1       0.159  15.499  22.996  0.00  0.00    +0.000 Cl
ATOM     19  C   UNL     1       1.598  14.772  20.774  0.00  0.00    +0.000 A 
ATOM     20  N   UNL     1       0.398  14.429  20.165  0.00  0.00    +0.000 N 
ATOM     21  N   UNL     1       2.773  14.678  20.105  0.00  0.00    +0.000 NA
ATOM     22  C   UNL     1       3.918  15.058  20.715  0.00  0.00    +0.000 A 
ATOM     23  N   UNL     1       5.057  14.881  20.049  0.00  0.00    +0.000 NA
ATOM     24  C   UNL     1       7.486  14.530  18.638  0.00  0.00    +0.000 C 
ATOM     25  C   UNL     1       8.523  13.400  18.476  0.00  0.00    +0.000 C 
ATOM     26  H   UNL     1      -0.214  13.860  20.741  0.00  0.00    +0.000 HD
ENDROOT
BRANCH   1  27
ATOM     27  C   UNL     1      11.142  13.204  17.077  0.00  0.00    +0.000 C 
BRANCH  27  28
ATOM     28  N   UNL     1      11.204  14.455  16.302  0.00  0.00    +0.000 NA
ATOM     29  H   UNL     1      10.881  14.271  15.353  0.00  0.00    +0.000 HD
ATOM     30  H   UNL     1      12.186  14.726  16.219  0.00  0.00    +0.000 HD
ENDBRANCH  27  28
ENDBRANCH   1  27
BRANCH  20  31
ATOM     31  C   UNL     1       0.297  14.197  18.744  0.00  0.00    +0.000 C 
BRANCH  31  32
ATOM     32  C   UNL     1       0.043  12.715  18.558  0.00  0.00    +0.000 A 
ATOM     33  C   UNL     1      -1.263  12.260  18.320  0.00  0.00    +0.000 A 
ATOM     34  C   UNL     1      -1.532  10.895  18.194  0.00  0.00    +0.000 A 
ATOM     35  C   UNL     1      -0.500   9.969  18.321  0.00  0.00    +0.000 A 
ATOM     36  C   UNL     1       0.799  10.405  18.577  0.00  0.00    +0.000 A 
ATOM     37  C   UNL     1       1.071  11.770  18.700  0.00  0.00    +0.000 A 
ENDBRANCH  31  32
ENDBRANCH  20  31
TORSDOF 4
ENDMDL
MODEL 9
REMARK VINA RESULT:      -6.2      5.455     10.070
REMARK  Name = 
REMARK  4 active torsions:
REMARK  status: ('A' for Active; 'I' for Inactive)
REMARK    1  A    between atoms: N_1  and  C_2
REMARK    2  A    between atoms: C_2  and  C_3
REMARK    3  A    between atoms: N_22  and  C_23
REMARK    4  A    between atoms: C_23  and  C_24
REMARK                            x       y       z     vdW  Elec       q    Type
REMARK                         _______ _______ _______ _____ _____    ______ ____
ROOT
ATOM      1  C   UNL     1       6.740   4.139  13.070  0.00  0.00    +0.000 C 
ATOM      2  O   UNL     1       6.930   2.935  12.882  0.00  0.00    +0.000 OA
ATOM      3  N   UNL     1       5.903   4.609  14.067  0.00  0.00    +0.000 N 
ATOM      4  C   UNL     1       5.276   3.662  14.993  0.00  0.00    +0.000 C 
ATOM      5  C   UNL     1       5.374   4.154  16.449  0.00  0.00    +0.000 C 
ATOM      6  N   UNL     1       4.866   5.528  16.538  0.00  0.00    +0.000 N 
ATOM      7  C   UNL     1       4.067   5.912  17.584  0.00  0.00    +0.000 A 
ATOM      8  N   UNL     1       3.686   4.968  18.442  0.00  0.00    +0.000 NA
ATOM      9  C   UNL     1       2.822   5.265  19.428  0.00  0.00    +0.000 A 
ATOM     10  N   UNL     1       2.436   4.203  20.223  0.00  0.00    +0.000 N 
ATOM     11  C   UNL     1       2.926   2.860  19.963  0.00  0.00    +0.000 C 
ATOM     12  C   UNL     1       2.010   2.025  20.847  0.00  0.00    +0.000 C 
ATOM     13  C   UNL     1       1.848   2.883  22.095  0.00  0.00    +0.000 C 
ATOM     14  C   UNL     1       1.985   4.329  21.604  0.00  0.00    +0.000 C 
ATOM     15  C   UNL     1       2.301   6.549  19.573  0.00  0.00    +0.000 A 
ATOM     16  N   UNL     1       1.376   6.879  20.516  0.00  0.00    +0.000 NA
ATOM     17  C   UNL     1       0.925   8.139  20.497  0.00  0.00    +0.000 A 
ATOM     18 CL   UNL     1      -0.237   8.469  21.722  0.00  0.00    +0.000 Cl
ATOM     19  C   UNL     1       1.373   9.100  19.589  0.00  0.00    +0.000 A 
ATOM     20  N   UNL     1       0.909  10.406  19.682  0.00  0.00    +0.000 N 
ATOM     21  N   UNL     1       2.314   8.757  18.676  0.00  0.00    +0.000 NA
ATOM     22  C   UNL     1       2.772   7.487  18.638  0.00  0.00    +0.000 A 
ATOM     23  N   UNL     1       3.642   7.175  17.680  0.00  0.00    +0.000 NA
ATOM     24  C   UNL     1       5.507   6.502  15.659  0.00  0.00    +0.000 C 
ATOM     25  C   UNL     1       5.434   6.000  14.203  0.00  0.00    +0.000 C 
ATOM     26  H   UNL     1      -0.100  10.485  19.764  0.00  0.00    +0.000 HD
ENDROOT
BRANCH   1  27
ATOM     27  C   UNL     1       7.486   5.170  12.214  0.00  0.00    +0.000 C 
BRANCH  27  28
ATOM     28  N   UNL     1       8.523   5.844  13.014  0.00  0.00    +0.000 NA
ATOM     29  H   UNL     1       8.266   5.790  13.999  0.00  0.00    +0.000 HD
ATOM     30  H   UNL     1       8.511   6.837  12.773  0.00  0.00    +0.000 HD
ENDBRANCH  27  28
ENDBRANCH   1  27
BRANCH  20  31
ATOM     31  C   UNL     1       1.559  11.502  19.007  0.00  0.00    +0.000 C 
BRANCH  31  32
ATOM     32  C   UNL     1       0.752  12.748  19.313  0.00  0.00    +0.000 A 
ATOM     33  C   UNL     1      -0.474  12.631  19.985  0.00  0.00    +0.000 A 
ATOM     34  C   UNL     1      -1.261  13.758  20.236  0.00  0.00    +0.000 A 
ATOM     35  C   UNL     1      -0.837  15.012  19.803  0.00  0.00    +0.000 A 
ATOM     36  C   UNL     1       0.370  15.140  19.116  0.00  0.00    +0.000 A 
ATOM     37  C   UNL     1       1.160  14.014  18.867  0.00  0.00    +0.000 A 
ENDBRANCH  31  32
ENDBRANCH  20  31
TORSDOF 4
ENDMDL
