MODEL 1
REMARK VINA RESULT:      -9.5      0.000      0.000
REMARK  Name = 
REMARK  8 active torsions:
REMARK  status: ('A' for Active; 'I' for Inactive)
REMARK    1  A    between atoms: C_1  and  C_2
REMARK    2  A    between atoms: C_2  and  N_3
REMARK    3  A    between atoms: C_4  and  C_5
REMARK    4  A    between atoms: N_14  and  N_15
REMARK    5  A    between atoms: C_16  and  C_18
REMARK    6  A    between atoms: C_18  and  O_19
REMARK    7  A    between atoms: O_19  and  C_20
REMARK    8  A    between atoms: C_24  and  C_25
REMARK                            x       y       z     vdW  Elec       q    Type
REMARK                         _______ _______ _______ _____ _____    ______ ____
ROOT
ATOM      1  C   UNL     1       2.486   2.949  20.668  0.00  0.00    +0.000 C 
ENDROOT
BRANCH   1   3
ATOM      2  N   UNL     1       2.250   5.323  21.200  0.00  0.00    +0.000 N 
ATOM      3  C   UNL     1       1.594   4.174  20.782  0.00  0.00    +0.000 C 
ATOM      4  O   UNL     1       0.391   4.113  20.519  0.00  0.00    +0.000 OA
ATOM      5  H   UNL     1       3.250   5.351  21.379  0.00  0.00    +0.000 HD
BRANCH   2  11
ATOM      6  N   UNL     1       0.926   8.585  20.254  0.00  0.00    +0.000 N 
ATOM      7  C   UNL     1       1.214   9.292  19.074  0.00  0.00    +0.000 A 
ATOM      8  C   UNL     1       2.092   8.699  18.249  0.00  0.00    +0.000 A 
ATOM      9  S   UNL     1       2.639   7.171  18.885  0.00  0.00    +0.000 S 
ATOM     10  C   UNL     1       1.601   7.371  20.341  0.00  0.00    +0.000 A 
ATOM     11  N   UNL     1       1.536   6.482  21.283  0.00  0.00    +0.000 NA
BRANCH   7  12
ATOM     12  C   UNL     1       0.589  10.576  18.735  0.00  0.00    +0.000 A 
ATOM     13  C   UNL     1       1.301  11.773  18.908  0.00  0.00    +0.000 A 
ATOM     14  C   UNL     1       0.693  13.001  18.627  0.00  0.00    +0.000 A 
ATOM     15  C   UNL     1      -0.624  13.043  18.172  0.00  0.00    +0.000 A 
ATOM     16  C   UNL     1      -1.337  11.857  17.996  0.00  0.00    +0.000 A 
ATOM     17  C   UNL     1      -0.733  10.627  18.274  0.00  0.00    +0.000 A 
ENDBRANCH   7  12
BRANCH   6  19
ATOM     18  C   UNL     1       0.533   9.597  22.561  0.00  0.00    +0.000 C 
ATOM     19  C   UNL     1      -0.037   9.083  21.248  0.00  0.00    +0.000 C 
ENDBRANCH   6  19
ENDBRANCH   2  11
ENDBRANCH   1   3
BRANCH   1  20
ATOM     20  O   UNL     1       2.613   2.629  19.289  0.00  0.00    +0.000 OA
BRANCH  20  21
ATOM     21  C   UNL     1       3.671   3.166  18.613  0.00  0.00    +0.000 A 
ATOM     22  C   UNL     1       3.774   2.754  17.281  0.00  0.00    +0.000 A 
ATOM     23  C   UNL     1       4.757   3.281  16.437  0.00  0.00    +0.000 A 
ATOM     24  C   UNL     1       5.641   4.255  16.909  0.00  0.00    +0.000 A 
ATOM     25  C   UNL     1       6.563   4.984  16.025  0.00  0.00    +0.000 A 
ATOM     26  C   UNL     1       7.272   5.989  16.561  0.00  0.00    +0.000 A 
ATOM     27  C   UNL     1       7.326   6.255  18.005  0.00  0.00    +0.000 A 
ATOM     28  O   UNL     1       8.136   7.053  18.461  0.00  0.00    +0.000 OA
ATOM     29  O   UNL     1       6.445   5.554  18.810  0.00  0.00    +0.000 OA
ATOM     30  C   UNL     1       5.564   4.607  18.256  0.00  0.00    +0.000 A 
ATOM     31  C   UNL     1       4.599   4.073  19.116  0.00  0.00    +0.000 A 
BRANCH  25  32
ATOM     32  C   UNL     1       6.744   4.756  14.577  0.00  0.00    +0.000 A 
ATOM     33  C   UNL     1       7.686   5.514  13.867  0.00  0.00    +0.000 A 
ATOM     34  C   UNL     1       7.881   5.300  12.501  0.00  0.00    +0.000 A 
ATOM     35  C   UNL     1       7.138   4.325  11.839  0.00  0.00    +0.000 A 
ATOM     36  C   UNL     1       6.197   3.568  12.538  0.00  0.00    +0.000 A 
ATOM     37  C   UNL     1       5.998   3.784  13.902  0.00  0.00    +0.000 A 
ENDBRANCH  25  32
ENDBRANCH  20  21
ENDBRANCH   1  20
TORSDOF 7
ENDMDL
MODEL 2
REMARK VINA RESULT:      -9.3      0.167      1.151
REMARK  Name = 
REMARK  8 active torsions:
REMARK  status: ('A' for Active; 'I' for Inactive)
REMARK    1  A    between atoms: C_1  and  C_2
REMARK    2  A    between atoms: C_2  and  N_3
REMARK    3  A    between atoms: C_4  and  C_5
REMARK    4  A    between atoms: N_14  and  N_15
REMARK    5  A    between atoms: C_16  and  C_18
REMARK    6  A    between atoms: C_18  and  O_19
REMARK    7  A    between atoms: O_19  and  C_20
REMARK    8  A    between atoms: C_24  and  C_25
REMARK                            x       y       z     vdW  Elec       q    Type
REMARK                         _______ _______ _______ _____ _____    ______ ____
ROOT
ATOM      1  C   UNL     1       2.283   2.970  20.475  0.00  0.00    +0.000 C 
ENDROOT
BRANCH   1   3
ATOM      2  N   UNL     1       2.147   5.338  21.068  0.00  0.00    +0.000 N 
ATOM      3  C   UNL     1       1.436   4.218  20.658  0.00  0.00    +0.000 C 
ATOM      4  O   UNL     1       0.221   4.200  20.451  0.00  0.00    +0.000 OA
ATOM      5  H   UNL     1       3.155   5.331  21.200  0.00  0.00    +0.000 HD
BRANCH   2  11
ATOM      6  N   UNL     1       0.916   8.676  20.275  0.00  0.00    +0.000 N 
ATOM      7  C   UNL     1       1.207   9.419  19.118  0.00  0.00    +0.000 A 
ATOM      8  C   UNL     1       2.050   8.831  18.254  0.00  0.00    +0.000 A 
ATOM      9  S   UNL     1       2.556   7.261  18.820  0.00  0.00    +0.000 S 
ATOM     10  C   UNL     1       1.551   7.438  20.302  0.00  0.00    +0.000 A 
ATOM     11  N   UNL     1       1.474   6.515  21.211  0.00  0.00    +0.000 NA
BRANCH   7  12
ATOM     12  C   UNL     1       0.620  10.736  18.841  0.00  0.00    +0.000 A 
ATOM     13  C   UNL     1      -0.719  10.836  18.432  0.00  0.00    +0.000 A 
ATOM     14  C   UNL     1      -1.269  12.086  18.125  0.00  0.00    +0.000 A 
ATOM     15  C   UNL     1      -0.490  13.238  18.225  0.00  0.00    +0.000 A 
ATOM     16  C   UNL     1       0.840  13.145  18.634  0.00  0.00    +0.000 A 
ATOM     17  C   UNL     1       1.394  11.898  18.943  0.00  0.00    +0.000 A 
ENDBRANCH   7  12
BRANCH   6  19
ATOM     18  C   UNL     1       0.589   9.524  22.657  0.00  0.00    +0.000 C 
ATOM     19  C   UNL     1      -0.011   9.167  21.306  0.00  0.00    +0.000 C 
ENDBRANCH   6  19
ENDBRANCH   2  11
ENDBRANCH   1   3
BRANCH   1  20
ATOM     20  O   UNL     1       2.419   2.736  19.080  0.00  0.00    +0.000 OA
BRANCH  20  21
ATOM     21  C   UNL     1       3.529   3.236  18.463  0.00  0.00    +0.000 A 
ATOM     22  C   UNL     1       3.670   2.849  17.126  0.00  0.00    +0.000 A 
ATOM     23  C   UNL     1       4.712   3.347  16.337  0.00  0.00    +0.000 A 
ATOM     24  C   UNL     1       5.619   4.267  16.870  0.00  0.00    +0.000 A 
ATOM     25  C   UNL     1       6.612   4.971  16.043  0.00  0.00    +0.000 A 
ATOM     26  C   UNL     1       7.344   5.928  16.633  0.00  0.00    +0.000 A 
ATOM     27  C   UNL     1       7.347   6.159  18.084  0.00  0.00    +0.000 A 
ATOM     28  O   UNL     1       8.174   6.907  18.593  0.00  0.00    +0.000 OA
ATOM     29  O   UNL     1       6.400   5.484  18.834  0.00  0.00    +0.000 OA
ATOM     30  C   UNL     1       5.501   4.592  18.221  0.00  0.00    +0.000 A 
ATOM     31  C   UNL     1       4.476   4.087  19.026  0.00  0.00    +0.000 A 
BRANCH  25  32
ATOM     32  C   UNL     1       6.845   4.767  14.599  0.00  0.00    +0.000 A 
ATOM     33  C   UNL     1       6.132   3.772  13.914  0.00  0.00    +0.000 A 
ATOM     34  C   UNL     1       6.329   3.578  12.546  0.00  0.00    +0.000 A 
ATOM     35  C   UNL     1       7.235   4.379  11.854  0.00  0.00    +0.000 A 
ATOM     36  C   UNL     1       7.950   5.370  12.529  0.00  0.00    +0.000 A 
ATOM     37  C   UNL     1       7.758   5.562  13.898  0.00  0.00    +0.000 A 
ENDBRANCH  25  32
ENDBRANCH  20  21
ENDBRANCH   1  20
TORSDOF 7
ENDMDL
MODEL 3
REMARK VINA RESULT:      -9.1      0.776      1.150
REMARK  Name = 
REMARK  8 active torsions:
REMARK  status: ('A' for Active; 'I' for Inactive)
REMARK    1  A    between atoms: C_1  and  C_2
REMARK    2  A    between atoms: C_2  and  N_3
REMARK    3  A    between atoms: C_4  and  C_5
REMARK    4  A    between atoms: N_14  and  N_15
REMARK    5  A    between atoms: C_16  and  C_18
REMARK    6  A    between atoms: C_18  and  O_19
REMARK    7  A    between atoms: O_19  and  C_20
REMARK    8  A    between atoms: C_24  and  C_25
REMARK                            x       y       z     vdW  Elec       q    Type
REMARK                         _______ _______ _______ _____ _____    ______ ____
ROOT
ATOM      1  C   UNL     1       2.304   2.874  19.992  0.00  0.00    +0.000 C 
ENDROOT
BRANCH   1   3
ATOM      2  N   UNL     1       2.517   5.227  20.617  0.00  0.00    +0.000 N 
ATOM      3  C   UNL     1       1.634   4.187  20.360  0.00  0.00    +0.000 C 
ATOM      4  O   UNL     1       0.407   4.283  20.417  0.00  0.00    +0.000 OA
ATOM      5  H   UNL     1       3.525   5.127  20.531  0.00  0.00    +0.000 HD
BRANCH   2  11
ATOM      6  N   UNL     1       1.396   8.659  20.111  0.00  0.00    +0.000 N 
ATOM      7  C   UNL     1       1.433   9.380  18.904  0.00  0.00    +0.000 A 
ATOM      8  C   UNL     1       1.971   8.726  17.862  0.00  0.00    +0.000 A 
ATOM      9  S   UNL     1       2.479   7.118  18.305  0.00  0.00    +0.000 S 
ATOM     10  C   UNL     1       1.914   7.373  19.994  0.00  0.00    +0.000 A 
ATOM     11  N   UNL     1       2.002   6.456  20.908  0.00  0.00    +0.000 NA
BRANCH   7  12
ATOM     12  C   UNL     1       0.902  10.741  18.766  0.00  0.00    +0.000 A 
ATOM     13  C   UNL     1      -0.484  10.954  18.720  0.00  0.00    +0.000 A 
ATOM     14  C   UNL     1      -0.992  12.245  18.545  0.00  0.00    +0.000 A 
ATOM     15  C   UNL     1      -0.124  13.328  18.415  0.00  0.00    +0.000 A 
ATOM     16  C   UNL     1       1.255  13.124  18.461  0.00  0.00    +0.000 A 
ATOM     17  C   UNL     1       1.767  11.835  18.638  0.00  0.00    +0.000 A 
ENDBRANCH   7  12
BRANCH   6  19
ATOM     18  C   UNL     1      -0.544   8.683  21.765  0.00  0.00    +0.000 C 
ATOM     19  C   UNL     1       0.813   9.221  21.339  0.00  0.00    +0.000 C 
ENDBRANCH   6  19
ENDBRANCH   2  11
ENDBRANCH   1   3
BRANCH   1  20
ATOM     20  O   UNL     1       3.698   3.012  20.236  0.00  0.00    +0.000 OA
BRANCH  20  21
ATOM     21  C   UNL     1       4.463   3.534  19.233  0.00  0.00    +0.000 A 
ATOM     22  C   UNL     1       4.364   2.850  18.016  0.00  0.00    +0.000 A 
ATOM     23  C   UNL     1       5.025   3.313  16.874  0.00  0.00    +0.000 A 
ATOM     24  C   UNL     1       5.776   4.490  16.924  0.00  0.00    +0.000 A 
ATOM     25  C   UNL     1       6.330   5.129  15.720  0.00  0.00    +0.000 A 
ATOM     26  C   UNL     1       6.923   6.323  15.868  0.00  0.00    +0.000 A 
ATOM     27  C   UNL     1       7.223   6.915  17.179  0.00  0.00    +0.000 A 
ATOM     28  O   UNL     1       7.937   7.908  17.265  0.00  0.00    +0.000 OA
ATOM     29  O   UNL     1       6.687   6.291  18.292  0.00  0.00    +0.000 OA
ATOM     30  C   UNL     1       5.915   5.122  18.159  0.00  0.00    +0.000 A 
ATOM     31  C   UNL     1       5.277   4.660  19.313  0.00  0.00    +0.000 A 
BRANCH  25  32
ATOM     32  C   UNL     1       6.246   4.608  14.340  0.00  0.00    +0.000 A 
ATOM     33  C   UNL     1       7.344   4.743  13.478  0.00  0.00    +0.000 A 
ATOM     34  C   UNL     1       7.286   4.242  12.177  0.00  0.00    +0.000 A 
ATOM     35  C   UNL     1       6.132   3.600  11.731  0.00  0.00    +0.000 A 
ATOM     36  C   UNL     1       5.034   3.464  12.582  0.00  0.00    +0.000 A 
ATOM     37  C   UNL     1       5.089   3.968  13.882  0.00  0.00    +0.000 A 
ENDBRANCH  25  32
ENDBRANCH  20  21
ENDBRANCH   1  20
TORSDOF 7
ENDMDL
MODEL 4
REMARK VINA RESULT:      -8.8      4.415      6.176
REMARK  Name = 
REMARK  8 active torsions:
REMARK  status: ('A' for Active; 'I' for Inactive)
REMARK    1  A    between atoms: C_1  and  C_2
REMARK    2  A    between atoms: C_2  and  N_3
REMARK    3  A    between atoms: C_4  and  C_5
REMARK    4  A    between atoms: N_14  and  N_15
REMARK    5  A    between atoms: C_16  and  C_18
REMARK    6  A    between atoms: C_18  and  O_19
REMARK    7  A    between atoms: O_19  and  C_20
REMARK    8  A    between atoms: C_24  and  C_25
REMARK                            x       y       z     vdW  Elec       q    Type
REMARK                         _______ _______ _______ _____ _____    ______ ____
ROOT
ATOM      1  C   UNL     1       0.938  10.105  18.947  0.00  0.00    +0.000 C 
ENDROOT
BRANCH   1   3
ATOM      2  N   UNL     1      -0.785  11.817  19.220  0.00  0.00    +0.000 N 
ATOM      3  C   UNL     1      -0.523  10.455  19.180  0.00  0.00    +0.000 C 
ATOM      4  O   UNL     1      -1.375   9.575  19.320  0.00  0.00    +0.000 OA
ATOM      5  H   UNL     1      -0.067  12.520  19.070  0.00  0.00    +0.000 HD
BRANCH   2  11
ATOM      6  N   UNL     1      -3.841  12.888  20.894  0.00  0.00    +0.000 N 
ATOM      7  C   UNL     1      -4.020  13.053  22.279  0.00  0.00    +0.000 A 
ATOM      8  C   UNL     1      -2.955  12.746  23.036  0.00  0.00    +0.000 A 
ATOM      9  S   UNL     1      -1.606  12.222  22.063  0.00  0.00    +0.000 S 
ATOM     10  C   UNL     1      -2.564  12.449  20.558  0.00  0.00    +0.000 A 
ATOM     11  N   UNL     1      -2.077  12.223  19.377  0.00  0.00    +0.000 NA
BRANCH   7  12
ATOM     12  C   UNL     1      -5.266  13.551  22.873  0.00  0.00    +0.000 A 
ATOM     13  C   UNL     1      -5.481  14.932  23.004  0.00  0.00    +0.000 A 
ATOM     14  C   UNL     1      -6.649  15.408  23.610  0.00  0.00    +0.000 A 
ATOM     15  C   UNL     1      -7.606  14.514  24.086  0.00  0.00    +0.000 A 
ATOM     16  C   UNL     1      -7.400  13.141  23.957  0.00  0.00    +0.000 A 
ATOM     17  C   UNL     1      -6.235  12.659  23.351  0.00  0.00    +0.000 A 
ENDBRANCH   7  12
BRANCH   6  19
ATOM     18  C   UNL     1      -5.926  12.121  19.643  0.00  0.00    +0.000 C 
ATOM     19  C   UNL     1      -4.901  13.208  19.926  0.00  0.00    +0.000 C 
ENDBRANCH   6  19
ENDBRANCH   2  11
ENDBRANCH   1   3
BRANCH   1  20
ATOM     20  O   UNL     1       1.320   9.154  19.932  0.00  0.00    +0.000 OA
BRANCH  20  21
ATOM     21  C   UNL     1       1.934   8.013  19.501  0.00  0.00    +0.000 A 
ATOM     22  C   UNL     1       2.617   8.148  18.288  0.00  0.00    +0.000 A 
ATOM     23  C   UNL     1       3.362   7.090  17.759  0.00  0.00    +0.000 A 
ATOM     24  C   UNL     1       3.460   5.881  18.454  0.00  0.00    +0.000 A 
ATOM     25  C   UNL     1       4.379   4.806  18.050  0.00  0.00    +0.000 A 
ATOM     26  C   UNL     1       4.487   3.744  18.862  0.00  0.00    +0.000 A 
ATOM     27  C   UNL     1       3.594   3.512  20.006  0.00  0.00    +0.000 A 
ATOM     28  O   UNL     1       3.604   2.438  20.596  0.00  0.00    +0.000 OA
ATOM     29  O   UNL     1       2.742   4.543  20.362  0.00  0.00    +0.000 OA
ATOM     30  C   UNL     1       2.721   5.744  19.629  0.00  0.00    +0.000 A 
ATOM     31  C   UNL     1       1.956   6.787  20.159  0.00  0.00    +0.000 A 
BRANCH  25  32
ATOM     32  C   UNL     1       5.249   4.807  16.856  0.00  0.00    +0.000 A 
ATOM     33  C   UNL     1       4.755   4.322  15.637  0.00  0.00    +0.000 A 
ATOM     34  C   UNL     1       5.559   4.331  14.496  0.00  0.00    +0.000 A 
ATOM     35  C   UNL     1       6.859   4.827  14.566  0.00  0.00    +0.000 A 
ATOM     36  C   UNL     1       7.359   5.310  15.777  0.00  0.00    +0.000 A 
ATOM     37  C   UNL     1       6.557   5.298  16.920  0.00  0.00    +0.000 A 
ENDBRANCH  25  32
ENDBRANCH  20  21
ENDBRANCH   1  20
TORSDOF 7
ENDMDL
MODEL 5
REMARK VINA RESULT:      -8.5      4.452      6.199
REMARK  Name = 
REMARK  8 active torsions:
REMARK  status: ('A' for Active; 'I' for Inactive)
REMARK    1  A    between atoms: C_1  and  C_2
REMARK    2  A    between atoms: C_2  and  N_3
REMARK    3  A    between atoms: C_4  and  C_5
REMARK    4  A    between atoms: N_14  and  N_15
REMARK    5  A    between atoms: C_16  and  C_18
REMARK    6  A    between atoms: C_18  and  O_19
REMARK    7  A    between atoms: O_19  and  C_20
REMARK    8  A    between atoms: C_24  and  C_25
REMARK                            x       y       z     vdW  Elec       q    Type
REMARK                         _______ _______ _______ _____ _____    ______ ____
ROOT
ATOM      1  C   UNL     1       1.497   9.395  21.728  0.00  0.00    +0.000 C 
ENDROOT
BRANCH   1   3
ATOM      2  N   UNL     1      -0.487  10.798  21.458  0.00  0.00    +0.000 N 
ATOM      3  C   UNL     1       0.271  10.047  22.346  0.00  0.00    +0.000 C 
ATOM      4  O   UNL     1       0.005   9.901  23.541  0.00  0.00    +0.000 OA
ATOM      5  H   UNL     1      -0.261  10.874  20.470  0.00  0.00    +0.000 HD
BRANCH   2  11
ATOM      6  N   UNL     1      -2.742  13.393  22.671  0.00  0.00    +0.000 N 
ATOM      7  C   UNL     1      -2.422  14.746  22.876  0.00  0.00    +0.000 A 
ATOM      8  C   UNL     1      -1.146  15.079  22.626  0.00  0.00    +0.000 A 
ATOM      9  S   UNL     1      -0.217  13.704  22.092  0.00  0.00    +0.000 S 
ATOM     10  C   UNL     1      -1.662  12.640  22.218  0.00  0.00    +0.000 A 
ATOM     11  N   UNL     1      -1.632  11.379  21.916  0.00  0.00    +0.000 NA
BRANCH   7  12
ATOM     12  C   UNL     1      -3.406  15.746  23.307  0.00  0.00    +0.000 A 
ATOM     13  C   UNL     1      -4.092  16.515  22.354  0.00  0.00    +0.000 A 
ATOM     14  C   UNL     1      -4.998  17.499  22.763  0.00  0.00    +0.000 A 
ATOM     15  C   UNL     1      -5.226  17.722  24.121  0.00  0.00    +0.000 A 
ATOM     16  C   UNL     1      -4.550  16.960  25.073  0.00  0.00    +0.000 A 
ATOM     17  C   UNL     1      -3.644  15.974  24.669  0.00  0.00    +0.000 A 
ENDBRANCH   7  12
BRANCH   6  19
ATOM     18  C   UNL     1      -4.987  12.762  21.639  0.00  0.00    +0.000 C 
ATOM     19  C   UNL     1      -4.103  12.872  22.872  0.00  0.00    +0.000 C 
ENDBRANCH   6  19
ENDBRANCH   2  11
ENDBRANCH   1   3
BRANCH   1  20
ATOM     20  O   UNL     1       1.121   8.877  20.459  0.00  0.00    +0.000 OA
BRANCH  20  21
ATOM     21  C   UNL     1       1.726   7.726  20.045  0.00  0.00    +0.000 A 
ATOM     22  C   UNL     1       2.465   7.853  18.865  0.00  0.00    +0.000 A 
ATOM     23  C   UNL     1       3.209   6.781  18.360  0.00  0.00    +0.000 A 
ATOM     24  C   UNL     1       3.247   5.566  19.048  0.00  0.00    +0.000 A 
ATOM     25  C   UNL     1       4.158   4.473  18.676  0.00  0.00    +0.000 A 
ATOM     26  C   UNL     1       4.205   3.402  19.483  0.00  0.00    +0.000 A 
ATOM     27  C   UNL     1       3.258   3.183  20.585  0.00  0.00    +0.000 A 
ATOM     28  O   UNL     1       3.217   2.105  21.165  0.00  0.00    +0.000 OA
ATOM     29  O   UNL     1       2.415   4.231  20.912  0.00  0.00    +0.000 OA
ATOM     30  C   UNL     1       2.454   5.438  20.188  0.00  0.00    +0.000 A 
ATOM     31  C   UNL     1       1.691   6.494  20.693  0.00  0.00    +0.000 A 
BRANCH  25  32
ATOM     32  C   UNL     1       5.079   4.461  17.522  0.00  0.00    +0.000 A 
ATOM     33  C   UNL     1       4.577   4.224  16.234  0.00  0.00    +0.000 A 
ATOM     34  C   UNL     1       5.433   4.227  15.131  0.00  0.00    +0.000 A 
ATOM     35  C   UNL     1       6.793   4.469  15.308  0.00  0.00    +0.000 A 
ATOM     36  C   UNL     1       7.301   4.704  16.586  0.00  0.00    +0.000 A 
ATOM     37  C   UNL     1       6.448   4.697  17.691  0.00  0.00    +0.000 A 
ENDBRANCH  25  32
ENDBRANCH  20  21
ENDBRANCH   1  20
TORSDOF 7
ENDMDL
MODEL 6
REMARK VINA RESULT:      -8.5      4.571      6.440
REMARK  Name = 
REMARK  8 active torsions:
REMARK  status: ('A' for Active; 'I' for Inactive)
REMARK    1  A    between atoms: C_1  and  C_2
REMARK    2  A    between atoms: C_2  and  N_3
REMARK    3  A    between atoms: C_4  and  C_5
REMARK    4  A    between atoms: N_14  and  N_15
REMARK    5  A    between atoms: C_16  and  C_18
REMARK    6  A    between atoms: C_18  and  O_19
REMARK    7  A    between atoms: O_19  and  C_20
REMARK    8  A    between atoms: C_24  and  C_25
REMARK                            x       y       z     vdW  Elec       q    Type
REMARK                         _______ _______ _______ _____ _____    ______ ____
ROOT
ATOM      1  C   UNL     1       1.246  10.811  18.939  0.00  0.00    +0.000 C 
ENDROOT
BRANCH   1   3
ATOM      2  N   UNL     1      -1.088  11.047  19.623  0.00  0.00    +0.000 N 
ATOM      3  C   UNL     1      -0.038  11.623  18.922  0.00  0.00    +0.000 C 
ATOM      4  O   UNL     1      -0.105  12.698  18.323  0.00  0.00    +0.000 OA
ATOM      5  H   UNL     1      -0.995  10.173  20.135  0.00  0.00    +0.000 HD
BRANCH   2  11
ATOM      6  N   UNL     1      -3.832  12.951  21.085  0.00  0.00    +0.000 N 
ATOM      7  C   UNL     1      -3.954  13.339  22.430  0.00  0.00    +0.000 A 
ATOM      8  C   UNL     1      -2.966  12.925  23.239  0.00  0.00    +0.000 A 
ATOM      9  S   UNL     1      -1.769  12.003  22.370  0.00  0.00    +0.000 S 
ATOM     10  C   UNL     1      -2.679  12.213  20.833  0.00  0.00    +0.000 A 
ATOM     11  N   UNL     1      -2.266  11.730  19.702  0.00  0.00    +0.000 NA
BRANCH   7  12
ATOM     12  C   UNL     1      -5.062  14.163  22.930  0.00  0.00    +0.000 A 
ATOM     13  C   UNL     1      -4.918  15.556  23.017  0.00  0.00    +0.000 A 
ATOM     14  C   UNL     1      -5.956  16.339  23.534  0.00  0.00    +0.000 A 
ATOM     15  C   UNL     1      -7.139  15.740  23.965  0.00  0.00    +0.000 A 
ATOM     16  C   UNL     1      -7.289  14.356  23.879  0.00  0.00    +0.000 A 
ATOM     17  C   UNL     1      -6.255  13.569  23.361  0.00  0.00    +0.000 A 
ENDBRANCH   7  12
BRANCH   6  19
ATOM     18  C   UNL     1      -5.925  12.354  19.756  0.00  0.00    +0.000 C 
ATOM     19  C   UNL     1      -4.815  13.347  20.065  0.00  0.00    +0.000 C 
ENDBRANCH   6  19
ENDBRANCH   2  11
ENDBRANCH   1   3
BRANCH   1  20
ATOM     20  O   UNL     1       1.067   9.731  19.846  0.00  0.00    +0.000 OA
BRANCH  20  21
ATOM     21  C   UNL     1       1.646   8.537  19.525  0.00  0.00    +0.000 A 
ATOM     22  C   UNL     1       2.407   8.562  18.352  0.00  0.00    +0.000 A 
ATOM     23  C   UNL     1       3.129   7.438  17.936  0.00  0.00    +0.000 A 
ATOM     24  C   UNL     1       3.122   6.273  18.708  0.00  0.00    +0.000 A 
ATOM     25  C   UNL     1       4.008   5.132  18.429  0.00  0.00    +0.000 A 
ATOM     26  C   UNL     1       4.012   4.120  19.310  0.00  0.00    +0.000 A 
ATOM     27  C   UNL     1       3.041   4.004  20.407  0.00  0.00    +0.000 A 
ATOM     28  O   UNL     1       2.961   2.971  21.060  0.00  0.00    +0.000 OA
ATOM     29  O   UNL     1       2.223   5.095  20.645  0.00  0.00    +0.000 OA
ATOM     30  C   UNL     1       2.307   6.246  19.840  0.00  0.00    +0.000 A 
ATOM     31  C   UNL     1       1.566   7.355  20.256  0.00  0.00    +0.000 A 
BRANCH  25  32
ATOM     32  C   UNL     1       4.947   5.015  17.295  0.00  0.00    +0.000 A 
ATOM     33  C   UNL     1       6.169   5.702  17.332  0.00  0.00    +0.000 A 
ATOM     34  C   UNL     1       7.075   5.588  16.276  0.00  0.00    +0.000 A 
ATOM     35  C   UNL     1       6.766   4.786  15.180  0.00  0.00    +0.000 A 
ATOM     36  C   UNL     1       5.551   4.101  15.134  0.00  0.00    +0.000 A 
ATOM     37  C   UNL     1       4.642   4.217  16.188  0.00  0.00    +0.000 A 
ENDBRANCH  25  32
ENDBRANCH  20  21
ENDBRANCH   1  20
TORSDOF 7
ENDMDL
MODEL 7
REMARK VINA RESULT:      -8.5      4.733      6.550
REMARK  Name = 
REMARK  8 active torsions:
REMARK  status: ('A' for Active; 'I' for Inactive)
REMARK    1  A    between atoms: C_1  and  C_2
REMARK    2  A    between atoms: C_2  and  N_3
REMARK    3  A    between atoms: C_4  and  C_5
REMARK    4  A    between atoms: N_14  and  N_15
REMARK    5  A    between atoms: C_16  and  C_18
REMARK    6  A    between atoms: C_18  and  O_19
REMARK    7  A    between atoms: O_19  and  C_20
REMARK    8  A    between atoms: C_24  and  C_25
REMARK                            x       y       z     vdW  Elec       q    Type
REMARK                         _______ _______ _______ _____ _____    ______ ____
ROOT
ATOM      1  C   UNL     1      -0.148   8.990  21.370  0.00  0.00    +0.000 C 
ENDROOT
BRANCH   1   3
ATOM      2  N   UNL     1      -0.672  11.360  21.656  0.00  0.00    +0.000 N 
ATOM      3  C   UNL     1      -0.192  10.213  22.271  0.00  0.00    +0.000 C 
ATOM      4  O   UNL     1       0.179  10.152  23.446  0.00  0.00    +0.000 OA
ATOM      5  H   UNL     1      -1.001  11.372  20.694  0.00  0.00    +0.000 HD
BRANCH   2  11
ATOM      6  N   UNL     1      -2.117  14.437  22.975  0.00  0.00    +0.000 N 
ATOM      7  C   UNL     1      -3.345  15.008  22.601  0.00  0.00    +0.000 A 
ATOM      8  C   UNL     1      -4.014  14.354  21.637  0.00  0.00    +0.000 A 
ATOM      9  S   UNL     1      -3.152  12.933  21.110  0.00  0.00    +0.000 S 
ATOM     10  C   UNL     1      -1.826  13.267  22.279  0.00  0.00    +0.000 A 
ATOM     11  N   UNL     1      -0.791  12.494  22.404  0.00  0.00    +0.000 NA
BRANCH   7  12
ATOM     12  C   UNL     1      -3.890  16.219  23.226  0.00  0.00    +0.000 A 
ATOM     13  C   UNL     1      -4.447  16.157  24.513  0.00  0.00    +0.000 A 
ATOM     14  C   UNL     1      -5.006  17.300  25.094  0.00  0.00    +0.000 A 
ATOM     15  C   UNL     1      -5.013  18.508  24.398  0.00  0.00    +0.000 A 
ATOM     16  C   UNL     1      -4.460  18.577  23.120  0.00  0.00    +0.000 A 
ATOM     17  C   UNL     1      -3.898  17.438  22.535  0.00  0.00    +0.000 A 
ENDBRANCH   7  12
BRANCH   6  19
ATOM     18  C   UNL     1      -0.270  16.073  23.615  0.00  0.00    +0.000 C 
ATOM     19  C   UNL     1      -1.277  15.014  24.035  0.00  0.00    +0.000 C 
ENDBRANCH   6  19
ENDBRANCH   2  11
ENDBRANCH   1   3
BRANCH   1  20
ATOM     20  O   UNL     1       1.036   9.068  20.587  0.00  0.00    +0.000 OA
BRANCH  20  21
ATOM     21  C   UNL     1       1.603   7.893  20.185  0.00  0.00    +0.000 A 
ATOM     22  C   UNL     1       2.374   7.993  19.023  0.00  0.00    +0.000 A 
ATOM     23  C   UNL     1       3.085   6.892  18.532  0.00  0.00    +0.000 A 
ATOM     24  C   UNL     1       3.057   5.675  19.218  0.00  0.00    +0.000 A 
ATOM     25  C   UNL     1       3.931   4.546  18.865  0.00  0.00    +0.000 A 
ATOM     26  C   UNL     1       3.916   3.473  19.670  0.00  0.00    +0.000 A 
ATOM     27  C   UNL     1       2.934   3.291  20.749  0.00  0.00    +0.000 A 
ATOM     28  O   UNL     1       2.836   2.215  21.325  0.00  0.00    +0.000 OA
ATOM     29  O   UNL     1       2.128   4.372  21.058  0.00  0.00    +0.000 OA
ATOM     30  C   UNL     1       2.233   5.577  20.339  0.00  0.00    +0.000 A 
ATOM     31  C   UNL     1       1.502   6.663  20.829  0.00  0.00    +0.000 A 
BRANCH  25  32
ATOM     32  C   UNL     1       4.878   4.499  17.732  0.00  0.00    +0.000 A 
ATOM     33  C   UNL     1       6.247   4.700  17.962  0.00  0.00    +0.000 A 
ATOM     34  C   UNL     1       7.157   4.642  16.906  0.00  0.00    +0.000 A 
ATOM     35  C   UNL     1       6.705   4.380  15.614  0.00  0.00    +0.000 A 
ATOM     36  C   UNL     1       5.344   4.181  15.376  0.00  0.00    +0.000 A 
ATOM     37  C   UNL     1       4.432   4.243  16.431  0.00  0.00    +0.000 A 
ENDBRANCH  25  32
ENDBRANCH  20  21
ENDBRANCH   1  20
TORSDOF 7
ENDMDL
MODEL 8
REMARK VINA RESULT:      -8.5      4.841      6.543
REMARK  Name = 
REMARK  8 active torsions:
REMARK  status: ('A' for Active; 'I' for Inactive)
REMARK    1  A    between atoms: C_1  and  C_2
REMARK    2  A    between atoms: C_2  and  N_3
REMARK    3  A    between atoms: C_4  and  C_5
REMARK    4  A    between atoms: N_14  and  N_15
REMARK    5  A    between atoms: C_16  and  C_18
REMARK    6  A    between atoms: C_18  and  O_19
REMARK    7  A    between atoms: O_19  and  C_20
REMARK    8  A    between atoms: C_24  and  C_25
REMARK                            x       y       z     vdW  Elec       q    Type
REMARK                         _______ _______ _______ _____ _____    ______ ____
ROOT
ATOM      1  C   UNL     1       0.873   9.823  20.888  0.00  0.00    +0.000 C 
ENDROOT
BRANCH   1   3
ATOM      2  N   UNL     1      -0.846  11.555  20.746  0.00  0.00    +0.000 N 
ATOM      3  C   UNL     1       0.489  11.288  21.015  0.00  0.00    +0.000 C 
ATOM      4  O   UNL     1       1.323  12.141  21.330  0.00  0.00    +0.000 OA
ATOM      5  H   UNL     1      -1.517  10.827  20.519  0.00  0.00    +0.000 HD
BRANCH   2  11
ATOM      6  N   UNL     1      -2.542  14.438  22.197  0.00  0.00    +0.000 N 
ATOM      7  C   UNL     1      -3.284  14.455  23.391  0.00  0.00    +0.000 A 
ATOM      8  C   UNL     1      -3.390  13.273  24.018  0.00  0.00    +0.000 A 
ATOM      9  S   UNL     1      -2.546  12.012  23.159  0.00  0.00    +0.000 S 
ATOM     10  C   UNL     1      -2.028  13.180  21.892  0.00  0.00    +0.000 A 
ATOM     11  N   UNL     1      -1.290  12.837  20.883  0.00  0.00    +0.000 NA
BRANCH   7  12
ATOM     12  C   UNL     1      -3.885  15.675  23.944  0.00  0.00    +0.000 A 
ATOM     13  C   UNL     1      -3.125  16.526  24.760  0.00  0.00    +0.000 A 
ATOM     14  C   UNL     1      -3.708  17.666  25.324  0.00  0.00    +0.000 A 
ATOM     15  C   UNL     1      -5.047  17.963  25.078  0.00  0.00    +0.000 A 
ATOM     16  C   UNL     1      -5.808  17.122  24.266  0.00  0.00    +0.000 A 
ATOM     17  C   UNL     1      -5.229  15.982  23.699  0.00  0.00    +0.000 A 
ENDBRANCH   7  12
BRANCH   6  19
ATOM     18  C   UNL     1      -1.000  16.392  21.647  0.00  0.00    +0.000 C 
ATOM     19  C   UNL     1      -2.307  15.655  21.405  0.00  0.00    +0.000 C 
ENDBRANCH   6  19
ENDBRANCH   2  11
ENDBRANCH   1   3
BRANCH   1  20
ATOM     20  O   UNL     1       1.280   9.594  19.545  0.00  0.00    +0.000 OA
BRANCH  20  21
ATOM     21  C   UNL     1       1.846   8.386  19.257  0.00  0.00    +0.000 A 
ATOM     22  C   UNL     1       2.634   8.379  18.102  0.00  0.00    +0.000 A 
ATOM     23  C   UNL     1       3.346   7.237  17.721  0.00  0.00    +0.000 A 
ATOM     24  C   UNL     1       3.301   6.085  18.511  0.00  0.00    +0.000 A 
ATOM     25  C   UNL     1       4.174   4.925  18.271  0.00  0.00    +0.000 A 
ATOM     26  C   UNL     1       4.140   3.927  19.168  0.00  0.00    +0.000 A 
ATOM     27  C   UNL     1       3.142   3.846  20.243  0.00  0.00    +0.000 A 
ATOM     28  O   UNL     1       3.029   2.824  20.911  0.00  0.00    +0.000 OA
ATOM     29  O   UNL     1       2.337   4.953  20.444  0.00  0.00    +0.000 OA
ATOM     30  C   UNL     1       2.460   6.090  19.623  0.00  0.00    +0.000 A 
ATOM     31  C   UNL     1       1.728   7.218  20.004  0.00  0.00    +0.000 A 
BRANCH  25  32
ATOM     32  C   UNL     1       5.137   4.774  17.162  0.00  0.00    +0.000 A 
ATOM     33  C   UNL     1       6.470   5.169  17.341  0.00  0.00    +0.000 A 
ATOM     34  C   UNL     1       7.396   5.018  16.308  0.00  0.00    +0.000 A 
ATOM     35  C   UNL     1       6.997   4.468  15.092  0.00  0.00    +0.000 A 
ATOM     36  C   UNL     1       5.671   4.074  14.904  0.00  0.00    +0.000 A 
ATOM     37  C   UNL     1       4.742   4.229  15.935  0.00  0.00    +0.000 A 
ENDBRANCH  25  32
ENDBRANCH  20  21
ENDBRANCH   1  20
TORSDOF 7
ENDMDL
MODEL 9
REMARK VINA RESULT:      -8.4      1.283      1.975
REMARK  Name = 
REMARK  8 active torsions:
REMARK  status: ('A' for Active; 'I' for Inactive)
REMARK    1  A    between atoms: C_1  and  C_2
REMARK    2  A    between atoms: C_2  and  N_3
REMARK    3  A    between atoms: C_4  and  C_5
REMARK    4  A    between atoms: N_14  and  N_15
REMARK    5  A    between atoms: C_16  and  C_18
REMARK    6  A    between atoms: C_18  and  O_19
REMARK    7  A    between atoms: O_19  and  C_20
REMARK    8  A    between atoms: C_24  and  C_25
REMARK                            x       y       z     vdW  Elec       q    Type
REMARK                         _______ _______ _______ _____ _____    ______ ____
ROOT
ATOM      1  C   UNL     1       2.330   3.930  21.052  0.00  0.00    +0.000 C 
ENDROOT
BRANCH   1   3
ATOM      2  N   UNL     1       2.127   6.324  20.601  0.00  0.00    +0.000 N 
ATOM      3  C   UNL     1       1.765   5.048  20.192  0.00  0.00    +0.000 C 
ATOM      4  O   UNL     1       1.047   4.803  19.220  0.00  0.00    +0.000 OA
ATOM      5  H   UNL     1       2.748   6.494  21.388  0.00  0.00    +0.000 HD
BRANCH   2  11
ATOM      6  N   UNL     1       0.906   9.671  19.826  0.00  0.00    +0.000 N 
ATOM      7  C   UNL     1       0.610  10.685  20.752  0.00  0.00    +0.000 A 
ATOM      8  C   UNL     1       0.769  10.350  22.043  0.00  0.00    +0.000 A 
ATOM      9  S   UNL     1       1.323   8.705  22.214  0.00  0.00    +0.000 S 
ATOM     10  C   UNL     1       1.337   8.492  20.428  0.00  0.00    +0.000 A 
ATOM     11  N   UNL     1       1.705   7.386  19.858  0.00  0.00    +0.000 NA
BRANCH   7  12
ATOM     12  C   UNL     1       0.182  12.033  20.357  0.00  0.00    +0.000 A 
ATOM     13  C   UNL     1      -1.177  12.380  20.400  0.00  0.00    +0.000 A 
ATOM     14  C   UNL     1      -1.592  13.649  19.982  0.00  0.00    +0.000 A 
ATOM     15  C   UNL     1      -0.659  14.576  19.521  0.00  0.00    +0.000 A 
ATOM     16  C   UNL     1       0.694  14.237  19.478  0.00  0.00    +0.000 A 
ATOM     17  C   UNL     1       1.114  12.971  19.896  0.00  0.00    +0.000 A 
ENDBRANCH   7  12
BRANCH   6  19
ATOM     18  C   UNL     1      -0.581   9.858  17.764  0.00  0.00    +0.000 C 
ATOM     19  C   UNL     1       0.811   9.886  18.374  0.00  0.00    +0.000 C 
ENDBRANCH   6  19
ENDBRANCH   2  11
ENDBRANCH   1   3
BRANCH   1  20
ATOM     20  O   UNL     1       2.973   3.000  20.191  0.00  0.00    +0.000 OA
BRANCH  20  21
ATOM     21  C   UNL     1       3.939   3.480  19.355  0.00  0.00    +0.000 A 
ATOM     22  C   UNL     1       3.900   2.945  18.063  0.00  0.00    +0.000 A 
ATOM     23  C   UNL     1       4.774   3.399  17.069  0.00  0.00    +0.000 A 
ATOM     24  C   UNL     1       5.686   4.421  17.346  0.00  0.00    +0.000 A 
ATOM     25  C   UNL     1       6.490   5.071  16.300  0.00  0.00    +0.000 A 
ATOM     26  C   UNL     1       7.235   6.128  16.658  0.00  0.00    +0.000 A 
ATOM     27  C   UNL     1       7.443   6.529  18.056  0.00  0.00    +0.000 A 
ATOM     28  O   UNL     1       8.284   7.374  18.343  0.00  0.00    +0.000 OA
ATOM     29  O   UNL     1       6.671   5.900  19.016  0.00  0.00    +0.000 OA
ATOM     30  C   UNL     1       5.752   4.897  18.655  0.00  0.00    +0.000 A 
ATOM     31  C   UNL     1       4.899   4.438  19.663  0.00  0.00    +0.000 A 
BRANCH  25  32
ATOM     32  C   UNL     1       6.513   4.710  14.869  0.00  0.00    +0.000 A 
ATOM     33  C   UNL     1       7.570   5.150  14.059  0.00  0.00    +0.000 A 
ATOM     34  C   UNL     1       7.616   4.803  12.707  0.00  0.00    +0.000 A 
ATOM     35  C   UNL     1       6.607   4.013  12.159  0.00  0.00    +0.000 A 
ATOM     36  C   UNL     1       5.551   3.573  12.958  0.00  0.00    +0.000 A 
ATOM     37  C   UNL     1       5.501   3.923  14.309  0.00  0.00    +0.000 A 
ENDBRANCH  25  32
ENDBRANCH  20  21
ENDBRANCH   1  20
TORSDOF 7
ENDMDL
