MODEL 1
REMARK VINA RESULT:      -9.4      0.000      0.000
REMARK  Name = 
REMARK  5 active torsions:
REMARK  status: ('A' for Active; 'I' for Inactive)
REMARK    1  A    between atoms: C_2  and  C_3
REMARK    2  A    between atoms: C_2  and  C_22
REMARK    3  A    between atoms: C_3  and  S_4
REMARK    4  A    between atoms: S_4  and  C_5
REMARK    5  A    between atoms: N_15  and  C_16
REMARK                            x       y       z     vdW  Elec       q    Type
REMARK                         _______ _______ _______ _____ _____    ______ ____
ROOT
ATOM      1  C   UNL     1       3.429   6.228  18.143  0.00  0.00    +0.000 A 
ATOM      2  N   UNL     1       4.133   6.693  17.154  0.00  0.00    +0.000 NA
ATOM      3  C   UNL     1       4.877   5.788  16.388  0.00  0.00    +0.000 A 
ATOM      4  C   UNL     1       5.594   6.248  15.285  0.00  0.00    +0.000 A 
ATOM      5  C   UNL     1       6.318   5.365  14.477  0.00  0.00    +0.000 A 
ATOM      6  C   UNL     1       6.341   4.003  14.768  0.00  0.00    +0.000 A 
ATOM      7  C   UNL     1       5.652   3.533  15.881  0.00  0.00    +0.000 A 
ATOM      8  C   UNL     1       4.932   4.432  16.683  0.00  0.00    +0.000 A 
ATOM      9  C   UNL     1       4.188   3.957  17.866  0.00  0.00    +0.000 A 
ATOM     10  O   UNL     1       4.317   2.769  18.140  0.00  0.00    +0.000 OA
ATOM     11  N   UNL     1       3.399   4.892  18.524  0.00  0.00    +0.000 N 
ENDROOT
BRANCH  11  12
ATOM     12  C   UNL     1       2.513   4.346  19.489  0.00  0.00    +0.000 A 
ATOM     13  C   UNL     1       2.929   4.239  20.822  0.00  0.00    +0.000 A 
ATOM     14  C   UNL     1       2.196   3.481  21.734  0.00  0.00    +0.000 A 
ATOM     15  C   UNL     1       1.050   2.810  21.315  0.00  0.00    +0.000 A 
ATOM     16  C   UNL     1       0.614   2.928  19.995  0.00  0.00    +0.000 A 
ATOM     17  C   UNL     1       1.336   3.702  19.081  0.00  0.00    +0.000 A 
ENDBRANCH  11  12
BRANCH   1  18
ATOM     18  S   UNL     1       2.553   7.398  19.133  0.00  0.00    +0.000 S 
BRANCH  18  19
ATOM     19  C   UNL     1       1.682   8.381  17.860  0.00  0.00    +0.000 C 
BRANCH  19  21
ATOM     20  O   UNL     1       2.403  10.647  17.941  0.00  0.00    +0.000 OA
ATOM     21  C   UNL     1       1.538   9.828  18.272  0.00  0.00    +0.000 C 
BRANCH  21  22
ATOM     22  C   UNL     1       0.387  10.284  19.056  0.00  0.00    +0.000 A 
ATOM     23  C   UNL     1      -0.301  11.431  18.677  0.00  0.00    +0.000 A 
ATOM     24  N   UNL     1      -1.345  11.568  19.543  0.00  0.00    +0.000 N 
ATOM     25  C   UNL     1      -0.922  11.009  20.723  0.00  0.00    +0.000 A 
ATOM     26  C   UNL     1      -1.126  11.393  22.046  0.00  0.00    +0.000 A 
ATOM     27  C   UNL     1      -0.684  10.500  23.018  0.00  0.00    +0.000 A 
ATOM     28  C   UNL     1      -0.215   9.235  22.657  0.00  0.00    +0.000 A 
ATOM     29  C   UNL     1       0.043   8.909  21.314  0.00  0.00    +0.000 A 
ATOM     30  C   UNL     1      -0.157   9.907  20.341  0.00  0.00    +0.000 A 
ATOM     31  H   UNL     1      -2.298  11.458  19.224  0.00  0.00    +0.000 HD
ENDBRANCH  21  22
ENDBRANCH  19  21
ENDBRANCH  18  19
ENDBRANCH   1  18
TORSDOF 5
ENDMDL
MODEL 2
REMARK VINA RESULT:      -8.8      5.074      7.047
REMARK  Name = 
REMARK  5 active torsions:
REMARK  status: ('A' for Active; 'I' for Inactive)
REMARK    1  A    between atoms: C_2  and  C_3
REMARK    2  A    between atoms: C_2  and  C_22
REMARK    3  A    between atoms: C_3  and  S_4
REMARK    4  A    between atoms: S_4  and  C_5
REMARK    5  A    between atoms: N_15  and  C_16
REMARK                            x       y       z     vdW  Elec       q    Type
REMARK                         _______ _______ _______ _____ _____    ______ ____
ROOT
ATOM      1  C   UNL     1       6.818   5.935  16.827  0.00  0.00    +0.000 A 
ATOM      2  N   UNL     1       7.563   5.836  15.767  0.00  0.00    +0.000 NA
ATOM      3  C   UNL     1       7.065   5.120  14.672  0.00  0.00    +0.000 A 
ATOM      4  C   UNL     1       7.815   5.046  13.500  0.00  0.00    +0.000 A 
ATOM      5  C   UNL     1       7.330   4.370  12.375  0.00  0.00    +0.000 A 
ATOM      6  C   UNL     1       6.084   3.748  12.411  0.00  0.00    +0.000 A 
ATOM      7  C   UNL     1       5.336   3.791  13.582  0.00  0.00    +0.000 A 
ATOM      8  C   UNL     1       5.837   4.472  14.703  0.00  0.00    +0.000 A 
ATOM      9  C   UNL     1       5.059   4.536  15.955  0.00  0.00    +0.000 A 
ATOM     10  O   UNL     1       4.015   3.894  15.973  0.00  0.00    +0.000 OA
ATOM     11  N   UNL     1       5.571   5.339  16.967  0.00  0.00    +0.000 N 
ENDROOT
BRANCH  11  12
ATOM     12  C   UNL     1       4.678   5.574  18.045  0.00  0.00    +0.000 A 
ATOM     13  C   UNL     1       4.548   4.611  19.054  0.00  0.00    +0.000 A 
ATOM     14  C   UNL     1       3.506   4.689  19.977  0.00  0.00    +0.000 A 
ATOM     15  C   UNL     1       2.577   5.722  19.889  0.00  0.00    +0.000 A 
ATOM     16  C   UNL     1       2.710   6.699  18.902  0.00  0.00    +0.000 A 
ATOM     17  C   UNL     1       3.763   6.636  17.984  0.00  0.00    +0.000 A 
ENDBRANCH  11  12
BRANCH   1  18
ATOM     18  S   UNL     1       7.497   6.786  18.216  0.00  0.00    +0.000 S 
BRANCH  18  19
ATOM     19  C   UNL     1       7.780   8.455  17.525  0.00  0.00    +0.000 C 
BRANCH  19  21
ATOM     20  O   UNL     1       9.078   8.819  19.485  0.00  0.00    +0.000 OA
ATOM     21  C   UNL     1       8.600   9.316  18.459  0.00  0.00    +0.000 C 
BRANCH  21  22
ATOM     22  C   UNL     1       8.847  10.730  18.169  0.00  0.00    +0.000 A 
ATOM     23  C   UNL     1       7.998  11.423  17.313  0.00  0.00    +0.000 A 
ATOM     24  N   UNL     1       8.434  12.715  17.287  0.00  0.00    +0.000 N 
ATOM     25  C   UNL     1       9.788  12.652  17.506  0.00  0.00    +0.000 A 
ATOM     26  C   UNL     1      10.841  13.378  16.957  0.00  0.00    +0.000 A 
ATOM     27  C   UNL     1      12.093  13.168  17.526  0.00  0.00    +0.000 A 
ATOM     28  C   UNL     1      12.226  12.392  18.679  0.00  0.00    +0.000 A 
ATOM     29  C   UNL     1      11.156  11.619  19.165  0.00  0.00    +0.000 A 
ATOM     30  C   UNL     1       9.952  11.625  18.435  0.00  0.00    +0.000 A 
ATOM     31  H   UNL     1       7.873  13.457  17.684  0.00  0.00    +0.000 HD
ENDBRANCH  21  22
ENDBRANCH  19  21
ENDBRANCH  18  19
ENDBRANCH   1  18
TORSDOF 5
ENDMDL
MODEL 3
REMARK VINA RESULT:      -8.6      0.933      1.261
REMARK  Name = 
REMARK  5 active torsions:
REMARK  status: ('A' for Active; 'I' for Inactive)
REMARK    1  A    between atoms: C_2  and  C_3
REMARK    2  A    between atoms: C_2  and  C_22
REMARK    3  A    between atoms: C_3  and  S_4
REMARK    4  A    between atoms: S_4  and  C_5
REMARK    5  A    between atoms: N_15  and  C_16
REMARK                            x       y       z     vdW  Elec       q    Type
REMARK                         _______ _______ _______ _____ _____    ______ ____
ROOT
ATOM      1  C   UNL     1       3.434   6.244  18.034  0.00  0.00    +0.000 A 
ATOM      2  N   UNL     1       4.155   6.692  17.051  0.00  0.00    +0.000 NA
ATOM      3  C   UNL     1       4.932   5.779  16.328  0.00  0.00    +0.000 A 
ATOM      4  C   UNL     1       5.669   6.219  15.231  0.00  0.00    +0.000 A 
ATOM      5  C   UNL     1       6.427   5.325  14.465  0.00  0.00    +0.000 A 
ATOM      6  C   UNL     1       6.462   3.972  14.795  0.00  0.00    +0.000 A 
ATOM      7  C   UNL     1       5.753   3.523  15.903  0.00  0.00    +0.000 A 
ATOM      8  C   UNL     1       4.999   4.432  16.662  0.00  0.00    +0.000 A 
ATOM      9  C   UNL     1       4.233   3.977  17.838  0.00  0.00    +0.000 A 
ATOM     10  O   UNL     1       4.373   2.800  18.148  0.00  0.00    +0.000 OA
ATOM     11  N   UNL     1       3.414   4.918  18.450  0.00  0.00    +0.000 N 
ENDROOT
BRANCH  11  12
ATOM     12  C   UNL     1       2.513   4.384  19.408  0.00  0.00    +0.000 A 
ATOM     13  C   UNL     1       2.907   4.293  20.749  0.00  0.00    +0.000 A 
ATOM     14  C   UNL     1       2.159   3.547  21.658  0.00  0.00    +0.000 A 
ATOM     15  C   UNL     1       1.018   2.873  21.230  0.00  0.00    +0.000 A 
ATOM     16  C   UNL     1       0.603   2.976  19.901  0.00  0.00    +0.000 A 
ATOM     17  C   UNL     1       1.340   3.737  18.989  0.00  0.00    +0.000 A 
ENDBRANCH  11  12
BRANCH   1  18
ATOM     18  S   UNL     1       2.516   7.426  18.969  0.00  0.00    +0.000 S 
BRANCH  18  19
ATOM     19  C   UNL     1       1.756   8.434  17.646  0.00  0.00    +0.000 C 
BRANCH  19  21
ATOM     20  O   UNL     1       2.263  10.694  18.193  0.00  0.00    +0.000 OA
ATOM     21  C   UNL     1       1.393   9.817  18.136  0.00  0.00    +0.000 C 
BRANCH  21  22
ATOM     22  C   UNL     1       0.024  10.145  18.541  0.00  0.00    +0.000 A 
ATOM     23  C   UNL     1      -1.015  10.048  17.623  0.00  0.00    +0.000 A 
ATOM     24  N   UNL     1      -2.164  10.349  18.293  0.00  0.00    +0.000 N 
ATOM     25  C   UNL     1      -1.794  11.223  19.285  0.00  0.00    +0.000 A 
ATOM     26  C   UNL     1      -2.428  12.351  19.797  0.00  0.00    +0.000 A 
ATOM     27  C   UNL     1      -1.846  12.924  20.924  0.00  0.00    +0.000 A 
ATOM     28  C   UNL     1      -0.783  12.290  21.572  0.00  0.00    +0.000 A 
ATOM     29  C   UNL     1      -0.124  11.193  20.989  0.00  0.00    +0.000 A 
ATOM     30  C   UNL     1      -0.547  10.769  19.714  0.00  0.00    +0.000 A 
ATOM     31  H   UNL     1      -2.867   9.640  18.456  0.00  0.00    +0.000 HD
ENDBRANCH  21  22
ENDBRANCH  19  21
ENDBRANCH  18  19
ENDBRANCH   1  18
TORSDOF 5
ENDMDL
MODEL 4
REMARK VINA RESULT:      -8.6      0.974      4.317
REMARK  Name = 
REMARK  5 active torsions:
REMARK  status: ('A' for Active; 'I' for Inactive)
REMARK    1  A    between atoms: C_2  and  C_3
REMARK    2  A    between atoms: C_2  and  C_22
REMARK    3  A    between atoms: C_3  and  S_4
REMARK    4  A    between atoms: S_4  and  C_5
REMARK    5  A    between atoms: N_15  and  C_16
REMARK                            x       y       z     vdW  Elec       q    Type
REMARK                         _______ _______ _______ _____ _____    ______ ____
ROOT
ATOM      1  C   UNL     1       3.259   6.092  18.308  0.00  0.00    +0.000 A 
ATOM      2  N   UNL     1       2.431   5.941  19.297  0.00  0.00    +0.000 NA
ATOM      3  C   UNL     1       2.263   4.658  19.831  0.00  0.00    +0.000 A 
ATOM      4  C   UNL     1       1.428   4.474  20.930  0.00  0.00    +0.000 A 
ATOM      5  C   UNL     1       1.267   3.211  21.511  0.00  0.00    +0.000 A 
ATOM      6  C   UNL     1       1.938   2.107  20.990  0.00  0.00    +0.000 A 
ATOM      7  C   UNL     1       2.754   2.270  19.877  0.00  0.00    +0.000 A 
ATOM      8  C   UNL     1       2.904   3.543  19.305  0.00  0.00    +0.000 A 
ATOM      9  C   UNL     1       3.769   3.742  18.126  0.00  0.00    +0.000 A 
ATOM     10  O   UNL     1       4.261   2.729  17.643  0.00  0.00    +0.000 OA
ATOM     11  N   UNL     1       3.962   5.053  17.708  0.00  0.00    +0.000 N 
ENDROOT
BRANCH  11  12
ATOM     12  C   UNL     1       4.989   5.223  16.743  0.00  0.00    +0.000 A 
ATOM     13  C   UNL     1       4.759   4.834  15.417  0.00  0.00    +0.000 A 
ATOM     14  C   UNL     1       5.815   4.745  14.512  0.00  0.00    +0.000 A 
ATOM     15  C   UNL     1       7.113   5.029  14.930  0.00  0.00    +0.000 A 
ATOM     16  C   UNL     1       7.350   5.439  16.242  0.00  0.00    +0.000 A 
ATOM     17  C   UNL     1       6.292   5.547  17.150  0.00  0.00    +0.000 A 
ENDBRANCH  11  12
BRANCH   1  18
ATOM     18  S   UNL     1       3.402   7.707  17.612  0.00  0.00    +0.000 S 
BRANCH  18  19
ATOM     19  C   UNL     1       1.678   8.307  17.712  0.00  0.00    +0.000 C 
BRANCH  19  21
ATOM     20  O   UNL     1       2.485  10.545  17.716  0.00  0.00    +0.000 OA
ATOM     21  C   UNL     1       1.615   9.763  18.114  0.00  0.00    +0.000 C 
BRANCH  21  22
ATOM     22  C   UNL     1       0.536  10.270  18.965  0.00  0.00    +0.000 A 
ATOM     23  C   UNL     1      -0.027  11.515  18.707  0.00  0.00    +0.000 A 
ATOM     24  N   UNL     1      -1.034  11.688  19.610  0.00  0.00    +0.000 N 
ATOM     25  C   UNL     1      -0.654  10.982  20.725  0.00  0.00    +0.000 A 
ATOM     26  C   UNL     1      -0.791  11.266  22.081  0.00  0.00    +0.000 A 
ATOM     27  C   UNL     1      -0.435  10.247  22.959  0.00  0.00    +0.000 A 
ATOM     28  C   UNL     1      -0.116   8.975  22.478  0.00  0.00    +0.000 A 
ATOM     29  C   UNL     1       0.080   8.744  21.104  0.00  0.00    +0.000 A 
ATOM     30  C   UNL     1      -0.024   9.841  20.228  0.00  0.00    +0.000 A 
ATOM     31  H   UNL     1      -1.999  11.711  19.309  0.00  0.00    +0.000 HD
ENDBRANCH  21  22
ENDBRANCH  19  21
ENDBRANCH  18  19
ENDBRANCH   1  18
TORSDOF 5
ENDMDL
MODEL 5
REMARK VINA RESULT:      -8.6      1.638      2.452
REMARK  Name = 
REMARK  5 active torsions:
REMARK  status: ('A' for Active; 'I' for Inactive)
REMARK    1  A    between atoms: C_2  and  C_3
REMARK    2  A    between atoms: C_2  and  C_22
REMARK    3  A    between atoms: C_3  and  S_4
REMARK    4  A    between atoms: S_4  and  C_5
REMARK    5  A    between atoms: N_15  and  C_16
REMARK                            x       y       z     vdW  Elec       q    Type
REMARK                         _______ _______ _______ _____ _____    ______ ____
ROOT
ATOM      1  C   UNL     1       3.350   6.247  18.092  0.00  0.00    +0.000 A 
ATOM      2  N   UNL     1       4.055   6.712  17.105  0.00  0.00    +0.000 NA
ATOM      3  C   UNL     1       4.859   5.819  16.387  0.00  0.00    +0.000 A 
ATOM      4  C   UNL     1       5.580   6.276  15.286  0.00  0.00    +0.000 A 
ATOM      5  C   UNL     1       6.364   5.402  14.524  0.00  0.00    +0.000 A 
ATOM      6  C   UNL     1       6.443   4.053  14.861  0.00  0.00    +0.000 A 
ATOM      7  C   UNL     1       5.750   3.587  15.973  0.00  0.00    +0.000 A 
ATOM      8  C   UNL     1       4.969   4.477  16.728  0.00  0.00    +0.000 A 
ATOM      9  C   UNL     1       4.220   4.005  17.908  0.00  0.00    +0.000 A 
ATOM     10  O   UNL     1       4.397   2.835  18.225  0.00  0.00    +0.000 OA
ATOM     11  N   UNL     1       3.372   4.923  18.516  0.00  0.00    +0.000 N 
ENDROOT
BRANCH  11  12
ATOM     12  C   UNL     1       2.490   4.367  19.479  0.00  0.00    +0.000 A 
ATOM     13  C   UNL     1       2.896   4.279  20.816  0.00  0.00    +0.000 A 
ATOM     14  C   UNL     1       2.171   3.514  21.728  0.00  0.00    +0.000 A 
ATOM     15  C   UNL     1       1.041   2.817  21.306  0.00  0.00    +0.000 A 
ATOM     16  C   UNL     1       0.615   2.916  19.981  0.00  0.00    +0.000 A 
ATOM     17  C   UNL     1       1.328   3.697  19.066  0.00  0.00    +0.000 A 
ENDBRANCH  11  12
BRANCH   1  18
ATOM     18  S   UNL     1       2.396   7.405  19.022  0.00  0.00    +0.000 S 
BRANCH  18  19
ATOM     19  C   UNL     1       2.252   8.795  17.843  0.00  0.00    +0.000 C 
BRANCH  19  21
ATOM     20  O   UNL     1      -0.024   9.456  17.625  0.00  0.00    +0.000 OA
ATOM     21  C   UNL     1       1.067   9.678  18.163  0.00  0.00    +0.000 C 
BRANCH  21  22
ATOM     22  C   UNL     1       1.183  10.794  19.105  0.00  0.00    +0.000 A 
ATOM     23  C   UNL     1       0.439  10.792  20.279  0.00  0.00    +0.000 A 
ATOM     24  N   UNL     1       0.798  11.909  20.975  0.00  0.00    +0.000 N 
ATOM     25  C   UNL     1       1.153  12.836  20.026  0.00  0.00    +0.000 A 
ATOM     26  C   UNL     1       0.938  14.210  19.960  0.00  0.00    +0.000 A 
ATOM     27  C   UNL     1       1.579  14.881  18.923  0.00  0.00    +0.000 A 
ATOM     28  C   UNL     1       2.502  14.216  18.112  0.00  0.00    +0.000 A 
ATOM     29  C   UNL     1       2.641  12.818  18.161  0.00  0.00    +0.000 A 
ATOM     30  C   UNL     1       1.799  12.100  19.033  0.00  0.00    +0.000 A 
ATOM     31  H   UNL     1       1.303  11.833  21.848  0.00  0.00    +0.000 HD
ENDBRANCH  21  22
ENDBRANCH  19  21
ENDBRANCH  18  19
ENDBRANCH   1  18
TORSDOF 5
ENDMDL
MODEL 6
REMARK VINA RESULT:      -8.6      2.721      8.684
REMARK  Name = 
REMARK  5 active torsions:
REMARK  status: ('A' for Active; 'I' for Inactive)
REMARK    1  A    between atoms: C_2  and  C_3
REMARK    2  A    between atoms: C_2  and  C_22
REMARK    3  A    between atoms: C_3  and  S_4
REMARK    4  A    between atoms: S_4  and  C_5
REMARK    5  A    between atoms: N_15  and  C_16
REMARK                            x       y       z     vdW  Elec       q    Type
REMARK                         _______ _______ _______ _____ _____    ______ ____
ROOT
ATOM      1  C   UNL     1      -0.512  10.809  19.167  0.00  0.00    +0.000 A 
ATOM      2  N   UNL     1      -0.754  10.210  18.040  0.00  0.00    +0.000 NA
ATOM      3  C   UNL     1      -1.970  10.473  17.398  0.00  0.00    +0.000 A 
ATOM      4  C   UNL     1      -2.235   9.893  16.160  0.00  0.00    +0.000 A 
ATOM      5  C   UNL     1      -3.425  10.164  15.475  0.00  0.00    +0.000 A 
ATOM      6  C   UNL     1      -4.375  11.019  16.029  0.00  0.00    +0.000 A 
ATOM      7  C   UNL     1      -4.138  11.584  17.276  0.00  0.00    +0.000 A 
ATOM      8  C   UNL     1      -2.940  11.301  17.951  0.00  0.00    +0.000 A 
ATOM      9  C   UNL     1      -2.663  11.894  19.274  0.00  0.00    +0.000 A 
ATOM     10  O   UNL     1      -3.567  12.559  19.765  0.00  0.00    +0.000 OA
ATOM     11  N   UNL     1      -1.400  11.664  19.808  0.00  0.00    +0.000 N 
ENDROOT
BRANCH  11  12
ATOM     12  C   UNL     1      -1.087  12.451  20.947  0.00  0.00    +0.000 A 
ATOM     13  C   UNL     1      -1.502  12.023  22.215  0.00  0.00    +0.000 A 
ATOM     14  C   UNL     1      -1.440  12.885  23.308  0.00  0.00    +0.000 A 
ATOM     15  C   UNL     1      -0.978  14.188  23.140  0.00  0.00    +0.000 A 
ATOM     16  C   UNL     1      -0.542  14.617  21.886  0.00  0.00    +0.000 A 
ATOM     17  C   UNL     1      -0.584  13.751  20.789  0.00  0.00    +0.000 A 
ENDBRANCH  11  12
BRANCH   1  18
ATOM     18  S   UNL     1       1.000  10.409  19.986  0.00  0.00    +0.000 S 
BRANCH  18  19
ATOM     19  C   UNL     1       1.579   8.973  19.014  0.00  0.00    +0.000 C 
BRANCH  19  21
ATOM     20  O   UNL     1       1.664   7.857  21.113  0.00  0.00    +0.000 OA
ATOM     21  C   UNL     1       1.864   7.779  19.896  0.00  0.00    +0.000 C 
BRANCH  21  22
ATOM     22  C   UNL     1       2.369   6.524  19.335  0.00  0.00    +0.000 A 
ATOM     23  C   UNL     1       3.142   6.540  18.180  0.00  0.00    +0.000 A 
ATOM     24  N   UNL     1       3.515   5.250  17.937  0.00  0.00    +0.000 N 
ATOM     25  C   UNL     1       2.504   4.472  18.445  0.00  0.00    +0.000 A 
ATOM     26  C   UNL     1       1.924   3.298  17.972  0.00  0.00    +0.000 A 
ATOM     27  C   UNL     1       1.019   2.675  18.825  0.00  0.00    +0.000 A 
ATOM     28  C   UNL     1       0.845   3.136  20.132  0.00  0.00    +0.000 A 
ATOM     29  C   UNL     1       1.391   4.362  20.552  0.00  0.00    +0.000 A 
ATOM     30  C   UNL     1       2.097   5.129  19.606  0.00  0.00    +0.000 A 
ATOM     31  H   UNL     1       4.483   4.970  18.018  0.00  0.00    +0.000 HD
ENDBRANCH  21  22
ENDBRANCH  19  21
ENDBRANCH  18  19
ENDBRANCH   1  18
TORSDOF 5
ENDMDL
MODEL 7
REMARK VINA RESULT:      -8.3      1.560      2.356
REMARK  Name = 
REMARK  5 active torsions:
REMARK  status: ('A' for Active; 'I' for Inactive)
REMARK    1  A    between atoms: C_2  and  C_3
REMARK    2  A    between atoms: C_2  and  C_22
REMARK    3  A    between atoms: C_3  and  S_4
REMARK    4  A    between atoms: S_4  and  C_5
REMARK    5  A    between atoms: N_15  and  C_16
REMARK                            x       y       z     vdW  Elec       q    Type
REMARK                         _______ _______ _______ _____ _____    ______ ____
ROOT
ATOM      1  C   UNL     1       3.069   6.484  18.620  0.00  0.00    +0.000 A 
ATOM      2  N   UNL     1       3.676   7.092  17.645  0.00  0.00    +0.000 NA
ATOM      3  C   UNL     1       4.442   6.324  16.760  0.00  0.00    +0.000 A 
ATOM      4  C   UNL     1       5.057   6.938  15.671  0.00  0.00    +0.000 A 
ATOM      5  C   UNL     1       5.799   6.194  14.747  0.00  0.00    +0.000 A 
ATOM      6  C   UNL     1       5.944   4.818  14.908  0.00  0.00    +0.000 A 
ATOM      7  C   UNL     1       5.359   4.195  16.004  0.00  0.00    +0.000 A 
ATOM      8  C   UNL     1       4.619   4.956  16.923  0.00  0.00    +0.000 A 
ATOM      9  C   UNL     1       3.984   4.317  18.092  0.00  0.00    +0.000 A 
ATOM     10  O   UNL     1       4.219   3.124  18.246  0.00  0.00    +0.000 OA
ATOM     11  N   UNL     1       3.164   5.121  18.874  0.00  0.00    +0.000 N 
ENDROOT
BRANCH  11  12
ATOM     12  C   UNL     1       2.381   4.419  19.827  0.00  0.00    +0.000 A 
ATOM     13  C   UNL     1       2.910   4.163  21.098  0.00  0.00    +0.000 A 
ATOM     14  C   UNL     1       2.281   3.265  21.959  0.00  0.00    +0.000 A 
ATOM     15  C   UNL     1       1.125   2.603  21.548  0.00  0.00    +0.000 A 
ATOM     16  C   UNL     1       0.578   2.869  20.292  0.00  0.00    +0.000 A 
ATOM     17  C   UNL     1       1.195   3.782  19.432  0.00  0.00    +0.000 A 
ENDBRANCH  11  12
BRANCH   1  18
ATOM     18  S   UNL     1       2.164   7.484  19.758  0.00  0.00    +0.000 S 
BRANCH  18  19
ATOM     19  C   UNL     1       1.569   8.832  18.674  0.00  0.00    +0.000 C 
BRANCH  19  21
ATOM     20  O   UNL     1       1.153  10.063  20.667  0.00  0.00    +0.000 OA
ATOM     21  C   UNL     1       0.895   9.929  19.466  0.00  0.00    +0.000 C 
BRANCH  21  22
ATOM     22  C   UNL     1      -0.058  10.846  18.835  0.00  0.00    +0.000 A 
ATOM     23  C   UNL     1      -0.140  12.166  19.263  0.00  0.00    +0.000 A 
ATOM     24  N   UNL     1      -1.054  12.784  18.461  0.00  0.00    +0.000 N 
ATOM     25  C   UNL     1      -1.941  11.804  18.090  0.00  0.00    +0.000 A 
ATOM     26  C   UNL     1      -3.323  11.832  17.927  0.00  0.00    +0.000 A 
ATOM     27  C   UNL     1      -3.899  10.689  17.380  0.00  0.00    +0.000 A 
ATOM     28  C   UNL     1      -3.096   9.658  16.886  0.00  0.00    +0.000 A 
ATOM     29  C   UNL     1      -1.711   9.632  17.131  0.00  0.00    +0.000 A 
ATOM     30  C   UNL     1      -1.159  10.663  17.916  0.00  0.00    +0.000 A 
ATOM     31  H   UNL     1      -0.767  13.504  17.812  0.00  0.00    +0.000 HD
ENDBRANCH  21  22
ENDBRANCH  19  21
ENDBRANCH  18  19
ENDBRANCH   1  18
TORSDOF 5
ENDMDL
MODEL 8
REMARK VINA RESULT:      -8.3      1.639      2.323
REMARK  Name = 
REMARK  5 active torsions:
REMARK  status: ('A' for Active; 'I' for Inactive)
REMARK    1  A    between atoms: C_2  and  C_3
REMARK    2  A    between atoms: C_2  and  C_22
REMARK    3  A    between atoms: C_3  and  S_4
REMARK    4  A    between atoms: S_4  and  C_5
REMARK    5  A    between atoms: N_15  and  C_16
REMARK                            x       y       z     vdW  Elec       q    Type
REMARK                         _______ _______ _______ _____ _____    ______ ____
ROOT
ATOM      1  C   UNL     1       3.709   5.650  18.353  0.00  0.00    +0.000 A 
ATOM      2  N   UNL     1       4.347   6.265  17.403  0.00  0.00    +0.000 NA
ATOM      3  C   UNL     1       4.950   5.493  16.403  0.00  0.00    +0.000 A 
ATOM      4  C   UNL     1       5.591   6.125  15.339  0.00  0.00    +0.000 A 
ATOM      5  C   UNL     1       6.172   5.384  14.304  0.00  0.00    +0.000 A 
ATOM      6  C   UNL     1       6.127   3.992  14.325  0.00  0.00    +0.000 A 
ATOM      7  C   UNL     1       5.515   3.347  15.393  0.00  0.00    +0.000 A 
ATOM      8  C   UNL     1       4.937   4.105  16.424  0.00  0.00    +0.000 A 
ATOM      9  C   UNL     1       4.277   3.442  17.566  0.00  0.00    +0.000 A 
ATOM     10  O   UNL     1       4.347   2.219  17.592  0.00  0.00    +0.000 OA
ATOM     11  N   UNL     1       3.620   4.268  18.471  0.00  0.00    +0.000 N 
ENDROOT
BRANCH  11  12
ATOM     12  C   UNL     1       2.793   3.586  19.401  0.00  0.00    +0.000 A 
ATOM     13  C   UNL     1       1.404   3.592  19.221  0.00  0.00    +0.000 A 
ATOM     14  C   UNL     1       0.557   3.161  20.240  0.00  0.00    +0.000 A 
ATOM     15  C   UNL     1       1.091   2.735  21.454  0.00  0.00    +0.000 A 
ATOM     16  C   UNL     1       2.474   2.705  21.636  0.00  0.00    +0.000 A 
ATOM     17  C   UNL     1       3.330   3.119  20.611  0.00  0.00    +0.000 A 
ENDBRANCH  11  12
BRANCH   1  18
ATOM     18  S   UNL     1       3.014   6.643  19.635  0.00  0.00    +0.000 S 
BRANCH  18  19
ATOM     19  C   UNL     1       2.161   7.944  18.675  0.00  0.00    +0.000 C 
BRANCH  19  21
ATOM     20  O   UNL     1       1.124   8.511  20.740  0.00  0.00    +0.000 OA
ATOM     21  C   UNL     1       1.316   8.831  19.561  0.00  0.00    +0.000 C 
BRANCH  21  22
ATOM     22  C   UNL     1       0.721  10.069  19.052  0.00  0.00    +0.000 A 
ATOM     23  C   UNL     1       1.158  11.298  19.532  0.00  0.00    +0.000 A 
ATOM     24  N   UNL     1       0.478  12.256  18.839  0.00  0.00    +0.000 N 
ATOM     25  C   UNL     1      -0.730  11.689  18.514  0.00  0.00    +0.000 A 
ATOM     26  C   UNL     1      -2.014  12.224  18.478  0.00  0.00    +0.000 A 
ATOM     27  C   UNL     1      -3.005  11.405  17.944  0.00  0.00    +0.000 A 
ATOM     28  C   UNL     1      -2.671  10.189  17.344  0.00  0.00    +0.000 A 
ATOM     29  C   UNL     1      -1.377   9.649  17.462  0.00  0.00    +0.000 A 
ATOM     30  C   UNL     1      -0.433  10.356  18.230  0.00  0.00    +0.000 A 
ATOM     31  H   UNL     1       0.961  12.865  18.192  0.00  0.00    +0.000 HD
ENDBRANCH  21  22
ENDBRANCH  19  21
ENDBRANCH  18  19
ENDBRANCH   1  18
TORSDOF 5
ENDMDL
MODEL 9
REMARK VINA RESULT:      -8.3      1.811      2.393
REMARK  Name = 
REMARK  5 active torsions:
REMARK  status: ('A' for Active; 'I' for Inactive)
REMARK    1  A    between atoms: C_2  and  C_3
REMARK    2  A    between atoms: C_2  and  C_22
REMARK    3  A    between atoms: C_3  and  S_4
REMARK    4  A    between atoms: S_4  and  C_5
REMARK    5  A    between atoms: N_15  and  C_16
REMARK                            x       y       z     vdW  Elec       q    Type
REMARK                         _______ _______ _______ _____ _____    ______ ____
ROOT
ATOM      1  C   UNL     1       3.359   6.197  18.261  0.00  0.00    +0.000 A 
ATOM      2  N   UNL     1       4.043   6.695  17.274  0.00  0.00    +0.000 NA
ATOM      3  C   UNL     1       4.778   5.817  16.468  0.00  0.00    +0.000 A 
ATOM      4  C   UNL     1       5.473   6.313  15.368  0.00  0.00    +0.000 A 
ATOM      5  C   UNL     1       6.187   5.459  14.520  0.00  0.00    +0.000 A 
ATOM      6  C   UNL     1       6.222   4.089  14.771  0.00  0.00    +0.000 A 
ATOM      7  C   UNL     1       5.556   3.582  15.880  0.00  0.00    +0.000 A 
ATOM      8  C   UNL     1       4.845   4.453  16.722  0.00  0.00    +0.000 A 
ATOM      9  C   UNL     1       4.125   3.939  17.902  0.00  0.00    +0.000 A 
ATOM     10  O   UNL     1       4.264   2.744  18.139  0.00  0.00    +0.000 OA
ATOM     11  N   UNL     1       3.342   4.850  18.602  0.00  0.00    +0.000 N 
ENDROOT
BRANCH  11  12
ATOM     12  C   UNL     1       2.477   4.270  19.566  0.00  0.00    +0.000 A 
ATOM     13  C   UNL     1       2.917   4.125  20.887  0.00  0.00    +0.000 A 
ATOM     14  C   UNL     1       2.204   3.336  21.788  0.00  0.00    +0.000 A 
ATOM     15  C   UNL     1       1.053   2.672  21.370  0.00  0.00    +0.000 A 
ATOM     16  C   UNL     1       0.593   2.828  20.062  0.00  0.00    +0.000 A 
ATOM     17  C   UNL     1       1.295   3.633  19.159  0.00  0.00    +0.000 A 
ENDBRANCH  11  12
BRANCH   1  18
ATOM     18  S   UNL     1       2.495   7.332  19.300  0.00  0.00    +0.000 S 
BRANCH  18  19
ATOM     19  C   UNL     1       2.156   8.707  18.144  0.00  0.00    +0.000 C 
BRANCH  19  21
ATOM     20  O   UNL     1       0.468   9.451  19.647  0.00  0.00    +0.000 OA
ATOM     21  C   UNL     1       1.288   9.770  18.779  0.00  0.00    +0.000 C 
BRANCH  21  22
ATOM     22  C   UNL     1       1.402  11.177  18.388  0.00  0.00    +0.000 A 
ATOM     23  C   UNL     1       2.597  11.658  17.864  0.00  0.00    +0.000 A 
ATOM     24  N   UNL     1       2.386  12.966  17.539  0.00  0.00    +0.000 N 
ATOM     25  C   UNL     1       1.436  13.417  18.422  0.00  0.00    +0.000 A 
ATOM     26  C   UNL     1       1.299  14.637  19.078  0.00  0.00    +0.000 A 
ATOM     27  C   UNL     1       0.118  14.821  19.790  0.00  0.00    +0.000 A 
ATOM     28  C   UNL     1      -0.916  13.886  19.701  0.00  0.00    +0.000 A 
ATOM     29  C   UNL     1      -0.717  12.636  19.089  0.00  0.00    +0.000 A 
ATOM     30  C   UNL     1       0.567  12.340  18.592  0.00  0.00    +0.000 A 
ATOM     31  H   UNL     1       2.385  13.264  16.573  0.00  0.00    +0.000 HD
ENDBRANCH  21  22
ENDBRANCH  19  21
ENDBRANCH  18  19
ENDBRANCH   1  18
TORSDOF 5
ENDMDL
