MODEL 1
REMARK VINA RESULT:      -8.0      0.000      0.000
REMARK  Name = 
REMARK  10 active torsions:
REMARK  status: ('A' for Active; 'I' for Inactive)
REMARK    1  A    between atoms: C_1  and  C_2
REMARK    2  A    between atoms: C_2  and  C_3
REMARK    3  A    between atoms: C_7  and  C_8
REMARK    4  A    between atoms: C_11  and  C_12
REMARK    5  A    between atoms: N_14  and  C_15
REMARK    6  A    between atoms: C_15  and  C_16
REMARK    7  A    between atoms: N_20  and  C_21
REMARK    8  A    between atoms: C_21  and  C_22
REMARK    9  A    between atoms: C_26  and  C_27
REMARK   10  A    between atoms: C_28  and  C_29
REMARK                            x       y       z     vdW  Elec       q    Type
REMARK                         _______ _______ _______ _____ _____    ______ ____
ROOT
ATOM      1  C   UNL     1      -3.347  13.689  21.951  0.00  0.00    +0.000 A 
ATOM      2  N   UNL     1      -3.072  14.141  23.197  0.00  0.00    +0.000 NA
ATOM      3  C   UNL     1      -1.984  13.638  23.791  0.00  0.00    +0.000 A 
ATOM      4  N   UNL     1      -1.138  12.752  23.256  0.00  0.00    +0.000 NA
ATOM      5  C   UNL     1      -1.418  12.315  21.999  0.00  0.00    +0.000 A 
ATOM      6  C   UNL     1      -2.549  12.750  21.303  0.00  0.00    +0.000 A 
ENDROOT
BRANCH   5   7
ATOM      7  C   UNL     1      -0.465  11.291  21.502  0.00  0.00    +0.000 A 
ATOM      8  C   UNL     1       0.592  11.600  20.628  0.00  0.00    +0.000 A 
ATOM      9  C   UNL     1       1.340  10.598  20.002  0.00  0.00    +0.000 A 
ATOM     10  C   UNL     1       1.100   9.253  20.296  0.00  0.00    +0.000 A 
ATOM     11  C   UNL     1       0.156   8.946  21.274  0.00  0.00    +0.000 A 
ATOM     12  F   UNL     1      -0.065   7.677  21.652  0.00  0.00    +0.000 F 
ATOM     13  C   UNL     1      -0.619   9.942  21.866  0.00  0.00    +0.000 A 
BRANCH  10  14
ATOM     14  C   UNL     1       1.830   8.219  19.516  0.00  0.00    +0.000 C 
ATOM     15  O   UNL     1       1.975   8.355  18.306  0.00  0.00    +0.000 OA
ATOM     16  N   UNL     1       2.290   7.127  20.212  0.00  0.00    +0.000 N 
ATOM     17  H   UNL     1       2.200   7.106  21.222  0.00  0.00    +0.000 HD
BRANCH  16  18
ATOM     18  C   UNL     1       3.052   6.068  19.581  0.00  0.00    +0.000 C 
BRANCH  18  19
ATOM     19  C   UNL     1       2.212   4.784  19.373  0.00  0.00    +0.000 C 
ATOM     20  C   UNL     1       1.850   4.544  17.910  0.00  0.00    +0.000 C 
ATOM     21  C   UNL     1       3.102   3.911  17.337  0.00  0.00    +0.000 C 
ATOM     22  C   UNL     1       3.759   3.211  18.522  0.00  0.00    +0.000 C 
ATOM     23  N   UNL     1       3.012   3.592  19.740  0.00  0.00    +0.000 NA
BRANCH  23  24
ATOM     24  C   UNL     1       2.193   2.464  20.214  0.00  0.00    +0.000 C 
ATOM     25  C   UNL     1       1.520   2.714  21.560  0.00  0.00    +0.000 C 
ENDBRANCH  23  24
ENDBRANCH  18  19
ENDBRANCH  16  18
ENDBRANCH  10  14
ENDBRANCH   5   7
BRANCH   1  27
ATOM     26  C   UNL     1      -4.257  15.799  20.991  0.00  0.00    +0.000 C 
ATOM     27  C   UNL     1      -4.539  14.333  21.285  0.00  0.00    +0.000 C 
ENDBRANCH   1  27
BRANCH   6  28
ATOM     28  C   UNL     1      -2.901  12.242  20.004  0.00  0.00    +0.000 C 
ATOM     29  C   UNL     1      -3.120  11.803  18.908  0.00  0.00    +0.000 C 
BRANCH  29  30
ATOM     30  C   UNL     1      -3.265  11.270  17.587  0.00  0.00    +0.000 A 
ATOM     31  C   UNL     1      -2.370  10.325  17.095  0.00  0.00    +0.000 A 
ATOM     32  C   UNL     1      -2.531   9.844  15.795  0.00  0.00    +0.000 A 
ATOM     33  C   UNL     1      -3.571  10.336  15.018  0.00  0.00    +0.000 A 
ATOM     34  N   UNL     1      -3.789   9.847  13.735  0.00  0.00    +0.000 N 
ATOM     35  N   UNL     1      -4.444  11.254  15.469  0.00  0.00    +0.000 NA
ATOM     36  C   UNL     1      -4.272  11.702  16.738  0.00  0.00    +0.000 A 
ATOM     37  H   UNL     1      -2.953   9.887  13.163  0.00  0.00    +0.000 HD
ATOM     38  H   UNL     1      -4.554  10.383  13.333  0.00  0.00    +0.000 HD
ENDBRANCH  29  30
ENDBRANCH   6  28
TORSDOF 8
ENDMDL
MODEL 2
REMARK VINA RESULT:      -7.9      0.901      1.134
REMARK  Name = 
REMARK  10 active torsions:
REMARK  status: ('A' for Active; 'I' for Inactive)
REMARK    1  A    between atoms: C_1  and  C_2
REMARK    2  A    between atoms: C_2  and  C_3
REMARK    3  A    between atoms: C_7  and  C_8
REMARK    4  A    between atoms: C_11  and  C_12
REMARK    5  A    between atoms: N_14  and  C_15
REMARK    6  A    between atoms: C_15  and  C_16
REMARK    7  A    between atoms: N_20  and  C_21
REMARK    8  A    between atoms: C_21  and  C_22
REMARK    9  A    between atoms: C_26  and  C_27
REMARK   10  A    between atoms: C_28  and  C_29
REMARK                            x       y       z     vdW  Elec       q    Type
REMARK                         _______ _______ _______ _____ _____    ______ ____
ROOT
ATOM      1  C   UNL     1      -3.042  13.389  21.787  0.00  0.00    +0.000 A 
ATOM      2  N   UNL     1      -2.705  13.819  23.026  0.00  0.00    +0.000 NA
ATOM      3  C   UNL     1      -1.566  13.341  23.538  0.00  0.00    +0.000 A 
ATOM      4  N   UNL     1      -0.724  12.501  22.927  0.00  0.00    +0.000 NA
ATOM      5  C   UNL     1      -1.067  12.086  21.679  0.00  0.00    +0.000 A 
ATOM      6  C   UNL     1      -2.254  12.496  21.066  0.00  0.00    +0.000 A 
ENDROOT
BRANCH   5   7
ATOM      7  C   UNL     1      -0.112  11.110  21.097  0.00  0.00    +0.000 A 
ATOM      8  C   UNL     1       0.657  11.391  19.953  0.00  0.00    +0.000 A 
ATOM      9  C   UNL     1       1.382  10.393  19.296  0.00  0.00    +0.000 A 
ATOM     10  C   UNL     1       1.420   9.095  19.812  0.00  0.00    +0.000 A 
ATOM     11  C   UNL     1       0.784   8.844  21.027  0.00  0.00    +0.000 A 
ATOM     12  F   UNL     1       0.849   7.637  21.609  0.00  0.00    +0.000 F 
ATOM     13  C   UNL     1       0.026   9.829  21.659  0.00  0.00    +0.000 A 
BRANCH  10  14
ATOM     14  C   UNL     1       2.098   8.038  19.016  0.00  0.00    +0.000 C 
ATOM     15  O   UNL     1       1.919   7.977  17.805  0.00  0.00    +0.000 OA
ATOM     16  N   UNL     1       2.886   7.150  19.707  0.00  0.00    +0.000 N 
ATOM     17  H   UNL     1       3.050   7.295  20.697  0.00  0.00    +0.000 HD
BRANCH  16  18
ATOM     18  C   UNL     1       3.634   6.098  19.047  0.00  0.00    +0.000 C 
BRANCH  18  19
ATOM     19  C   UNL     1       3.161   4.687  19.470  0.00  0.00    +0.000 C 
ATOM     20  C   UNL     1       1.683   4.445  19.173  0.00  0.00    +0.000 C 
ATOM     21  C   UNL     1       1.673   4.091  17.699  0.00  0.00    +0.000 C 
ATOM     22  C   UNL     1       3.047   3.481  17.439  0.00  0.00    +0.000 C 
ATOM     23  N   UNL     1       3.857   3.657  18.663  0.00  0.00    +0.000 NA
BRANCH  23  24
ATOM     24  C   UNL     1       4.012   2.372  19.365  0.00  0.00    +0.000 C 
ATOM     25  C   UNL     1       3.595   1.162  18.535  0.00  0.00    +0.000 C 
ENDBRANCH  23  24
ENDBRANCH  18  19
ENDBRANCH  16  18
ENDBRANCH  10  14
ENDBRANCH   5   7
BRANCH   1  27
ATOM     26  C   UNL     1      -5.528  13.270  21.717  0.00  0.00    +0.000 C 
ATOM     27  C   UNL     1      -4.295  14.005  21.214  0.00  0.00    +0.000 C 
ENDBRANCH   1  27
BRANCH   6  28
ATOM     28  C   UNL     1      -2.668  12.009  19.778  0.00  0.00    +0.000 C 
ATOM     29  C   UNL     1      -2.940  11.599  18.682  0.00  0.00    +0.000 C 
BRANCH  29  30
ATOM     30  C   UNL     1      -3.150  11.119  17.350  0.00  0.00    +0.000 A 
ATOM     31  C   UNL     1      -2.275  10.204  16.773  0.00  0.00    +0.000 A 
ATOM     32  C   UNL     1      -2.500   9.776  15.464  0.00  0.00    +0.000 A 
ATOM     33  C   UNL     1      -3.583  10.290  14.763  0.00  0.00    +0.000 A 
ATOM     34  N   UNL     1      -3.863   9.852  13.473  0.00  0.00    +0.000 N 
ATOM     35  N   UNL     1      -4.437  11.180  15.296  0.00  0.00    +0.000 NA
ATOM     36  C   UNL     1      -4.203  11.577  16.573  0.00  0.00    +0.000 A 
ATOM     37  H   UNL     1      -3.059   9.923  12.861  0.00  0.00    +0.000 HD
ATOM     38  H   UNL     1      -4.652  10.397  13.135  0.00  0.00    +0.000 HD
ENDBRANCH  29  30
ENDBRANCH   6  28
TORSDOF 8
ENDMDL
MODEL 3
REMARK VINA RESULT:      -7.6      5.303      9.661
REMARK  Name = 
REMARK  10 active torsions:
REMARK  status: ('A' for Active; 'I' for Inactive)
REMARK    1  A    between atoms: C_1  and  C_2
REMARK    2  A    between atoms: C_2  and  C_3
REMARK    3  A    between atoms: C_7  and  C_8
REMARK    4  A    between atoms: C_11  and  C_12
REMARK    5  A    between atoms: N_14  and  C_15
REMARK    6  A    between atoms: C_15  and  C_16
REMARK    7  A    between atoms: N_20  and  C_21
REMARK    8  A    between atoms: C_21  and  C_22
REMARK    9  A    between atoms: C_26  and  C_27
REMARK   10  A    between atoms: C_28  and  C_29
REMARK                            x       y       z     vdW  Elec       q    Type
REMARK                         _______ _______ _______ _____ _____    ______ ____
ROOT
ATOM      1  C   UNL     1       2.605   3.323  20.326  0.00  0.00    +0.000 A 
ATOM      2  N   UNL     1       3.099   2.080  20.531  0.00  0.00    +0.000 NA
ATOM      3  C   UNL     1       4.380   1.881  20.199  0.00  0.00    +0.000 A 
ATOM      4  N   UNL     1       5.214   2.804  19.708  0.00  0.00    +0.000 NA
ATOM      5  C   UNL     1       4.708   4.051  19.518  0.00  0.00    +0.000 A 
ATOM      6  C   UNL     1       3.374   4.357  19.799  0.00  0.00    +0.000 A 
ENDROOT
BRANCH   5   7
ATOM      7  C   UNL     1       5.680   4.998  18.916  0.00  0.00    +0.000 A 
ATOM      8  C   UNL     1       6.936   5.264  19.490  0.00  0.00    +0.000 A 
ATOM      9  C   UNL     1       7.742   6.312  19.035  0.00  0.00    +0.000 A 
ATOM     10  C   UNL     1       7.345   7.077  17.935  0.00  0.00    +0.000 A 
ATOM     11  C   UNL     1       6.174   6.723  17.267  0.00  0.00    +0.000 A 
ATOM     12  F   UNL     1       5.782   7.374  16.160  0.00  0.00    +0.000 F 
ATOM     13  C   UNL     1       5.351   5.707  17.748  0.00  0.00    +0.000 A 
BRANCH  10  14
ATOM     14  C   UNL     1       8.169   8.257  17.563  0.00  0.00    +0.000 C 
ATOM     15  O   UNL     1       8.767   8.273  16.493  0.00  0.00    +0.000 OA
ATOM     16  N   UNL     1       8.237   9.281  18.478  0.00  0.00    +0.000 N 
ATOM     17  H   UNL     1       7.664   9.239  19.313  0.00  0.00    +0.000 HD
BRANCH  16  18
ATOM     18  C   UNL     1       8.971  10.504  18.223  0.00  0.00    +0.000 C 
BRANCH  18  19
ATOM     19  C   UNL     1       9.779  10.971  19.457  0.00  0.00    +0.000 C 
ATOM     20  C   UNL     1      11.198  11.408  19.104  0.00  0.00    +0.000 C 
ATOM     21  C   UNL     1      11.015  12.823  18.592  0.00  0.00    +0.000 C 
ATOM     22  C   UNL     1       9.763  13.331  19.300  0.00  0.00    +0.000 C 
ATOM     23  N   UNL     1       9.166  12.192  20.030  0.00  0.00    +0.000 NA
BRANCH  23  24
ATOM     24  C   UNL     1       9.392  12.335  21.478  0.00  0.00    +0.000 C 
ATOM     25  C   UNL     1       9.589  13.779  21.932  0.00  0.00    +0.000 C 
ENDBRANCH  23  24
ENDBRANCH  18  19
ENDBRANCH  16  18
ENDBRANCH  10  14
ENDBRANCH   5   7
BRANCH   1  27
ATOM     26  C   UNL     1       0.207   3.131  19.680  0.00  0.00    +0.000 C 
ATOM     27  C   UNL     1       1.180   3.528  20.781  0.00  0.00    +0.000 C 
ENDBRANCH   1  27
BRANCH   6  28
ATOM     28  C   UNL     1       2.804   5.650  19.534  0.00  0.00    +0.000 C 
ATOM     29  C   UNL     1       2.397   6.761  19.327  0.00  0.00    +0.000 C 
BRANCH  29  30
ATOM     30  C   UNL     1       2.018   8.125  19.111  0.00  0.00    +0.000 A 
ATOM     31  C   UNL     1       1.320   8.835  20.082  0.00  0.00    +0.000 A 
ATOM     32  C   UNL     1       0.948  10.156  19.827  0.00  0.00    +0.000 A 
ATOM     33  C   UNL     1       1.271  10.722  18.601  0.00  0.00    +0.000 A 
ATOM     34  N   UNL     1       0.956  12.050  18.330  0.00  0.00    +0.000 N 
ATOM     35  N   UNL     1       1.939  10.054  17.645  0.00  0.00    +0.000 NA
ATOM     36  C   UNL     1       2.295   8.773  17.917  0.00  0.00    +0.000 A 
ATOM     37  H   UNL     1      -0.021  12.254  18.498  0.00  0.00    +0.000 HD
ATOM     38  H   UNL     1       1.227  12.233  17.367  0.00  0.00    +0.000 HD
ENDBRANCH  29  30
ENDBRANCH   6  28
TORSDOF 8
ENDMDL
MODEL 4
REMARK VINA RESULT:      -7.6      3.605     10.083
REMARK  Name = 
REMARK  10 active torsions:
REMARK  status: ('A' for Active; 'I' for Inactive)
REMARK    1  A    between atoms: C_1  and  C_2
REMARK    2  A    between atoms: C_2  and  C_3
REMARK    3  A    between atoms: C_7  and  C_8
REMARK    4  A    between atoms: C_11  and  C_12
REMARK    5  A    between atoms: N_14  and  C_15
REMARK    6  A    between atoms: C_15  and  C_16
REMARK    7  A    between atoms: N_20  and  C_21
REMARK    8  A    between atoms: C_21  and  C_22
REMARK    9  A    between atoms: C_26  and  C_27
REMARK   10  A    between atoms: C_28  and  C_29
REMARK                            x       y       z     vdW  Elec       q    Type
REMARK                         _______ _______ _______ _____ _____    ______ ____
ROOT
ATOM      1  C   UNL     1       3.587   2.838  20.200  0.00  0.00    +0.000 A 
ATOM      2  N   UNL     1       2.932   2.488  21.332  0.00  0.00    +0.000 NA
ATOM      3  C   UNL     1       2.066   3.381  21.825  0.00  0.00    +0.000 A 
ATOM      4  N   UNL     1       1.775   4.569  21.286  0.00  0.00    +0.000 NA
ATOM      5  C   UNL     1       2.430   4.903  20.142  0.00  0.00    +0.000 A 
ATOM      6  C   UNL     1       3.382   4.058  19.564  0.00  0.00    +0.000 A 
ENDROOT
BRANCH   5   7
ATOM      7  C   UNL     1       2.095   6.260  19.643  0.00  0.00    +0.000 A 
ATOM      8  C   UNL     1       2.264   6.638  18.299  0.00  0.00    +0.000 A 
ATOM      9  C   UNL     1       2.152   7.972  17.894  0.00  0.00    +0.000 A 
ATOM     10  C   UNL     1       1.788   8.958  18.815  0.00  0.00    +0.000 A 
ATOM     11  C   UNL     1       1.472   8.569  20.115  0.00  0.00    +0.000 A 
ATOM     12  F   UNL     1       1.044   9.461  21.022  0.00  0.00    +0.000 F 
ATOM     13  C   UNL     1       1.626   7.247  20.528  0.00  0.00    +0.000 A 
BRANCH  10  14
ATOM     14  C   UNL     1       1.803  10.377  18.371  0.00  0.00    +0.000 C 
ATOM     15  O   UNL     1       2.615  10.746  17.529  0.00  0.00    +0.000 OA
ATOM     16  N   UNL     1       0.898  11.223  18.965  0.00  0.00    +0.000 N 
ATOM     17  H   UNL     1       0.207  10.843  19.603  0.00  0.00    +0.000 HD
BRANCH  16  18
ATOM     18  C   UNL     1       0.780  12.620  18.595  0.00  0.00    +0.000 C 
BRANCH  18  19
ATOM     19  C   UNL     1       1.089  13.568  19.779  0.00  0.00    +0.000 C 
ATOM     20  C   UNL     1       2.542  13.486  20.238  0.00  0.00    +0.000 C 
ATOM     21  C   UNL     1       3.277  14.362  19.243  0.00  0.00    +0.000 C 
ATOM     22  C   UNL     1       2.239  15.380  18.783  0.00  0.00    +0.000 C 
ATOM     23  N   UNL     1       0.933  14.978  19.350  0.00  0.00    +0.000 NA
BRANCH  23  24
ATOM     24  C   UNL     1       0.549  15.882  20.447  0.00  0.00    +0.000 C 
ATOM     25  C   UNL     1      -0.339  15.230  21.502  0.00  0.00    +0.000 C 
ENDBRANCH  23  24
ENDBRANCH  18  19
ENDBRANCH  16  18
ENDBRANCH  10  14
ENDBRANCH   5   7
BRANCH   1  27
ATOM     26  C   UNL     1       3.846   1.088  18.447  0.00  0.00    +0.000 C 
ATOM     27  C   UNL     1       4.500   1.777  19.636  0.00  0.00    +0.000 C 
ENDBRANCH   1  27
BRANCH   6  28
ATOM     28  C   UNL     1       4.138   4.428  18.398  0.00  0.00    +0.000 C 
ATOM     29  C   UNL     1       4.790   4.663  17.418  0.00  0.00    +0.000 C 
BRANCH  29  30
ATOM     30  C   UNL     1       5.603   4.832  16.251  0.00  0.00    +0.000 A 
ATOM     31  C   UNL     1       5.241   4.254  15.038  0.00  0.00    +0.000 A 
ATOM     32  C   UNL     1       6.070   4.422  13.928  0.00  0.00    +0.000 A 
ATOM     33  C   UNL     1       7.246   5.147  14.068  0.00  0.00    +0.000 A 
ATOM     34  N   UNL     1       8.073   5.372  12.973  0.00  0.00    +0.000 N 
ATOM     35  N   UNL     1       7.620   5.708  15.231  0.00  0.00    +0.000 NA
ATOM     36  C   UNL     1       6.795   5.538  16.295  0.00  0.00    +0.000 A 
ATOM     37  H   UNL     1       8.315   4.514  12.492  0.00  0.00    +0.000 HD
ATOM     38  H   UNL     1       8.894   5.867  13.312  0.00  0.00    +0.000 HD
ENDBRANCH  29  30
ENDBRANCH   6  28
TORSDOF 8
ENDMDL
MODEL 5
REMARK VINA RESULT:      -7.6      3.437      9.973
REMARK  Name = 
REMARK  10 active torsions:
REMARK  status: ('A' for Active; 'I' for Inactive)
REMARK    1  A    between atoms: C_1  and  C_2
REMARK    2  A    between atoms: C_2  and  C_3
REMARK    3  A    between atoms: C_7  and  C_8
REMARK    4  A    between atoms: C_11  and  C_12
REMARK    5  A    between atoms: N_14  and  C_15
REMARK    6  A    between atoms: C_15  and  C_16
REMARK    7  A    between atoms: N_20  and  C_21
REMARK    8  A    between atoms: C_21  and  C_22
REMARK    9  A    between atoms: C_26  and  C_27
REMARK   10  A    between atoms: C_28  and  C_29
REMARK                            x       y       z     vdW  Elec       q    Type
REMARK                         _______ _______ _______ _____ _____    ______ ____
ROOT
ATOM      1  C   UNL     1       3.283   2.663  20.218  0.00  0.00    +0.000 A 
ATOM      2  N   UNL     1       2.478   2.291  21.241  0.00  0.00    +0.000 NA
ATOM      3  C   UNL     1       1.665   3.231  21.736  0.00  0.00    +0.000 A 
ATOM      4  N   UNL     1       1.561   4.489  21.295  0.00  0.00    +0.000 NA
ATOM      5  C   UNL     1       2.366   4.846  20.260  0.00  0.00    +0.000 A 
ATOM      6  C   UNL     1       3.278   3.952  19.692  0.00  0.00    +0.000 A 
ENDROOT
BRANCH   5   7
ATOM      7  C   UNL     1       2.232   6.272  19.871  0.00  0.00    +0.000 A 
ATOM      8  C   UNL     1       1.734   7.254  20.747  0.00  0.00    +0.000 A 
ATOM      9  C   UNL     1       1.411   8.538  20.298  0.00  0.00    +0.000 A 
ATOM     10  C   UNL     1       1.653   8.901  18.971  0.00  0.00    +0.000 A 
ATOM     11  C   UNL     1       2.285   7.982  18.136  0.00  0.00    +0.000 A 
ATOM     12  F   UNL     1       2.611   8.301  16.873  0.00  0.00    +0.000 F 
ATOM     13  C   UNL     1       2.567   6.689  18.571  0.00  0.00    +0.000 A 
BRANCH  10  14
ATOM     14  C   UNL     1       1.180  10.232  18.506  0.00  0.00    +0.000 C 
ATOM     15  O   UNL     1       0.045  10.356  18.059  0.00  0.00    +0.000 OA
ATOM     16  N   UNL     1       2.076  11.271  18.583  0.00  0.00    +0.000 N 
ATOM     17  H   UNL     1       2.975  11.120  19.027  0.00  0.00    +0.000 HD
BRANCH  16  18
ATOM     18  C   UNL     1       1.730  12.626  18.201  0.00  0.00    +0.000 C 
BRANCH  18  19
ATOM     19  C   UNL     1       1.568  13.557  19.427  0.00  0.00    +0.000 C 
ATOM     20  C   UNL     1       1.283  15.005  19.036  0.00  0.00    +0.000 C 
ATOM     21  C   UNL     1      -0.204  15.004  18.742  0.00  0.00    +0.000 C 
ATOM     22  C   UNL     1      -0.768  13.879  19.604  0.00  0.00    +0.000 C 
ATOM     23  N   UNL     1       0.374  13.160  20.208  0.00  0.00    +0.000 NA
BRANCH  23  24
ATOM     24  C   UNL     1       0.482  13.480  21.642  0.00  0.00    +0.000 C 
ATOM     25  C   UNL     1      -0.746  13.082  22.456  0.00  0.00    +0.000 C 
ENDBRANCH  23  24
ENDBRANCH  18  19
ENDBRANCH  16  18
ENDBRANCH  10  14
ENDBRANCH   5   7
BRANCH   1  27
ATOM     26  C   UNL     1       3.644   1.183  18.248  0.00  0.00    +0.000 C 
ATOM     27  C   UNL     1       4.133   1.558  19.639  0.00  0.00    +0.000 C 
ENDBRANCH   1  27
BRANCH   6  28
ATOM     28  C   UNL     1       4.189   4.335  18.648  0.00  0.00    +0.000 C 
ATOM     29  C   UNL     1       4.911   4.607  17.728  0.00  0.00    +0.000 C 
BRANCH  29  30
ATOM     30  C   UNL     1       5.716   4.850  16.569  0.00  0.00    +0.000 A 
ATOM     31  C   UNL     1       5.466   4.185  15.372  0.00  0.00    +0.000 A 
ATOM     32  C   UNL     1       6.286   4.432  14.270  0.00  0.00    +0.000 A 
ATOM     33  C   UNL     1       7.343   5.322  14.402  0.00  0.00    +0.000 A 
ATOM     34  N   UNL     1       8.152   5.626  13.312  0.00  0.00    +0.000 N 
ATOM     35  N   UNL     1       7.609   5.971  15.549  0.00  0.00    +0.000 NA
ATOM     36  C   UNL     1       6.795   5.720  16.606  0.00  0.00    +0.000 A 
ATOM     37  H   UNL     1       8.524   4.795  12.868  0.00  0.00    +0.000 HD
ATOM     38  H   UNL     1       8.888   6.244  13.646  0.00  0.00    +0.000 HD
ENDBRANCH  29  30
ENDBRANCH   6  28
TORSDOF 8
ENDMDL
MODEL 6
REMARK VINA RESULT:      -7.6      3.268     10.034
REMARK  Name = 
REMARK  10 active torsions:
REMARK  status: ('A' for Active; 'I' for Inactive)
REMARK    1  A    between atoms: C_1  and  C_2
REMARK    2  A    between atoms: C_2  and  C_3
REMARK    3  A    between atoms: C_7  and  C_8
REMARK    4  A    between atoms: C_11  and  C_12
REMARK    5  A    between atoms: N_14  and  C_15
REMARK    6  A    between atoms: C_15  and  C_16
REMARK    7  A    between atoms: N_20  and  C_21
REMARK    8  A    between atoms: C_21  and  C_22
REMARK    9  A    between atoms: C_26  and  C_27
REMARK   10  A    between atoms: C_28  and  C_29
REMARK                            x       y       z     vdW  Elec       q    Type
REMARK                         _______ _______ _______ _____ _____    ______ ____
ROOT
ATOM      1  C   UNL     1       3.513   2.883  20.183  0.00  0.00    +0.000 A 
ATOM      2  N   UNL     1       2.857   2.539  21.316  0.00  0.00    +0.000 NA
ATOM      3  C   UNL     1       1.996   3.437  21.807  0.00  0.00    +0.000 A 
ATOM      4  N   UNL     1       1.711   4.626  21.266  0.00  0.00    +0.000 NA
ATOM      5  C   UNL     1       2.368   4.954  20.122  0.00  0.00    +0.000 A 
ATOM      6  C   UNL     1       3.314   4.103  19.545  0.00  0.00    +0.000 A 
ENDROOT
BRANCH   5   7
ATOM      7  C   UNL     1       2.039   6.312  19.620  0.00  0.00    +0.000 A 
ATOM      8  C   UNL     1       2.181   6.677  18.269  0.00  0.00    +0.000 A 
ATOM      9  C   UNL     1       2.077   8.009  17.857  0.00  0.00    +0.000 A 
ATOM     10  C   UNL     1       1.751   9.008  18.778  0.00  0.00    +0.000 A 
ATOM     11  C   UNL     1       1.461   8.633  20.089  0.00  0.00    +0.000 A 
ATOM     12  F   UNL     1       1.069   9.538  20.999  0.00  0.00    +0.000 F 
ATOM     13  C   UNL     1       1.606   7.312  20.508  0.00  0.00    +0.000 A 
BRANCH  10  14
ATOM     14  C   UNL     1       1.775  10.423  18.322  0.00  0.00    +0.000 C 
ATOM     15  O   UNL     1       2.695  10.823  17.618  0.00  0.00    +0.000 OA
ATOM     16  N   UNL     1       0.749  11.230  18.751  0.00  0.00    +0.000 N 
ATOM     17  H   UNL     1      -0.019  10.824  19.274  0.00  0.00    +0.000 HD
BRANCH  16  18
ATOM     18  C   UNL     1       0.631  12.618  18.347  0.00  0.00    +0.000 C 
BRANCH  18  19
ATOM     19  C   UNL     1       1.024  13.594  19.482  0.00  0.00    +0.000 C 
ATOM     20  C   UNL     1       1.422  14.974  18.963  0.00  0.00    +0.000 C 
ATOM     21  C   UNL     1       0.092  15.660  18.728  0.00  0.00    +0.000 C 
ATOM     22  C   UNL     1      -0.864  14.999  19.716  0.00  0.00    +0.000 C 
ATOM     23  N   UNL     1      -0.150  13.866  20.343  0.00  0.00    +0.000 NA
BRANCH  23  24
ATOM     24  C   UNL     1       0.209  14.193  21.734  0.00  0.00    +0.000 C 
ATOM     25  C   UNL     1      -0.738  13.597  22.771  0.00  0.00    +0.000 C 
ENDBRANCH  23  24
ENDBRANCH  18  19
ENDBRANCH  16  18
ENDBRANCH  10  14
ENDBRANCH   5   7
BRANCH   1  27
ATOM     26  C   UNL     1       3.764   1.132  18.429  0.00  0.00    +0.000 C 
ATOM     27  C   UNL     1       4.420   1.815  19.620  0.00  0.00    +0.000 C 
ENDBRANCH   1  27
BRANCH   6  28
ATOM     28  C   UNL     1       4.071   4.466  18.378  0.00  0.00    +0.000 C 
ATOM     29  C   UNL     1       4.742   4.703  17.410  0.00  0.00    +0.000 C 
BRANCH  29  30
ATOM     30  C   UNL     1       5.601   4.888  16.279  0.00  0.00    +0.000 A 
ATOM     31  C   UNL     1       5.309   4.295  15.055  0.00  0.00    +0.000 A 
ATOM     32  C   UNL     1       6.181   4.479  13.981  0.00  0.00    +0.000 A 
ATOM     33  C   UNL     1       7.330   5.236  14.169  0.00  0.00    +0.000 A 
ATOM     34  N   UNL     1       8.199   5.478  13.110  0.00  0.00    +0.000 N 
ATOM     35  N   UNL     1       7.637   5.813  15.343  0.00  0.00    +0.000 NA
ATOM     36  C   UNL     1       6.771   5.625  16.371  0.00  0.00    +0.000 A 
ATOM     37  H   UNL     1       8.484   4.624  12.646  0.00  0.00    +0.000 HD
ATOM     38  H   UNL     1       8.991   5.995  13.482  0.00  0.00    +0.000 HD
ENDBRANCH  29  30
ENDBRANCH   6  28
TORSDOF 8
ENDMDL
MODEL 7
REMARK VINA RESULT:      -7.6      4.343     10.104
REMARK  Name = 
REMARK  10 active torsions:
REMARK  status: ('A' for Active; 'I' for Inactive)
REMARK    1  A    between atoms: C_1  and  C_2
REMARK    2  A    between atoms: C_2  and  C_3
REMARK    3  A    between atoms: C_7  and  C_8
REMARK    4  A    between atoms: C_11  and  C_12
REMARK    5  A    between atoms: N_14  and  C_15
REMARK    6  A    between atoms: C_15  and  C_16
REMARK    7  A    between atoms: N_20  and  C_21
REMARK    8  A    between atoms: C_21  and  C_22
REMARK    9  A    between atoms: C_26  and  C_27
REMARK   10  A    between atoms: C_28  and  C_29
REMARK                            x       y       z     vdW  Elec       q    Type
REMARK                         _______ _______ _______ _____ _____    ______ ____
ROOT
ATOM      1  C   UNL     1       3.092   2.754  20.017  0.00  0.00    +0.000 A 
ATOM      2  N   UNL     1       2.289   2.369  21.036  0.00  0.00    +0.000 NA
ATOM      3  C   UNL     1       1.514   3.315  21.579  0.00  0.00    +0.000 A 
ATOM      4  N   UNL     1       1.446   4.592  21.189  0.00  0.00    +0.000 NA
ATOM      5  C   UNL     1       2.249   4.962  20.156  0.00  0.00    +0.000 A 
ATOM      6  C   UNL     1       3.123   4.062  19.541  0.00  0.00    +0.000 A 
ENDROOT
BRANCH   5   7
ATOM      7  C   UNL     1       2.157   6.407  19.825  0.00  0.00    +0.000 A 
ATOM      8  C   UNL     1       1.716   7.371  20.749  0.00  0.00    +0.000 A 
ATOM      9  C   UNL     1       1.429   8.682  20.358  0.00  0.00    +0.000 A 
ATOM     10  C   UNL     1       1.651   9.087  19.039  0.00  0.00    +0.000 A 
ATOM     11  C   UNL     1       2.230   8.180  18.154  0.00  0.00    +0.000 A 
ATOM     12  F   UNL     1       2.537   8.535  16.897  0.00  0.00    +0.000 F 
ATOM     13  C   UNL     1       2.476   6.861  18.534  0.00  0.00    +0.000 A 
BRANCH  10  14
ATOM     14  C   UNL     1       1.216  10.450  18.637  0.00  0.00    +0.000 C 
ATOM     15  O   UNL     1       0.047  10.652  18.327  0.00  0.00    +0.000 OA
ATOM     16  N   UNL     1       2.181  11.428  18.610  0.00  0.00    +0.000 N 
ATOM     17  H   UNL     1       3.114  11.215  18.945  0.00  0.00    +0.000 HD
BRANCH  16  18
ATOM     18  C   UNL     1       1.883  12.807  18.276  0.00  0.00    +0.000 C 
BRANCH  18  19
ATOM     19  C   UNL     1       2.735  13.806  19.095  0.00  0.00    +0.000 C 
ATOM     20  C   UNL     1       3.913  14.367  18.303  0.00  0.00    +0.000 C 
ATOM     21  C   UNL     1       3.287  15.464  17.467  0.00  0.00    +0.000 C 
ATOM     22  C   UNL     1       2.081  15.928  18.278  0.00  0.00    +0.000 C 
ATOM     23  N   UNL     1       1.929  15.005  19.424  0.00  0.00    +0.000 NA
BRANCH  23  24
ATOM     24  C   UNL     1       2.347  15.664  20.673  0.00  0.00    +0.000 C 
ATOM     25  C   UNL     1       2.811  14.695  21.756  0.00  0.00    +0.000 C 
ENDBRANCH  23  24
ENDBRANCH  18  19
ENDBRANCH  16  18
ENDBRANCH  10  14
ENDBRANCH   5   7
BRANCH   1  27
ATOM     26  C   UNL     1       3.426   1.393  17.958  0.00  0.00    +0.000 C 
ATOM     27  C   UNL     1       3.897   1.646  19.383  0.00  0.00    +0.000 C 
ENDBRANCH   1  27
BRANCH   6  28
ATOM     28  C   UNL     1       4.032   4.455  18.499  0.00  0.00    +0.000 C 
ATOM     29  C   UNL     1       4.772   4.720  17.591  0.00  0.00    +0.000 C 
BRANCH  29  30
ATOM     30  C   UNL     1       5.629   4.929  16.463  0.00  0.00    +0.000 A 
ATOM     31  C   UNL     1       5.383   4.292  15.251  0.00  0.00    +0.000 A 
ATOM     32  C   UNL     1       6.253   4.504  14.180  0.00  0.00    +0.000 A 
ATOM     33  C   UNL     1       7.352   5.333  14.358  0.00  0.00    +0.000 A 
ATOM     34  N   UNL     1       8.214   5.603  13.300  0.00  0.00    +0.000 N 
ATOM     35  N   UNL     1       7.614   5.954  15.521  0.00  0.00    +0.000 NA
ATOM     36  C   UNL     1       6.752   5.738  16.547  0.00  0.00    +0.000 A 
ATOM     37  H   UNL     1       8.555   4.757  12.859  0.00  0.00    +0.000 HD
ATOM     38  H   UNL     1       8.971   6.175  13.667  0.00  0.00    +0.000 HD
ENDBRANCH  29  30
ENDBRANCH   6  28
TORSDOF 8
ENDMDL
MODEL 8
REMARK VINA RESULT:      -7.5      0.912      1.011
REMARK  Name = 
REMARK  10 active torsions:
REMARK  status: ('A' for Active; 'I' for Inactive)
REMARK    1  A    between atoms: C_1  and  C_2
REMARK    2  A    between atoms: C_2  and  C_3
REMARK    3  A    between atoms: C_7  and  C_8
REMARK    4  A    between atoms: C_11  and  C_12
REMARK    5  A    between atoms: N_14  and  C_15
REMARK    6  A    between atoms: C_15  and  C_16
REMARK    7  A    between atoms: N_20  and  C_21
REMARK    8  A    between atoms: C_21  and  C_22
REMARK    9  A    between atoms: C_26  and  C_27
REMARK   10  A    between atoms: C_28  and  C_29
REMARK                            x       y       z     vdW  Elec       q    Type
REMARK                         _______ _______ _______ _____ _____    ______ ____
ROOT
ATOM      1  C   UNL     1      -3.350  12.844  21.707  0.00  0.00    +0.000 A 
ATOM      2  N   UNL     1      -3.134  13.070  23.025  0.00  0.00    +0.000 NA
ATOM      3  C   UNL     1      -2.016  12.553  23.547  0.00  0.00    +0.000 A 
ATOM      4  N   UNL     1      -1.087  11.860  22.879  0.00  0.00    +0.000 NA
ATOM      5  C   UNL     1      -1.310  11.652  21.554  0.00  0.00    +0.000 A 
ATOM      6  C   UNL     1      -2.464  12.117  20.918  0.00  0.00    +0.000 A 
ENDROOT
BRANCH   5   7
ATOM      7  C   UNL     1      -0.263  10.825  20.902  0.00  0.00    +0.000 A 
ATOM      8  C   UNL     1       0.497  11.285  19.812  0.00  0.00    +0.000 A 
ATOM      9  C   UNL     1       1.318  10.424  19.077  0.00  0.00    +0.000 A 
ATOM     10  C   UNL     1       1.459   9.088  19.462  0.00  0.00    +0.000 A 
ATOM     11  C   UNL     1       0.827   8.663  20.629  0.00  0.00    +0.000 A 
ATOM     12  F   UNL     1       0.988   7.412  21.090  0.00  0.00    +0.000 F 
ATOM     13  C   UNL     1      -0.024   9.510  21.337  0.00  0.00    +0.000 A 
BRANCH  10  14
ATOM     14  C   UNL     1       2.240   8.179  18.582  0.00  0.00    +0.000 C 
ATOM     15  O   UNL     1       2.475   8.504  17.423  0.00  0.00    +0.000 OA
ATOM     16  N   UNL     1       2.641   6.982  19.125  0.00  0.00    +0.000 N 
ATOM     17  H   UNL     1       2.476   6.802  20.109  0.00  0.00    +0.000 HD
BRANCH  16  18
ATOM     18  C   UNL     1       3.441   6.024  18.389  0.00  0.00    +0.000 C 
BRANCH  18  19
ATOM     19  C   UNL     1       2.769   4.632  18.314  0.00  0.00    +0.000 C 
ATOM     20  C   UNL     1       3.280   3.790  17.148  0.00  0.00    +0.000 C 
ATOM     21  C   UNL     1       4.583   3.219  17.670  0.00  0.00    +0.000 C 
ATOM     22  C   UNL     1       4.398   3.154  19.183  0.00  0.00    +0.000 C 
ATOM     23  N   UNL     1       3.126   3.834  19.510  0.00  0.00    +0.000 NA
BRANCH  23  24
ATOM     24  C   UNL     1       2.098   2.847  19.881  0.00  0.00    +0.000 C 
ATOM     25  C   UNL     1       1.368   3.177  21.180  0.00  0.00    +0.000 C 
ENDBRANCH  23  24
ENDBRANCH  18  19
ENDBRANCH  16  18
ENDBRANCH  10  14
ENDBRANCH   5   7
BRANCH   1  27
ATOM     26  C   UNL     1      -5.456  14.054  22.257  0.00  0.00    +0.000 C 
ATOM     27  C   UNL     1      -4.584  13.503  21.139  0.00  0.00    +0.000 C 
ENDBRANCH   1  27
BRANCH   6  28
ATOM     28  C   UNL     1      -2.750  11.841  19.536  0.00  0.00    +0.000 C 
ATOM     29  C   UNL     1      -2.957  11.541  18.392  0.00  0.00    +0.000 C 
BRANCH  29  30
ATOM     30  C   UNL     1      -3.145  11.084  17.048  0.00  0.00    +0.000 A 
ATOM     31  C   UNL     1      -2.321  10.104  16.504  0.00  0.00    +0.000 A 
ATOM     32  C   UNL     1      -2.520   9.700  15.183  0.00  0.00    +0.000 A 
ATOM     33  C   UNL     1      -3.528  10.300  14.440  0.00  0.00    +0.000 A 
ATOM     34  N   UNL     1      -3.784   9.890  13.136  0.00  0.00    +0.000 N 
ATOM     35  N   UNL     1      -4.332  11.252  14.941  0.00  0.00    +0.000 NA
ATOM     36  C   UNL     1      -4.124  11.626  16.229  0.00  0.00    +0.000 A 
ATOM     37  H   UNL     1      -2.951   9.900  12.560  0.00  0.00    +0.000 HD
ATOM     38  H   UNL     1      -4.513  10.496  12.767  0.00  0.00    +0.000 HD
ENDBRANCH  29  30
ENDBRANCH   6  28
TORSDOF 8
ENDMDL
MODEL 9
REMARK VINA RESULT:      -7.4      2.671      4.247
REMARK  Name = 
REMARK  10 active torsions:
REMARK  status: ('A' for Active; 'I' for Inactive)
REMARK    1  A    between atoms: C_1  and  C_2
REMARK    2  A    between atoms: C_2  and  C_3
REMARK    3  A    between atoms: C_7  and  C_8
REMARK    4  A    between atoms: C_11  and  C_12
REMARK    5  A    between atoms: N_14  and  C_15
REMARK    6  A    between atoms: C_15  and  C_16
REMARK    7  A    between atoms: N_20  and  C_21
REMARK    8  A    between atoms: C_21  and  C_22
REMARK    9  A    between atoms: C_26  and  C_27
REMARK   10  A    between atoms: C_28  and  C_29
REMARK                            x       y       z     vdW  Elec       q    Type
REMARK                         _______ _______ _______ _____ _____    ______ ____
ROOT
ATOM      1  C   UNL     1      -0.753  10.849  22.068  0.00  0.00    +0.000 A 
ATOM      2  N   UNL     1      -0.278  10.771  23.333  0.00  0.00    +0.000 NA
ATOM      3  C   UNL     1       0.618   9.809  23.580  0.00  0.00    +0.000 A 
ATOM      4  N   UNL     1       1.100   8.939  22.686  0.00  0.00    +0.000 NA
ATOM      5  C   UNL     1       0.624   9.036  21.416  0.00  0.00    +0.000 A 
ATOM      6  C   UNL     1      -0.341   9.982  21.060  0.00  0.00    +0.000 A 
ENDROOT
BRANCH   5   7
ATOM      7  C   UNL     1       1.163   7.998  20.502  0.00  0.00    +0.000 A 
ATOM      8  C   UNL     1       1.063   6.621  20.772  0.00  0.00    +0.000 A 
ATOM      9  C   UNL     1       1.762   5.674  20.018  0.00  0.00    +0.000 A 
ATOM     10  C   UNL     1       2.524   6.075  18.918  0.00  0.00    +0.000 A 
ATOM     11  C   UNL     1       2.508   7.420  18.553  0.00  0.00    +0.000 A 
ATOM     12  F   UNL     1       3.160   7.852  17.461  0.00  0.00    +0.000 F 
ATOM     13  C   UNL     1       1.845   8.369  19.330  0.00  0.00    +0.000 A 
BRANCH  10  14
ATOM     14  C   UNL     1       3.350   5.054  18.222  0.00  0.00    +0.000 C 
ATOM     15  O   UNL     1       2.825   4.282  17.426  0.00  0.00    +0.000 OA
ATOM     16  N   UNL     1       4.686   5.013  18.539  0.00  0.00    +0.000 N 
ATOM     17  H   UNL     1       5.073   5.722  19.152  0.00  0.00    +0.000 HD
BRANCH  16  18
ATOM     18  C   UNL     1       5.609   4.094  17.904  0.00  0.00    +0.000 C 
BRANCH  18  19
ATOM     19  C   UNL     1       6.731   4.829  17.131  0.00  0.00    +0.000 C 
ATOM     20  C   UNL     1       6.825   4.394  15.671  0.00  0.00    +0.000 C 
ATOM     21  C   UNL     1       5.728   5.192  14.994  0.00  0.00    +0.000 C 
ATOM     22  C   UNL     1       5.582   6.449  15.846  0.00  0.00    +0.000 C 
ATOM     23  N   UNL     1       6.423   6.276  17.050  0.00  0.00    +0.000 NA
BRANCH  23  24
ATOM     24  C   UNL     1       7.624   7.123  16.962  0.00  0.00    +0.000 C 
ATOM     25  C   UNL     1       7.506   8.440  17.724  0.00  0.00    +0.000 C 
ENDBRANCH  23  24
ENDBRANCH  18  19
ENDBRANCH  16  18
ENDBRANCH  10  14
ENDBRANCH   5   7
BRANCH   1  27
ATOM     26  C   UNL     1      -0.935  13.266  21.493  0.00  0.00    +0.000 C 
ATOM     27  C   UNL     1      -1.705  11.992  21.811  0.00  0.00    +0.000 C 
ENDBRANCH   1  27
BRANCH   6  28
ATOM     28  C   UNL     1      -0.909  10.049  19.741  0.00  0.00    +0.000 C 
ATOM     29  C   UNL     1      -1.452  10.119  18.671  0.00  0.00    +0.000 C 
BRANCH  29  30
ATOM     30  C   UNL     1      -2.200  10.214  17.455  0.00  0.00    +0.000 A 
ATOM     31  C   UNL     1      -3.352  10.991  17.383  0.00  0.00    +0.000 A 
ATOM     32  C   UNL     1      -4.068  11.042  16.186  0.00  0.00    +0.000 A 
ATOM     33  C   UNL     1      -3.620  10.301  15.101  0.00  0.00    +0.000 A 
ATOM     34  N   UNL     1      -4.282  10.363  13.879  0.00  0.00    +0.000 N 
ATOM     35  N   UNL     1      -2.514   9.538  15.148  0.00  0.00    +0.000 NA
ATOM     36  C   UNL     1      -1.831   9.509  16.320  0.00  0.00    +0.000 A 
ATOM     37  H   UNL     1      -5.274  10.176  13.971  0.00  0.00    +0.000 HD
ATOM     38  H   UNL     1      -3.824   9.704  13.254  0.00  0.00    +0.000 HD
ENDBRANCH  29  30
ENDBRANCH   6  28
TORSDOF 8
ENDMDL
