MODEL 1
REMARK VINA RESULT:      -7.1      0.000      0.000
REMARK  Name = 
REMARK  6 active torsions:
REMARK  status: ('A' for Active; 'I' for Inactive)
REMARK    1  A    between atoms: C_1  and  C_2
REMARK    2  A    between atoms: C_2  and  C_3
REMARK    3  A    between atoms: C_2  and  C_4
REMARK    4  A    between atoms: C_6  and  O_7
REMARK    5  A    between atoms: C_9  and  C_10
REMARK    6  A    between atoms: C_10  and  N_11
REMARK                            x       y       z     vdW  Elec       q    Type
REMARK                         _______ _______ _______ _____ _____    ______ ____
ROOT
ATOM      1  C   UNL     1       6.950   5.433  17.094  0.00  0.00    +0.000 A 
ATOM      2  N   UNL     1       7.333   5.384  15.808  0.00  0.00    +0.000 NA
ATOM      3  C   UNL     1       6.496   4.742  14.995  0.00  0.00    +0.000 A 
ATOM      4  C   UNL     1       5.313   4.147  15.363  0.00  0.00    +0.000 A 
ATOM      5  C   UNL     1       5.003   4.243  16.698  0.00  0.00    +0.000 A 
ATOM      6  N   UNL     1       5.813   4.882  17.576  0.00  0.00    +0.000 NA
ENDROOT
BRANCH   1   8
ATOM      7  C   UNL     1       7.709   7.690  17.841  0.00  0.00    +0.000 C 
ATOM      8  C   UNL     1       7.835   6.183  18.061  0.00  0.00    +0.000 C 
ATOM      9  C   UNL     1       7.505   5.802  19.503  0.00  0.00    +0.000 C 
ENDBRANCH   1   8
BRANCH   3  10
ATOM     10  O   UNL     1       6.901   4.708  13.698  0.00  0.00    +0.000 OA
ATOM     11  H   UNL     1       6.983   5.660  13.518  0.00  0.00    +0.000 HD
ENDBRANCH   3  10
BRANCH   5  12
ATOM     12  C   UNL     1       3.713   3.663  17.250  0.00  0.00    +0.000 C 
BRANCH  12  13
ATOM     13  N   UNL     1       3.443   3.954  18.682  0.00  0.00    +0.000 NA
ATOM     14  C   UNL     1       2.251   4.813  18.808  0.00  0.00    +0.000 C 
ATOM     15  C   UNL     1       1.710   4.935  20.234  0.00  0.00    +0.000 C 
ATOM     16  C   UNL     1       1.493   3.570  20.864  0.00  0.00    +0.000 C 
ATOM     17  C   UNL     1       2.804   2.799  20.839  0.00  0.00    +0.000 C 
ATOM     18  C   UNL     1       3.346   2.679  19.416  0.00  0.00    +0.000 C 
ENDBRANCH  12  13
ENDBRANCH   5  12
TORSDOF 4
ENDMDL
MODEL 2
REMARK VINA RESULT:      -7.1      1.948      3.073
REMARK  Name = 
REMARK  6 active torsions:
REMARK  status: ('A' for Active; 'I' for Inactive)
REMARK    1  A    between atoms: C_1  and  C_2
REMARK    2  A    between atoms: C_2  and  C_3
REMARK    3  A    between atoms: C_2  and  C_4
REMARK    4  A    between atoms: C_6  and  O_7
REMARK    5  A    between atoms: C_9  and  C_10
REMARK    6  A    between atoms: C_10  and  N_11
REMARK                            x       y       z     vdW  Elec       q    Type
REMARK                         _______ _______ _______ _____ _____    ______ ____
ROOT
ATOM      1  C   UNL     1       6.408   4.899  15.136  0.00  0.00    +0.000 A 
ATOM      2  N   UNL     1       7.483   4.517  15.842  0.00  0.00    +0.000 NA
ATOM      3  C   UNL     1       7.305   4.478  17.162  0.00  0.00    +0.000 A 
ATOM      4  C   UNL     1       6.144   4.788  17.828  0.00  0.00    +0.000 A 
ATOM      5  C   UNL     1       5.097   5.172  17.025  0.00  0.00    +0.000 A 
ATOM      6  N   UNL     1       5.214   5.233  15.678  0.00  0.00    +0.000 NA
ENDROOT
BRANCH   1   8
ATOM      7  C   UNL     1       7.949   5.316  13.218  0.00  0.00    +0.000 C 
ATOM      8  C   UNL     1       6.530   4.924  13.631  0.00  0.00    +0.000 C 
ATOM      9  C   UNL     1       6.129   3.577  13.033  0.00  0.00    +0.000 C 
ENDBRANCH   1   8
BRANCH   3  10
ATOM     10  O   UNL     1       8.405   4.086  17.857  0.00  0.00    +0.000 OA
ATOM     11  H   UNL     1       8.925   4.907  17.836  0.00  0.00    +0.000 HD
ENDBRANCH   3  10
BRANCH   5  12
ATOM     12  C   UNL     1       3.739   5.514  17.614  0.00  0.00    +0.000 C 
BRANCH  12  13
ATOM     13  N   UNL     1       3.196   4.527  18.582  0.00  0.00    +0.000 NA
ATOM     14  C   UNL     1       2.958   5.174  19.885  0.00  0.00    +0.000 C 
ATOM     15  C   UNL     1       2.133   4.337  20.865  0.00  0.00    +0.000 C 
ATOM     16  C   UNL     1       0.841   3.855  20.229  0.00  0.00    +0.000 C 
ATOM     17  C   UNL     1       1.171   3.063  18.974  0.00  0.00    +0.000 C 
ATOM     18  C   UNL     1       1.998   3.897  17.996  0.00  0.00    +0.000 C 
ENDBRANCH  12  13
ENDBRANCH   5  12
TORSDOF 4
ENDMDL
MODEL 3
REMARK VINA RESULT:      -7.0      0.547      1.017
REMARK  Name = 
REMARK  6 active torsions:
REMARK  status: ('A' for Active; 'I' for Inactive)
REMARK    1  A    between atoms: C_1  and  C_2
REMARK    2  A    between atoms: C_2  and  C_3
REMARK    3  A    between atoms: C_2  and  C_4
REMARK    4  A    between atoms: C_6  and  O_7
REMARK    5  A    between atoms: C_9  and  C_10
REMARK    6  A    between atoms: C_10  and  N_11
REMARK                            x       y       z     vdW  Elec       q    Type
REMARK                         _______ _______ _______ _____ _____    ______ ____
ROOT
ATOM      1  C   UNL     1       6.544   5.723  17.312  0.00  0.00    +0.000 A 
ATOM      2  N   UNL     1       7.050   5.688  16.070  0.00  0.00    +0.000 NA
ATOM      3  C   UNL     1       6.437   4.849  15.235  0.00  0.00    +0.000 A 
ATOM      4  C   UNL     1       5.364   4.048  15.543  0.00  0.00    +0.000 A 
ATOM      5  C   UNL     1       4.915   4.147  16.837  0.00  0.00    +0.000 A 
ATOM      6  N   UNL     1       5.496   4.979  17.734  0.00  0.00    +0.000 NA
ENDROOT
BRANCH   1   8
ATOM      7  C   UNL     1       8.136   5.946  19.222  0.00  0.00    +0.000 C 
ATOM      8  C   UNL     1       7.168   6.683  18.296  0.00  0.00    +0.000 C 
ATOM      9  C   UNL     1       7.864   7.830  17.566  0.00  0.00    +0.000 C 
ENDBRANCH   1   8
BRANCH   3  10
ATOM     10  O   UNL     1       6.964   4.833  13.982  0.00  0.00    +0.000 OA
ATOM     11  H   UNL     1       6.506   5.596  13.592  0.00  0.00    +0.000 HD
ENDBRANCH   3  10
BRANCH   5  12
ATOM     12  C   UNL     1       3.716   3.348  17.318  0.00  0.00    +0.000 C 
BRANCH  12  13
ATOM     13  N   UNL     1       3.210   3.705  18.668  0.00  0.00    +0.000 NA
ATOM     14  C   UNL     1       1.775   4.036  18.599  0.00  0.00    +0.000 C 
ATOM     15  C   UNL     1       1.084   4.133  19.961  0.00  0.00    +0.000 C 
ATOM     16  C   UNL     1       1.340   2.894  20.801  0.00  0.00    +0.000 C 
ATOM     17  C   UNL     1       2.840   2.704  20.960  0.00  0.00    +0.000 C 
ATOM     18  C   UNL     1       3.531   2.610  19.601  0.00  0.00    +0.000 C 
ENDBRANCH  12  13
ENDBRANCH   5  12
TORSDOF 4
ENDMDL
MODEL 4
REMARK VINA RESULT:      -7.0      1.010      1.209
REMARK  Name = 
REMARK  6 active torsions:
REMARK  status: ('A' for Active; 'I' for Inactive)
REMARK    1  A    between atoms: C_1  and  C_2
REMARK    2  A    between atoms: C_2  and  C_3
REMARK    3  A    between atoms: C_2  and  C_4
REMARK    4  A    between atoms: C_6  and  O_7
REMARK    5  A    between atoms: C_9  and  C_10
REMARK    6  A    between atoms: C_10  and  N_11
REMARK                            x       y       z     vdW  Elec       q    Type
REMARK                         _______ _______ _______ _____ _____    ______ ____
ROOT
ATOM      1  C   UNL     1       6.810   5.641  17.158  0.00  0.00    +0.000 A 
ATOM      2  N   UNL     1       7.146   4.966  16.048  0.00  0.00    +0.000 NA
ATOM      3  C   UNL     1       6.145   4.310  15.463  0.00  0.00    +0.000 A 
ATOM      4  C   UNL     1       4.842   4.277  15.897  0.00  0.00    +0.000 A 
ATOM      5  C   UNL     1       4.590   4.993  17.042  0.00  0.00    +0.000 A 
ATOM      6  N   UNL     1       5.565   5.679  17.684  0.00  0.00    +0.000 NA
ENDROOT
BRANCH   1   8
ATOM      7  C   UNL     1       7.674   7.936  17.622  0.00  0.00    +0.000 C 
ATOM      8  C   UNL     1       7.891   6.440  17.847  0.00  0.00    +0.000 C 
ATOM      9  C   UNL     1       7.945   6.104  19.337  0.00  0.00    +0.000 C 
ENDBRANCH   1   8
BRANCH   3  10
ATOM     10  O   UNL     1       6.507   3.637  14.339  0.00  0.00    +0.000 OA
ATOM     11  H   UNL     1       7.471   3.605  14.460  0.00  0.00    +0.000 HD
ENDBRANCH   3  10
BRANCH   5  12
ATOM     12  C   UNL     1       3.190   5.077  17.625  0.00  0.00    +0.000 C 
BRANCH  12  13
ATOM     13  N   UNL     1       2.835   4.004  18.589  0.00  0.00    +0.000 NA
ATOM     14  C   UNL     1       2.976   4.498  19.971  0.00  0.00    +0.000 C 
ATOM     15  C   UNL     1       2.362   3.584  21.034  0.00  0.00    +0.000 C 
ATOM     16  C   UNL     1       0.921   3.238  20.701  0.00  0.00    +0.000 C 
ATOM     17  C   UNL     1       0.872   2.590  19.326  0.00  0.00    +0.000 C 
ATOM     18  C   UNL     1       1.487   3.501  18.265  0.00  0.00    +0.000 C 
ENDBRANCH  12  13
ENDBRANCH   5  12
TORSDOF 4
ENDMDL
MODEL 5
REMARK VINA RESULT:      -7.0      1.714      3.161
REMARK  Name = 
REMARK  6 active torsions:
REMARK  status: ('A' for Active; 'I' for Inactive)
REMARK    1  A    between atoms: C_1  and  C_2
REMARK    2  A    between atoms: C_2  and  C_3
REMARK    3  A    between atoms: C_2  and  C_4
REMARK    4  A    between atoms: C_6  and  O_7
REMARK    5  A    between atoms: C_9  and  C_10
REMARK    6  A    between atoms: C_10  and  N_11
REMARK                            x       y       z     vdW  Elec       q    Type
REMARK                         _______ _______ _______ _____ _____    ______ ____
ROOT
ATOM      1  C   UNL     1       6.651   4.856  15.569  0.00  0.00    +0.000 A 
ATOM      2  N   UNL     1       7.277   6.021  15.795  0.00  0.00    +0.000 NA
ATOM      3  C   UNL     1       7.126   6.512  17.025  0.00  0.00    +0.000 A 
ATOM      4  C   UNL     1       6.404   5.933  18.040  0.00  0.00    +0.000 A 
ATOM      5  C   UNL     1       5.796   4.744  17.718  0.00  0.00    +0.000 A 
ATOM      6  N   UNL     1       5.909   4.194  16.486  0.00  0.00    +0.000 NA
ENDROOT
BRANCH   1   8
ATOM      7  C   UNL     1       5.450   3.931  13.587  0.00  0.00    +0.000 C 
ATOM      8  C   UNL     1       6.816   4.225  14.207  0.00  0.00    +0.000 C 
ATOM      9  C   UNL     1       7.659   5.116  13.297  0.00  0.00    +0.000 C 
ENDBRANCH   1   8
BRANCH   3  10
ATOM     10  O   UNL     1       7.771   7.691  17.233  0.00  0.00    +0.000 OA
ATOM     11  H   UNL     1       8.387   7.429  17.938  0.00  0.00    +0.000 HD
ENDBRANCH   3  10
BRANCH   5  12
ATOM     12  C   UNL     1       4.990   3.968  18.745  0.00  0.00    +0.000 C 
BRANCH  12  13
ATOM     13  N   UNL     1       3.531   4.250  18.758  0.00  0.00    +0.000 NA
ATOM     14  C   UNL     1       2.775   3.017  18.474  0.00  0.00    +0.000 C 
ATOM     15  C   UNL     1       1.273   3.120  18.748  0.00  0.00    +0.000 C 
ATOM     16  C   UNL     1       1.000   3.642  20.148  0.00  0.00    +0.000 C 
ATOM     17  C   UNL     1       1.682   4.990  20.317  0.00  0.00    +0.000 C 
ATOM     18  C   UNL     1       3.182   4.888  20.040  0.00  0.00    +0.000 C 
ENDBRANCH  12  13
ENDBRANCH   5  12
TORSDOF 4
ENDMDL
MODEL 6
REMARK VINA RESULT:      -6.7      1.620      3.112
REMARK  Name = 
REMARK  6 active torsions:
REMARK  status: ('A' for Active; 'I' for Inactive)
REMARK    1  A    between atoms: C_1  and  C_2
REMARK    2  A    between atoms: C_2  and  C_3
REMARK    3  A    between atoms: C_2  and  C_4
REMARK    4  A    between atoms: C_6  and  O_7
REMARK    5  A    between atoms: C_9  and  C_10
REMARK    6  A    between atoms: C_10  and  N_11
REMARK                            x       y       z     vdW  Elec       q    Type
REMARK                         _______ _______ _______ _____ _____    ______ ____
ROOT
ATOM      1  C   UNL     1       6.471   4.562  14.691  0.00  0.00    +0.000 A 
ATOM      2  N   UNL     1       7.188   5.550  15.247  0.00  0.00    +0.000 NA
ATOM      3  C   UNL     1       6.776   5.934  16.455  0.00  0.00    +0.000 A 
ATOM      4  C   UNL     1       5.710   5.411  17.146  0.00  0.00    +0.000 A 
ATOM      5  C   UNL     1       5.033   4.406  16.499  0.00  0.00    +0.000 A 
ATOM      6  N   UNL     1       5.401   3.972  15.270  0.00  0.00    +0.000 NA
ENDROOT
BRANCH   1   8
ATOM      7  C   UNL     1       5.713   3.520  12.554  0.00  0.00    +0.000 C 
ATOM      8  C   UNL     1       6.911   4.052  13.339  0.00  0.00    +0.000 C 
ATOM      9  C   UNL     1       7.644   5.144  12.562  0.00  0.00    +0.000 C 
ENDBRANCH   1   8
BRANCH   3  10
ATOM     10  O   UNL     1       7.518   6.934  17.001  0.00  0.00    +0.000 OA
ATOM     11  H   UNL     1       8.354   6.810  16.520  0.00  0.00    +0.000 HD
ENDBRANCH   3  10
BRANCH   5  12
ATOM     12  C   UNL     1       3.852   3.706  17.150  0.00  0.00    +0.000 C 
BRANCH  12  13
ATOM     13  N   UNL     1       3.607   4.059  18.573  0.00  0.00    +0.000 NA
ATOM     14  C   UNL     1       2.519   5.049  18.668  0.00  0.00    +0.000 C 
ATOM     15  C   UNL     1       1.985   5.265  20.086  0.00  0.00    +0.000 C 
ATOM     16  C   UNL     1       1.610   3.948  20.743  0.00  0.00    +0.000 C 
ATOM     17  C   UNL     1       2.825   3.033  20.748  0.00  0.00    +0.000 C 
ATOM     18  C   UNL     1       3.361   2.820  19.333  0.00  0.00    +0.000 C 
ENDBRANCH  12  13
ENDBRANCH   5  12
TORSDOF 4
ENDMDL
MODEL 7
REMARK VINA RESULT:      -6.7      1.793      3.085
REMARK  Name = 
REMARK  6 active torsions:
REMARK  status: ('A' for Active; 'I' for Inactive)
REMARK    1  A    between atoms: C_1  and  C_2
REMARK    2  A    between atoms: C_2  and  C_3
REMARK    3  A    between atoms: C_2  and  C_4
REMARK    4  A    between atoms: C_6  and  O_7
REMARK    5  A    between atoms: C_9  and  C_10
REMARK    6  A    between atoms: C_10  and  N_11
REMARK                            x       y       z     vdW  Elec       q    Type
REMARK                         _______ _______ _______ _____ _____    ______ ____
ROOT
ATOM      1  C   UNL     1       6.378   5.270  16.054  0.00  0.00    +0.000 A 
ATOM      2  N   UNL     1       7.232   6.191  16.525  0.00  0.00    +0.000 NA
ATOM      3  C   UNL     1       7.288   6.282  17.853  0.00  0.00    +0.000 A 
ATOM      4  C   UNL     1       6.561   5.527  18.742  0.00  0.00    +0.000 A 
ATOM      5  C   UNL     1       5.711   4.612  18.171  0.00  0.00    +0.000 A 
ATOM      6  N   UNL     1       5.607   4.473  16.828  0.00  0.00    +0.000 NA
ENDROOT
BRANCH   1   8
ATOM      7  C   UNL     1       7.678   5.259  13.924  0.00  0.00    +0.000 C 
ATOM      8  C   UNL     1       6.297   5.089  14.557  0.00  0.00    +0.000 C 
ATOM      9  C   UNL     1       5.690   3.731  14.209  0.00  0.00    +0.000 C 
ENDBRANCH   1   8
BRANCH   3  10
ATOM     10  O   UNL     1       8.161   7.218  18.308  0.00  0.00    +0.000 OA
ATOM     11  H   UNL     1       8.997   6.730  18.225  0.00  0.00    +0.000 HD
ENDBRANCH   3  10
BRANCH   5  12
ATOM     12  C   UNL     1       4.866   3.683  19.026  0.00  0.00    +0.000 C 
BRANCH  12  13
ATOM     13  N   UNL     1       3.397   3.892  18.936  0.00  0.00    +0.000 NA
ATOM     14  C   UNL     1       2.725   2.622  18.605  0.00  0.00    +0.000 C 
ATOM     15  C   UNL     1       1.204   2.652  18.774  0.00  0.00    +0.000 C 
ATOM     16  C   UNL     1       0.809   3.160  20.149  0.00  0.00    +0.000 C 
ATOM     17  C   UNL     1       1.410   4.541  20.359  0.00  0.00    +0.000 C 
ATOM     18  C   UNL     1       2.928   4.513  20.188  0.00  0.00    +0.000 C 
ENDBRANCH  12  13
ENDBRANCH   5  12
TORSDOF 4
ENDMDL
MODEL 8
REMARK VINA RESULT:      -6.6      2.530      5.940
REMARK  Name = 
REMARK  6 active torsions:
REMARK  status: ('A' for Active; 'I' for Inactive)
REMARK    1  A    between atoms: C_1  and  C_2
REMARK    2  A    between atoms: C_2  and  C_3
REMARK    3  A    between atoms: C_2  and  C_4
REMARK    4  A    between atoms: C_6  and  O_7
REMARK    5  A    between atoms: C_9  and  C_10
REMARK    6  A    between atoms: C_10  and  N_11
REMARK                            x       y       z     vdW  Elec       q    Type
REMARK                         _______ _______ _______ _____ _____    ______ ____
ROOT
ATOM      1  C   UNL     1       2.379   4.053  19.427  0.00  0.00    +0.000 A 
ATOM      2  N   UNL     1       2.051   5.138  20.145  0.00  0.00    +0.000 NA
ATOM      3  C   UNL     1       2.548   6.288  19.689  0.00  0.00    +0.000 A 
ATOM      4  C   UNL     1       3.342   6.436  18.578  0.00  0.00    +0.000 A 
ATOM      5  C   UNL     1       3.630   5.273  17.907  0.00  0.00    +0.000 A 
ATOM      6  N   UNL     1       3.156   4.073  18.321  0.00  0.00    +0.000 NA
ENDROOT
BRANCH   1   8
ATOM      7  C   UNL     1       1.338   2.801  21.318  0.00  0.00    +0.000 C 
ATOM      8  C   UNL     1       1.814   2.724  19.867  0.00  0.00    +0.000 C 
ATOM      9  C   UNL     1       0.689   2.280  18.935  0.00  0.00    +0.000 C 
ENDBRANCH   1   8
BRANCH   3  10
ATOM     10  O   UNL     1       2.200   7.373  20.429  0.00  0.00    +0.000 OA
ATOM     11  H   UNL     1       1.299   7.121  20.692  0.00  0.00    +0.000 HD
ENDBRANCH   3  10
BRANCH   5  12
ATOM     12  C   UNL     1       4.470   5.281  16.641  0.00  0.00    +0.000 C 
BRANCH  12  13
ATOM     13  N   UNL     1       5.920   5.538  16.839  0.00  0.00    +0.000 NA
ATOM     14  C   UNL     1       6.152   6.974  17.075  0.00  0.00    +0.000 C 
ATOM     15  C   UNL     1       7.557   7.312  17.578  0.00  0.00    +0.000 C 
ATOM     16  C   UNL     1       7.928   6.473  18.788  0.00  0.00    +0.000 C 
ATOM     17  C   UNL     1       7.816   5.001  18.425  0.00  0.00    +0.000 C 
ATOM     18  C   UNL     1       6.414   4.663  17.919  0.00  0.00    +0.000 C 
ENDBRANCH  12  13
ENDBRANCH   5  12
TORSDOF 4
ENDMDL
MODEL 9
REMARK VINA RESULT:      -6.6      2.536      4.600
REMARK  Name = 
REMARK  6 active torsions:
REMARK  status: ('A' for Active; 'I' for Inactive)
REMARK    1  A    between atoms: C_1  and  C_2
REMARK    2  A    between atoms: C_2  and  C_3
REMARK    3  A    between atoms: C_2  and  C_4
REMARK    4  A    between atoms: C_6  and  O_7
REMARK    5  A    between atoms: C_9  and  C_10
REMARK    6  A    between atoms: C_10  and  N_11
REMARK                            x       y       z     vdW  Elec       q    Type
REMARK                         _______ _______ _______ _____ _____    ______ ____
ROOT
ATOM      1  C   UNL     1       6.151   3.753  12.644  0.00  0.00    +0.000 A 
ATOM      2  N   UNL     1       7.211   4.550  12.443  0.00  0.00    +0.000 NA
ATOM      3  C   UNL     1       7.700   5.126  13.540  0.00  0.00    +0.000 A 
ATOM      4  C   UNL     1       7.214   4.969  14.816  0.00  0.00    +0.000 A 
ATOM      5  C   UNL     1       6.126   4.139  14.927  0.00  0.00    +0.000 A 
ATOM      6  N   UNL     1       5.582   3.525  13.850  0.00  0.00    +0.000 NA
ENDROOT
BRANCH   1   8
ATOM      7  C   UNL     1       5.942   1.554  11.483  0.00  0.00    +0.000 C 
ATOM      8  C   UNL     1       5.574   3.037  11.446  0.00  0.00    +0.000 C 
ATOM      9  C   UNL     1       4.061   3.233  11.376  0.00  0.00    +0.000 C 
ENDBRANCH   1   8
BRANCH   3  10
ATOM     10  O   UNL     1       8.775   5.925  13.313  0.00  0.00    +0.000 OA
ATOM     11  H   UNL     1       8.338   6.691  12.904  0.00  0.00    +0.000 HD
ENDBRANCH   3  10
BRANCH   5  12
ATOM     12  C   UNL     1       5.497   3.842  16.278  0.00  0.00    +0.000 C 
BRANCH  12  13
ATOM     13  N   UNL     1       4.223   4.551  16.559  0.00  0.00    +0.000 NA
ATOM     14  C   UNL     1       3.245   3.620  17.151  0.00  0.00    +0.000 C 
ATOM     15  C   UNL     1       2.010   4.298  17.748  0.00  0.00    +0.000 C 
ATOM     16  C   UNL     1       2.397   5.402  18.716  0.00  0.00    +0.000 C 
ATOM     17  C   UNL     1       3.279   6.409  17.993  0.00  0.00    +0.000 C 
ATOM     18  C   UNL     1       4.511   5.732  17.394  0.00  0.00    +0.000 C 
ENDBRANCH  12  13
ENDBRANCH   5  12
TORSDOF 4
ENDMDL
