MODEL 1
REMARK VINA RESULT:      -8.1      0.000      0.000
REMARK  Name = 
REMARK  7 active torsions:
REMARK  status: ('A' for Active; 'I' for Inactive)
REMARK    1  A    between atoms: C_1  and  C_2
REMARK    2  A    between atoms: C_2  and  N_3
REMARK    3  A    between atoms: N_3  and  C_22
REMARK    4  A    between atoms: C_4  and  C_6
REMARK    5  A    between atoms: C_9  and  S_10
REMARK    6  A    between atoms: S_10  and  N_13
REMARK    7  A    between atoms: C_16  and  C_17
REMARK                            x       y       z     vdW  Elec       q    Type
REMARK                         _______ _______ _______ _____ _____    ______ ____
ROOT
ATOM      1  C   UNL     1       2.202   6.826  19.520  0.00  0.00    +0.000 A 
ATOM      2  C   UNL     1       2.144   7.803  18.513  0.00  0.00    +0.000 A 
ATOM      3  C   UNL     1       1.644   9.099  18.743  0.00  0.00    +0.000 A 
ATOM      4  C   UNL     1       1.154   9.439  19.999  0.00  0.00    +0.000 A 
ATOM      5  C   UNL     1       1.221   8.512  21.036  0.00  0.00    +0.000 A 
ATOM      6  C   UNL     1       1.743   7.228  20.794  0.00  0.00    +0.000 A 
ENDROOT
BRANCH   1   8
ATOM      7  N   UNL     1       3.645   4.814  18.612  0.00  0.00    +0.000 N 
ATOM      8  C   UNL     1       2.568   5.348  19.382  0.00  0.00    +0.000 C 
ATOM      9  O   UNL     1       1.823   4.588  20.008  0.00  0.00    +0.000 OA
BRANCH   7  10
ATOM     10  C   UNL     1       4.382   5.635  17.630  0.00  0.00    +0.000 C 
ATOM     11  C   UNL     1       4.587   4.873  16.300  0.00  0.00    +0.000 C 
ATOM     12  C   UNL     1       5.910   4.137  16.363  0.00  0.00    +0.000 C 
ATOM     13  S   UNL     1       6.993   5.260  17.209  0.00  0.00    +0.000 S 
ATOM     14  O   UNL     1       7.628   6.099  16.212  0.00  0.00    +0.000 OA
ATOM     15  O   UNL     1       7.751   4.503  18.183  0.00  0.00    +0.000 OA
ATOM     16  C   UNL     1       5.744   6.218  18.042  0.00  0.00    +0.000 C 
ENDBRANCH   7  10
BRANCH   7  18
ATOM     17  C   UNL     1       4.331   2.436  19.468  0.00  0.00    +0.000 C 
ATOM     18  C   UNL     1       3.691   3.337  18.416  0.00  0.00    +0.000 C 
ENDBRANCH   7  18
ENDBRANCH   1   8
BRANCH   4  19
ATOM     19  S   UNL     1       0.520  11.077  20.313  0.00  0.00    +0.000 S 
ATOM     20  O   UNL     1      -0.905  10.924  20.508  0.00  0.00    +0.000 OA
ATOM     21  O   UNL     1       1.354  11.682  21.322  0.00  0.00    +0.000 OA
BRANCH  19  22
ATOM     22  N   UNL     1       0.798  11.863  18.829  0.00  0.00    +0.000 NA
ATOM     23  C   UNL     1       2.137  12.426  18.571  0.00  0.00    +0.000 C 
ATOM     24  C   UNL     1       2.257  13.815  19.193  0.00  0.00    +0.000 C 
ATOM     25  C   UNL     1       1.136  14.766  18.747  0.00  0.00    +0.000 C 
ATOM     26  C   UNL     1       1.148  16.036  19.608  0.00  0.00    +0.000 C 
ATOM     27  C   UNL     1      -0.254  14.108  18.797  0.00  0.00    +0.000 C 
ATOM     28  C   UNL     1      -0.283  12.686  18.249  0.00  0.00    +0.000 C 
ENDBRANCH  19  22
ENDBRANCH   4  19
TORSDOF 5
ENDMDL
MODEL 2
REMARK VINA RESULT:      -8.1      1.014      1.289
REMARK  Name = 
REMARK  7 active torsions:
REMARK  status: ('A' for Active; 'I' for Inactive)
REMARK    1  A    between atoms: C_1  and  C_2
REMARK    2  A    between atoms: C_2  and  N_3
REMARK    3  A    between atoms: N_3  and  C_22
REMARK    4  A    between atoms: C_4  and  C_6
REMARK    5  A    between atoms: C_9  and  S_10
REMARK    6  A    between atoms: S_10  and  N_13
REMARK    7  A    between atoms: C_16  and  C_17
REMARK                            x       y       z     vdW  Elec       q    Type
REMARK                         _______ _______ _______ _____ _____    ______ ____
ROOT
ATOM      1  C   UNL     1       2.587   6.832  19.562  0.00  0.00    +0.000 A 
ATOM      2  C   UNL     1       2.470   7.651  18.427  0.00  0.00    +0.000 A 
ATOM      3  C   UNL     1       1.730   8.849  18.431  0.00  0.00    +0.000 A 
ATOM      4  C   UNL     1       1.055   9.242  19.581  0.00  0.00    +0.000 A 
ATOM      5  C   UNL     1       1.170   8.478  20.740  0.00  0.00    +0.000 A 
ATOM      6  C   UNL     1       1.930   7.294  20.724  0.00  0.00    +0.000 A 
ENDROOT
BRANCH   1   8
ATOM      7  N   UNL     1       4.334   4.965  18.911  0.00  0.00    +0.000 N 
ATOM      8  C   UNL     1       3.218   5.443  19.663  0.00  0.00    +0.000 C 
ATOM      9  O   UNL     1       2.663   4.701  20.480  0.00  0.00    +0.000 OA
BRANCH   7  10
ATOM     10  C   UNL     1       4.850   5.696  17.736  0.00  0.00    +0.000 C 
ATOM     11  C   UNL     1       4.595   4.910  16.428  0.00  0.00    +0.000 C 
ATOM     12  C   UNL     1       5.799   4.033  16.150  0.00  0.00    +0.000 C 
ATOM     13  S   UNL     1       7.186   5.035  16.623  0.00  0.00    +0.000 S 
ATOM     14  O   UNL     1       7.602   5.794  15.461  0.00  0.00    +0.000 OA
ATOM     15  O   UNL     1       8.102   4.203  17.376  0.00  0.00    +0.000 OA
ATOM     16  C   UNL     1       6.326   6.128  17.735  0.00  0.00    +0.000 C 
ENDBRANCH   7  10
BRANCH   7  18
ATOM     17  C   UNL     1       3.591   2.472  18.609  0.00  0.00    +0.000 C 
ATOM     18  C   UNL     1       4.646   3.510  18.983  0.00  0.00    +0.000 C 
ENDBRANCH   7  18
ENDBRANCH   1   8
BRANCH   4  19
ATOM     19  S   UNL     1       0.117  10.759  19.610  0.00  0.00    +0.000 S 
ATOM     20  O   UNL     1      -0.373  10.952  18.262  0.00  0.00    +0.000 OA
ATOM     21  O   UNL     1      -0.785  10.694  20.733  0.00  0.00    +0.000 OA
BRANCH  19  22
ATOM     22  N   UNL     1       1.318  11.920  19.936  0.00  0.00    +0.000 NA
ATOM     23  C   UNL     1       1.095  12.872  21.042  0.00  0.00    +0.000 C 
ATOM     24  C   UNL     1       0.251  14.052  20.564  0.00  0.00    +0.000 C 
ATOM     25  C   UNL     1       0.838  14.739  19.322  0.00  0.00    +0.000 C 
ATOM     26  C   UNL     1      -0.182  15.721  18.731  0.00  0.00    +0.000 C 
ATOM     27  C   UNL     1       1.288  13.735  18.246  0.00  0.00    +0.000 C 
ATOM     28  C   UNL     1       2.040  12.532  18.802  0.00  0.00    +0.000 C 
ENDBRANCH  19  22
ENDBRANCH   4  19
TORSDOF 5
ENDMDL
MODEL 3
REMARK VINA RESULT:      -8.0      1.815      2.279
REMARK  Name = 
REMARK  7 active torsions:
REMARK  status: ('A' for Active; 'I' for Inactive)
REMARK    1  A    between atoms: C_1  and  C_2
REMARK    2  A    between atoms: C_2  and  N_3
REMARK    3  A    between atoms: N_3  and  C_22
REMARK    4  A    between atoms: C_4  and  C_6
REMARK    5  A    between atoms: C_9  and  S_10
REMARK    6  A    between atoms: S_10  and  N_13
REMARK    7  A    between atoms: C_16  and  C_17
REMARK                            x       y       z     vdW  Elec       q    Type
REMARK                         _______ _______ _______ _____ _____    ______ ____
ROOT
ATOM      1  C   UNL     1       2.215   7.009  19.321  0.00  0.00    +0.000 A 
ATOM      2  C   UNL     1       2.142   7.933  18.266  0.00  0.00    +0.000 A 
ATOM      3  C   UNL     1       1.696   9.256  18.448  0.00  0.00    +0.000 A 
ATOM      4  C   UNL     1       1.278   9.679  19.704  0.00  0.00    +0.000 A 
ATOM      5  C   UNL     1       1.364   8.806  20.786  0.00  0.00    +0.000 A 
ATOM      6  C   UNL     1       1.831   7.494  20.591  0.00  0.00    +0.000 A 
ENDROOT
BRANCH   1   8
ATOM      7  N   UNL     1       3.588   4.908  18.509  0.00  0.00    +0.000 N 
ATOM      8  C   UNL     1       2.526   5.514  19.247  0.00  0.00    +0.000 C 
ATOM      9  O   UNL     1       1.747   4.809  19.896  0.00  0.00    +0.000 OA
BRANCH   7  10
ATOM     10  C   UNL     1       4.363   5.659  17.501  0.00  0.00    +0.000 C 
ATOM     11  C   UNL     1       4.552   4.835  16.206  0.00  0.00    +0.000 C 
ATOM     12  C   UNL     1       5.846   4.055  16.314  0.00  0.00    +0.000 C 
ATOM     13  S   UNL     1       6.962   5.173  17.123  0.00  0.00    +0.000 S 
ATOM     14  O   UNL     1       7.636   5.945  16.099  0.00  0.00    +0.000 OA
ATOM     15  O   UNL     1       7.683   4.430  18.136  0.00  0.00    +0.000 OA
ATOM     16  C   UNL     1       5.742   6.210  17.902  0.00  0.00    +0.000 C 
ENDBRANCH   7  10
BRANCH   7  18
ATOM     17  C   UNL     1       4.311   2.549  19.387  0.00  0.00    +0.000 C 
ATOM     18  C   UNL     1       3.578   3.423  18.374  0.00  0.00    +0.000 C 
ENDBRANCH   7  18
ENDBRANCH   1   8
BRANCH   4  19
ATOM     19  S   UNL     1       0.714  11.352  19.958  0.00  0.00    +0.000 S 
ATOM     20  O   UNL     1       1.555  11.904  20.998  0.00  0.00    +0.000 OA
ATOM     21  O   UNL     1       0.612  11.981  18.665  0.00  0.00    +0.000 OA
BRANCH  19  22
ATOM     22  N   UNL     1      -0.854  11.115  20.578  0.00  0.00    +0.000 NA
ATOM     23  C   UNL     1      -1.974  11.849  19.958  0.00  0.00    +0.000 C 
ATOM     24  C   UNL     1      -2.081  13.252  20.549  0.00  0.00    +0.000 C 
ATOM     25  C   UNL     1      -2.174  13.247  22.084  0.00  0.00    +0.000 C 
ATOM     26  C   UNL     1      -1.997  14.670  22.628  0.00  0.00    +0.000 C 
ATOM     27  C   UNL     1      -1.150  12.301  22.736  0.00  0.00    +0.000 C 
ATOM     28  C   UNL     1      -1.023  10.953  22.037  0.00  0.00    +0.000 C 
ENDBRANCH  19  22
ENDBRANCH   4  19
TORSDOF 5
ENDMDL
MODEL 4
REMARK VINA RESULT:      -8.0      1.343      2.193
REMARK  Name = 
REMARK  7 active torsions:
REMARK  status: ('A' for Active; 'I' for Inactive)
REMARK    1  A    between atoms: C_1  and  C_2
REMARK    2  A    between atoms: C_2  and  N_3
REMARK    3  A    between atoms: N_3  and  C_22
REMARK    4  A    between atoms: C_4  and  C_6
REMARK    5  A    between atoms: C_9  and  S_10
REMARK    6  A    between atoms: S_10  and  N_13
REMARK    7  A    between atoms: C_16  and  C_17
REMARK                            x       y       z     vdW  Elec       q    Type
REMARK                         _______ _______ _______ _____ _____    ______ ____
ROOT
ATOM      1  C   UNL     1       2.303   6.498  19.646  0.00  0.00    +0.000 A 
ATOM      2  C   UNL     1       2.409   7.507  18.676  0.00  0.00    +0.000 A 
ATOM      3  C   UNL     1       1.846   8.787  18.850  0.00  0.00    +0.000 A 
ATOM      4  C   UNL     1       1.127   9.075  20.004  0.00  0.00    +0.000 A 
ATOM      5  C   UNL     1       1.025   8.114  21.008  0.00  0.00    +0.000 A 
ATOM      6  C   UNL     1       1.610   6.849  20.826  0.00  0.00    +0.000 A 
ENDROOT
BRANCH   1   8
ATOM      7  N   UNL     1       3.768   4.513  18.711  0.00  0.00    +0.000 N 
ATOM      8  C   UNL     1       2.721   5.031  19.532  0.00  0.00    +0.000 C 
ATOM      9  O   UNL     1       2.049   4.264  20.229  0.00  0.00    +0.000 OA
BRANCH   7  10
ATOM     10  C   UNL     1       4.406   5.328  17.658  0.00  0.00    +0.000 C 
ATOM     11  C   UNL     1       4.588   4.518  16.352  0.00  0.00    +0.000 C 
ATOM     12  C   UNL     1       5.953   3.861  16.378  0.00  0.00    +0.000 C 
ATOM     13  S   UNL     1       7.010   5.080  17.116  0.00  0.00    +0.000 S 
ATOM     14  O   UNL     1       7.544   5.907  16.053  0.00  0.00    +0.000 OA
ATOM     15  O   UNL     1       7.858   4.413  18.082  0.00  0.00    +0.000 OA
ATOM     16  C   UNL     1       5.751   6.005  17.972  0.00  0.00    +0.000 C 
ENDBRANCH   7  10
BRANCH   7  18
ATOM     17  C   UNL     1       4.468   2.179  19.670  0.00  0.00    +0.000 C 
ATOM     18  C   UNL     1       3.862   3.033  18.560  0.00  0.00    +0.000 C 
ENDBRANCH   7  18
ENDBRANCH   1   8
BRANCH   4  19
ATOM     19  S   UNL     1       0.411  10.691  20.248  0.00  0.00    +0.000 S 
ATOM     20  O   UNL     1      -0.770  10.487  21.058  0.00  0.00    +0.000 OA
ATOM     21  O   UNL     1       1.466  11.578  20.671  0.00  0.00    +0.000 OA
BRANCH  19  22
ATOM     22  N   UNL     1      -0.064  11.117  18.670  0.00  0.00    +0.000 NA
ATOM     23  C   UNL     1      -0.514  12.500  18.419  0.00  0.00    +0.000 C 
ATOM     24  C   UNL     1      -1.991  12.649  18.777  0.00  0.00    +0.000 C 
ATOM     25  C   UNL     1      -2.882  11.615  18.070  0.00  0.00    +0.000 C 
ATOM     26  C   UNL     1      -4.292  11.633  18.675  0.00  0.00    +0.000 C 
ATOM     27  C   UNL     1      -2.300  10.192  18.130  0.00  0.00    +0.000 C 
ATOM     28  C   UNL     1      -0.802  10.126  17.860  0.00  0.00    +0.000 C 
ENDBRANCH  19  22
ENDBRANCH   4  19
TORSDOF 5
ENDMDL
MODEL 5
REMARK VINA RESULT:      -8.0      1.811      2.449
REMARK  Name = 
REMARK  7 active torsions:
REMARK  status: ('A' for Active; 'I' for Inactive)
REMARK    1  A    between atoms: C_1  and  C_2
REMARK    2  A    between atoms: C_2  and  N_3
REMARK    3  A    between atoms: N_3  and  C_22
REMARK    4  A    between atoms: C_4  and  C_6
REMARK    5  A    between atoms: C_9  and  S_10
REMARK    6  A    between atoms: S_10  and  N_13
REMARK    7  A    between atoms: C_16  and  C_17
REMARK                            x       y       z     vdW  Elec       q    Type
REMARK                         _______ _______ _______ _____ _____    ______ ____
ROOT
ATOM      1  C   UNL     1       2.306   6.915  19.252  0.00  0.00    +0.000 A 
ATOM      2  C   UNL     1       2.259   7.817  18.177  0.00  0.00    +0.000 A 
ATOM      3  C   UNL     1       1.795   9.139  18.318  0.00  0.00    +0.000 A 
ATOM      4  C   UNL     1       1.333   9.583  19.551  0.00  0.00    +0.000 A 
ATOM      5  C   UNL     1       1.391   8.733  20.653  0.00  0.00    +0.000 A 
ATOM      6  C   UNL     1       1.876   7.422  20.499  0.00  0.00    +0.000 A 
ENDROOT
BRANCH   1   8
ATOM      7  N   UNL     1       3.679   4.803  18.471  0.00  0.00    +0.000 N 
ATOM      8  C   UNL     1       2.632   5.422  19.219  0.00  0.00    +0.000 C 
ATOM      9  O   UNL     1       1.880   4.730  19.913  0.00  0.00    +0.000 OA
BRANCH   7  10
ATOM     10  C   UNL     1       4.417   5.529  17.418  0.00  0.00    +0.000 C 
ATOM     11  C   UNL     1       4.613   4.650  16.160  0.00  0.00    +0.000 C 
ATOM     12  C   UNL     1       5.932   3.915  16.286  0.00  0.00    +0.000 C 
ATOM     13  S   UNL     1       7.024   5.104  17.023  0.00  0.00    +0.000 S 
ATOM     14  O   UNL     1       7.659   5.846  15.954  0.00  0.00    +0.000 OA
ATOM     15  O   UNL     1       7.782   4.433  18.060  0.00  0.00    +0.000 OA
ATOM     16  C   UNL     1       5.783   6.139  17.771  0.00  0.00    +0.000 C 
ENDBRANCH   7  10
BRANCH   7  18
ATOM     17  C   UNL     1       4.402   2.481  19.442  0.00  0.00    +0.000 C 
ATOM     18  C   UNL     1       3.683   3.315  18.385  0.00  0.00    +0.000 C 
ENDBRANCH   7  18
ENDBRANCH   1   8
BRANCH   4  19
ATOM     19  S   UNL     1       0.747  11.256  19.752  0.00  0.00    +0.000 S 
ATOM     20  O   UNL     1       1.285  11.720  21.012  0.00  0.00    +0.000 OA
ATOM     21  O   UNL     1       1.005  11.961  18.521  0.00  0.00    +0.000 OA
BRANCH  19  22
ATOM     22  N   UNL     1      -0.933  11.033  19.914  0.00  0.00    +0.000 NA
ATOM     23  C   UNL     1      -1.523   9.764  19.447  0.00  0.00    +0.000 C 
ATOM     24  C   UNL     1      -1.796   9.827  17.946  0.00  0.00    +0.000 C 
ATOM     25  C   UNL     1      -2.650  11.041  17.546  0.00  0.00    +0.000 C 
ATOM     26  C   UNL     1      -2.654  11.204  16.021  0.00  0.00    +0.000 C 
ATOM     27  C   UNL     1      -2.176  12.344  18.215  0.00  0.00    +0.000 C 
ATOM     28  C   UNL     1      -1.827  12.189  19.690  0.00  0.00    +0.000 C 
ENDBRANCH  19  22
ENDBRANCH   4  19
TORSDOF 5
ENDMDL
MODEL 6
REMARK VINA RESULT:      -7.9      2.030      2.583
REMARK  Name = 
REMARK  7 active torsions:
REMARK  status: ('A' for Active; 'I' for Inactive)
REMARK    1  A    between atoms: C_1  and  C_2
REMARK    2  A    between atoms: C_2  and  N_3
REMARK    3  A    between atoms: N_3  and  C_22
REMARK    4  A    between atoms: C_4  and  C_6
REMARK    5  A    between atoms: C_9  and  S_10
REMARK    6  A    between atoms: S_10  and  N_13
REMARK    7  A    between atoms: C_16  and  C_17
REMARK                            x       y       z     vdW  Elec       q    Type
REMARK                         _______ _______ _______ _____ _____    ______ ____
ROOT
ATOM      1  C   UNL     1       2.584   6.709  19.475  0.00  0.00    +0.000 A 
ATOM      2  C   UNL     1       2.549   7.593  18.385  0.00  0.00    +0.000 A 
ATOM      3  C   UNL     1       1.852   8.816  18.425  0.00  0.00    +0.000 A 
ATOM      4  C   UNL     1       1.137   9.169  19.564  0.00  0.00    +0.000 A 
ATOM      5  C   UNL     1       1.171   8.336  20.681  0.00  0.00    +0.000 A 
ATOM      6  C   UNL     1       1.889   7.128  20.631  0.00  0.00    +0.000 A 
ENDROOT
BRANCH   1   8
ATOM      7  N   UNL     1       4.242   4.794  18.735  0.00  0.00    +0.000 N 
ATOM      8  C   UNL     1       3.160   5.293  19.524  0.00  0.00    +0.000 C 
ATOM      9  O   UNL     1       2.592   4.549  20.330  0.00  0.00    +0.000 OA
BRANCH   7  10
ATOM     10  C   UNL     1       4.764   5.538  17.572  0.00  0.00    +0.000 C 
ATOM     11  C   UNL     1       4.592   4.730  16.264  0.00  0.00    +0.000 C 
ATOM     12  C   UNL     1       5.844   3.908  16.036  0.00  0.00    +0.000 C 
ATOM     13  S   UNL     1       7.165   4.976  16.546  0.00  0.00    +0.000 S 
ATOM     14  O   UNL     1       7.586   5.744  15.391  0.00  0.00    +0.000 OA
ATOM     15  O   UNL     1       8.093   4.195  17.338  0.00  0.00    +0.000 OA
ATOM     16  C   UNL     1       6.218   6.038  17.616  0.00  0.00    +0.000 C 
ENDBRANCH   7  10
BRANCH   7  18
ATOM     17  C   UNL     1       3.411   2.344  18.330  0.00  0.00    +0.000 C 
ATOM     18  C   UNL     1       4.498   3.326  18.760  0.00  0.00    +0.000 C 
ENDBRANCH   7  18
ENDBRANCH   1   8
BRANCH   4  19
ATOM     19  S   UNL     1       0.252  10.715  19.638  0.00  0.00    +0.000 S 
ATOM     20  O   UNL     1       0.850  11.567  18.634  0.00  0.00    +0.000 OA
ATOM     21  O   UNL     1      -1.158  10.414  19.622  0.00  0.00    +0.000 OA
BRANCH  19  22
ATOM     22  N   UNL     1       0.670  11.298  21.182  0.00  0.00    +0.000 NA
ATOM     23  C   UNL     1       0.383  10.451  22.356  0.00  0.00    +0.000 C 
ATOM     24  C   UNL     1      -1.064  10.642  22.806  0.00  0.00    +0.000 C 
ATOM     25  C   UNL     1      -1.419  12.116  23.058  0.00  0.00    +0.000 C 
ATOM     26  C   UNL     1      -2.935  12.271  23.231  0.00  0.00    +0.000 C 
ATOM     27  C   UNL     1      -0.918  13.046  21.938  0.00  0.00    +0.000 C 
ATOM     28  C   UNL     1       0.498  12.737  21.468  0.00  0.00    +0.000 C 
ENDBRANCH  19  22
ENDBRANCH   4  19
TORSDOF 5
ENDMDL
MODEL 7
REMARK VINA RESULT:      -7.9      1.022      1.144
REMARK  Name = 
REMARK  7 active torsions:
REMARK  status: ('A' for Active; 'I' for Inactive)
REMARK    1  A    between atoms: C_1  and  C_2
REMARK    2  A    between atoms: C_2  and  N_3
REMARK    3  A    between atoms: N_3  and  C_22
REMARK    4  A    between atoms: C_4  and  C_6
REMARK    5  A    between atoms: C_9  and  S_10
REMARK    6  A    between atoms: S_10  and  N_13
REMARK    7  A    between atoms: C_16  and  C_17
REMARK                            x       y       z     vdW  Elec       q    Type
REMARK                         _______ _______ _______ _____ _____    ______ ____
ROOT
ATOM      1  C   UNL     1       2.121   7.118  19.274  0.00  0.00    +0.000 A 
ATOM      2  C   UNL     1       1.884   8.149  18.350  0.00  0.00    +0.000 A 
ATOM      3  C   UNL     1       1.332   9.389  18.725  0.00  0.00    +0.000 A 
ATOM      4  C   UNL     1       0.972   9.614  20.049  0.00  0.00    +0.000 A 
ATOM      5  C   UNL     1       1.219   8.632  21.005  0.00  0.00    +0.000 A 
ATOM      6  C   UNL     1       1.790   7.406  20.616  0.00  0.00    +0.000 A 
ENDROOT
BRANCH   1   8
ATOM      7  N   UNL     1       3.879   5.257  18.637  0.00  0.00    +0.000 N 
ATOM      8  C   UNL     1       2.563   5.681  18.993  0.00  0.00    +0.000 C 
ATOM      9  O   UNL     1       1.653   4.851  19.085  0.00  0.00    +0.000 OA
BRANCH   7  10
ATOM     10  C   UNL     1       4.926   6.219  18.238  0.00  0.00    +0.000 C 
ATOM     11  C   UNL     1       4.627   6.832  16.850  0.00  0.00    +0.000 C 
ATOM     12  C   UNL     1       5.300   5.982  15.792  0.00  0.00    +0.000 C 
ATOM     13  S   UNL     1       6.851   5.524  16.523  0.00  0.00    +0.000 S 
ATOM     14  O   UNL     1       7.823   6.541  16.174  0.00  0.00    +0.000 OA
ATOM     15  O   UNL     1       7.072   4.117  16.261  0.00  0.00    +0.000 OA
ATOM     16  C   UNL     1       6.389   5.745  18.228  0.00  0.00    +0.000 C 
ENDBRANCH   7  10
BRANCH   7  18
ATOM     17  C   UNL     1       4.318   2.732  19.176  0.00  0.00    +0.000 C 
ATOM     18  C   UNL     1       4.052   3.851  18.173  0.00  0.00    +0.000 C 
ENDBRANCH   7  18
ENDBRANCH   1   8
BRANCH   4  19
ATOM     19  S   UNL     1       0.276  11.180  20.547  0.00  0.00    +0.000 S 
ATOM     20  O   UNL     1      -1.027  11.255  19.923  0.00  0.00    +0.000 OA
ATOM     21  O   UNL     1       0.432  11.293  21.975  0.00  0.00    +0.000 OA
BRANCH  19  22
ATOM     22  N   UNL     1       1.318  12.294  19.791  0.00  0.00    +0.000 NA
ATOM     23  C   UNL     1       2.130  13.186  20.641  0.00  0.00    +0.000 C 
ATOM     24  C   UNL     1       1.316  14.410  21.056  0.00  0.00    +0.000 C 
ATOM     25  C   UNL     1       0.705  15.153  19.857  0.00  0.00    +0.000 C 
ATOM     26  C   UNL     1      -0.316  16.189  20.344  0.00  0.00    +0.000 C 
ATOM     27  C   UNL     1       0.049  14.201  18.842  0.00  0.00    +0.000 C 
ATOM     28  C   UNL     1       0.871  12.953  18.546  0.00  0.00    +0.000 C 
ENDBRANCH  19  22
ENDBRANCH   4  19
TORSDOF 5
ENDMDL
MODEL 8
REMARK VINA RESULT:      -7.8      1.602      2.049
REMARK  Name = 
REMARK  7 active torsions:
REMARK  status: ('A' for Active; 'I' for Inactive)
REMARK    1  A    between atoms: C_1  and  C_2
REMARK    2  A    between atoms: C_2  and  N_3
REMARK    3  A    between atoms: N_3  and  C_22
REMARK    4  A    between atoms: C_4  and  C_6
REMARK    5  A    between atoms: C_9  and  S_10
REMARK    6  A    between atoms: S_10  and  N_13
REMARK    7  A    between atoms: C_16  and  C_17
REMARK                            x       y       z     vdW  Elec       q    Type
REMARK                         _______ _______ _______ _____ _____    ______ ____
ROOT
ATOM      1  C   UNL     1       2.280   7.206  19.078  0.00  0.00    +0.000 A 
ATOM      2  C   UNL     1       2.326   7.993  17.917  0.00  0.00    +0.000 A 
ATOM      3  C   UNL     1       1.803   9.300  17.867  0.00  0.00    +0.000 A 
ATOM      4  C   UNL     1       1.184   9.841  18.987  0.00  0.00    +0.000 A 
ATOM      5  C   UNL     1       1.144   9.107  20.171  0.00  0.00    +0.000 A 
ATOM      6  C   UNL     1       1.690   7.812  20.209  0.00  0.00    +0.000 A 
ENDROOT
BRANCH   1   8
ATOM      7  N   UNL     1       3.734   5.062  18.574  0.00  0.00    +0.000 N 
ATOM      8  C   UNL     1       2.660   5.733  19.236  0.00  0.00    +0.000 C 
ATOM      9  O   UNL     1       1.931   5.109  20.013  0.00  0.00    +0.000 OA
BRANCH   7  10
ATOM     10  C   UNL     1       4.450   5.674  17.437  0.00  0.00    +0.000 C 
ATOM     11  C   UNL     1       4.539   4.701  16.238  0.00  0.00    +0.000 C 
ATOM     12  C   UNL     1       5.826   3.911  16.353  0.00  0.00    +0.000 C 
ATOM     13  S   UNL     1       7.010   5.091  16.950  0.00  0.00    +0.000 S 
ATOM     14  O   UNL     1       7.624   5.723  15.800  0.00  0.00    +0.000 OA
ATOM     15  O   UNL     1       7.787   4.456  17.994  0.00  0.00    +0.000 OA
ATOM     16  C   UNL     1       5.860   6.238  17.679  0.00  0.00    +0.000 C 
ENDBRANCH   7  10
BRANCH   7  18
ATOM     17  C   UNL     1       4.618   2.911  19.777  0.00  0.00    +0.000 C 
ATOM     18  C   UNL     1       3.792   3.577  18.680  0.00  0.00    +0.000 C 
ENDBRANCH   7  18
ENDBRANCH   1   8
BRANCH   4  19
ATOM     19  S   UNL     1       0.520  11.496  18.947  0.00  0.00    +0.000 S 
ATOM     20  O   UNL     1       1.581  12.341  18.444  0.00  0.00    +0.000 OA
ATOM     21  O   UNL     1      -0.765  11.436  18.295  0.00  0.00    +0.000 OA
BRANCH  19  22
ATOM     22  N   UNL     1       0.280  11.829  20.600  0.00  0.00    +0.000 NA
ATOM     23  C   UNL     1      -1.073  11.656  21.164  0.00  0.00    +0.000 C 
ATOM     24  C   UNL     1      -1.915  12.904  20.912  0.00  0.00    +0.000 C 
ATOM     25  C   UNL     1      -1.240  14.190  21.415  0.00  0.00    +0.000 C 
ATOM     26  C   UNL     1      -1.992  15.420  20.891  0.00  0.00    +0.000 C 
ATOM     27  C   UNL     1       0.245  14.272  21.022  0.00  0.00    +0.000 C 
ATOM     28  C   UNL     1       1.005  12.964  21.207  0.00  0.00    +0.000 C 
ENDBRANCH  19  22
ENDBRANCH   4  19
TORSDOF 5
ENDMDL
MODEL 9
REMARK VINA RESULT:      -7.8      2.710      8.610
REMARK  Name = 
REMARK  7 active torsions:
REMARK  status: ('A' for Active; 'I' for Inactive)
REMARK    1  A    between atoms: C_1  and  C_2
REMARK    2  A    between atoms: C_2  and  N_3
REMARK    3  A    between atoms: N_3  and  C_22
REMARK    4  A    between atoms: C_4  and  C_6
REMARK    5  A    between atoms: C_9  and  S_10
REMARK    6  A    between atoms: S_10  and  N_13
REMARK    7  A    between atoms: C_16  and  C_17
REMARK                            x       y       z     vdW  Elec       q    Type
REMARK                         _______ _______ _______ _____ _____    ______ ____
ROOT
ATOM      1  C   UNL     1       2.099   7.291  18.747  0.00  0.00    +0.000 A 
ATOM      2  C   UNL     1       2.244   6.783  20.048  0.00  0.00    +0.000 A 
ATOM      3  C   UNL     1       2.107   5.413  20.345  0.00  0.00    +0.000 A 
ATOM      4  C   UNL     1       1.786   4.514  19.335  0.00  0.00    +0.000 A 
ATOM      5  C   UNL     1       1.665   4.969  18.024  0.00  0.00    +0.000 A 
ATOM      6  C   UNL     1       1.825   6.338  17.741  0.00  0.00    +0.000 A 
ENDROOT
BRANCH   1   8
ATOM      7  N   UNL     1       1.416   9.828  18.985  0.00  0.00    +0.000 N 
ATOM      8  C   UNL     1       2.065   8.753  18.303  0.00  0.00    +0.000 C 
ATOM      9  O   UNL     1       2.661   8.968  17.243  0.00  0.00    +0.000 OA
BRANCH   7  10
ATOM     10  C   UNL     1       0.463   9.587  20.086  0.00  0.00    +0.000 C 
ATOM     11  C   UNL     1      -0.956  10.087  19.723  0.00  0.00    +0.000 C 
ATOM     12  C   UNL     1      -1.098  11.520  20.192  0.00  0.00    +0.000 C 
ATOM     13  S   UNL     1      -0.244  11.555  21.748  0.00  0.00    +0.000 S 
ATOM     14  O   UNL     1      -1.201  11.231  22.786  0.00  0.00    +0.000 OA
ATOM     15  O   UNL     1       0.567  12.755  21.786  0.00  0.00    +0.000 OA
ATOM     16  C   UNL     1       0.803  10.140  21.481  0.00  0.00    +0.000 C 
ENDBRANCH   7  10
BRANCH   7  18
ATOM     17  C   UNL     1       2.240  12.284  18.599  0.00  0.00    +0.000 C 
ATOM     18  C   UNL     1       1.296  11.130  18.270  0.00  0.00    +0.000 C 
ENDBRANCH   7  18
ENDBRANCH   1   8
BRANCH   4  19
ATOM     19  S   UNL     1       1.613   2.774  19.688  0.00  0.00    +0.000 S 
ATOM     20  O   UNL     1       1.426   2.673  21.119  0.00  0.00    +0.000 OA
ATOM     21  O   UNL     1       0.645   2.234  18.766  0.00  0.00    +0.000 OA
BRANCH  19  22
ATOM     22  N   UNL     1       3.152   2.169  19.284  0.00  0.00    +0.000 NA
ATOM     23  C   UNL     1       4.322   2.660  20.038  0.00  0.00    +0.000 C 
ATOM     24  C   UNL     1       4.816   3.979  19.449  0.00  0.00    +0.000 C 
ATOM     25  C   UNL     1       5.098   3.889  17.940  0.00  0.00    +0.000 C 
ATOM     26  C   UNL     1       5.318   5.292  17.360  0.00  0.00    +0.000 C 
ATOM     27  C   UNL     1       3.978   3.169  17.170  0.00  0.00    +0.000 C 
ATOM     28  C   UNL     1       3.462   1.913  17.862  0.00  0.00    +0.000 C 
ENDBRANCH  19  22
ENDBRANCH   4  19
TORSDOF 5
ENDMDL
