MODEL 1
REMARK VINA RESULT:      -7.3      0.000      0.000
REMARK  Name = 
REMARK  13 active torsions:
REMARK  status: ('A' for Active; 'I' for Inactive)
REMARK    1  A    between atoms: C_1  and  C_2
REMARK    2  A    between atoms: C_2  and  C_3
REMARK    3  A    between atoms: C_3  and  C_4
REMARK    4  A    between atoms: C_4  and  C_5
REMARK    5  A    between atoms: C_5  and  C_6
REMARK    6  A    between atoms: C_6  and  C_7
REMARK    7  A    between atoms: C_7  and  C_8
REMARK    8  A    between atoms: C_7  and  C_9
REMARK    9  A    between atoms: C_7  and  C_10
REMARK   10  A    between atoms: C_13  and  C_14
REMARK   11  A    between atoms: C_18  and  O_19
REMARK   12  A    between atoms: O_19  and  C_20
REMARK   13  A    between atoms: C_22  and  O_23
REMARK                            x       y       z     vdW  Elec       q    Type
REMARK                         _______ _______ _______ _____ _____    ______ ____
ROOT
ATOM      1  C   UNL     1       2.855   6.885  18.611  0.00  0.00    +0.000 A 
ATOM      2  C   UNL     1       2.261   6.929  19.881  0.00  0.00    +0.000 A 
ATOM      3  C   UNL     1       1.481   8.022  20.285  0.00  0.00    +0.000 A 
ATOM      4  C   UNL     1       1.276   9.142  19.456  0.00  0.00    +0.000 A 
ATOM      5  C   UNL     1       1.890   9.087  18.191  0.00  0.00    +0.000 A 
ATOM      6  C   UNL     1       2.634   7.982  17.770  0.00  0.00    +0.000 A 
ENDROOT
BRANCH   4   7
ATOM      7  C   UNL     1       0.452  10.281  19.936  0.00  0.00    +0.000 A 
ATOM      8  C   UNL     1       0.902  11.129  20.964  0.00  0.00    +0.000 A 
ATOM      9  C   UNL     1       0.127  12.200  21.419  0.00  0.00    +0.000 A 
ATOM     10  C   UNL     1      -1.104  12.476  20.829  0.00  0.00    +0.000 A 
ATOM     11  C   UNL     1      -1.575  11.664  19.803  0.00  0.00    +0.000 A 
ATOM     12  C   UNL     1      -0.817  10.560  19.396  0.00  0.00    +0.000 A 
BRANCH  11  13
ATOM     13  O   UNL     1      -2.743  11.832  19.111  0.00  0.00    +0.000 OA
ATOM     14  C   UNL     1      -2.717  11.524  17.725  0.00  0.00    +0.000 C 
ENDBRANCH  11  13
ENDBRANCH   4   7
BRANCH   1  15
ATOM     15  C   UNL     1       3.755   5.706  18.204  0.00  0.00    +0.000 C 
ATOM     16  C   UNL     1       4.661   5.198  19.354  0.00  0.00    +0.000 C 
ATOM     17  C   UNL     1       4.712   6.171  17.079  0.00  0.00    +0.000 C 
BRANCH  15  18
ATOM     18  C   UNL     1       2.885   4.522  17.671  0.00  0.00    +0.000 C 
BRANCH  18  19
ATOM     19  C   UNL     1       3.425   3.135  18.054  0.00  0.00    +0.000 C 
BRANCH  19  20
ATOM     20  C   UNL     1       2.442   2.326  18.900  0.00  0.00    +0.000 C 
BRANCH  20  21
ATOM     21  C   UNL     1       1.142   3.118  19.073  0.00  0.00    +0.000 C 
BRANCH  21  23
ATOM     22  C   UNL     1       1.741   2.778  21.487  0.00  0.00    +0.000 C 
ATOM     23  C   UNL     1       0.963   3.632  20.497  0.00  0.00    +0.000 C 
ENDBRANCH  21  23
ENDBRANCH  20  21
ENDBRANCH  19  20
ENDBRANCH  18  19
ENDBRANCH  15  18
ENDBRANCH   1  15
BRANCH   5  24
ATOM     24  O   UNL     1       1.863  10.114  17.285  0.00  0.00    +0.000 OA
ATOM     25  H   UNL     1       1.390   9.807  16.492  0.00  0.00    +0.000 HD
ENDBRANCH   5  24
TORSDOF 9
ENDMDL
MODEL 2
REMARK VINA RESULT:      -7.2      1.773      2.638
REMARK  Name = 
REMARK  13 active torsions:
REMARK  status: ('A' for Active; 'I' for Inactive)
REMARK    1  A    between atoms: C_1  and  C_2
REMARK    2  A    between atoms: C_2  and  C_3
REMARK    3  A    between atoms: C_3  and  C_4
REMARK    4  A    between atoms: C_4  and  C_5
REMARK    5  A    between atoms: C_5  and  C_6
REMARK    6  A    between atoms: C_6  and  C_7
REMARK    7  A    between atoms: C_7  and  C_8
REMARK    8  A    between atoms: C_7  and  C_9
REMARK    9  A    between atoms: C_7  and  C_10
REMARK   10  A    between atoms: C_13  and  C_14
REMARK   11  A    between atoms: C_18  and  O_19
REMARK   12  A    between atoms: O_19  and  C_20
REMARK   13  A    between atoms: C_22  and  O_23
REMARK                            x       y       z     vdW  Elec       q    Type
REMARK                         _______ _______ _______ _____ _____    ______ ____
ROOT
ATOM      1  C   UNL     1       3.953   5.965  18.226  0.00  0.00    +0.000 A 
ATOM      2  C   UNL     1       3.701   7.060  17.386  0.00  0.00    +0.000 A 
ATOM      3  C   UNL     1       2.815   8.079  17.762  0.00  0.00    +0.000 A 
ATOM      4  C   UNL     1       2.111   8.048  18.981  0.00  0.00    +0.000 A 
ATOM      5  C   UNL     1       2.366   6.936  19.805  0.00  0.00    +0.000 A 
ATOM      6  C   UNL     1       3.279   5.938  19.451  0.00  0.00    +0.000 A 
ENDROOT
BRANCH   4   7
ATOM      7  C   UNL     1       1.173   9.147  19.327  0.00  0.00    +0.000 A 
ATOM      8  C   UNL     1       0.400   9.788  18.342  0.00  0.00    +0.000 A 
ATOM      9  C   UNL     1      -0.481  10.822  18.665  0.00  0.00    +0.000 A 
ATOM     10  C   UNL     1      -0.644  11.219  19.990  0.00  0.00    +0.000 A 
ATOM     11  C   UNL     1       0.098  10.600  20.992  0.00  0.00    +0.000 A 
ATOM     12  C   UNL     1       1.020   9.604  20.648  0.00  0.00    +0.000 A 
BRANCH  11  13
ATOM     13  O   UNL     1       0.021  10.860  22.332  0.00  0.00    +0.000 OA
ATOM     14  C   UNL     1      -0.301   9.766  23.180  0.00  0.00    +0.000 C 
ENDBRANCH  11  13
ENDBRANCH   4   7
BRANCH   1  15
ATOM     15  C   UNL     1       4.883   4.825  17.775  0.00  0.00    +0.000 C 
ATOM     16  C   UNL     1       6.344   4.993  18.265  0.00  0.00    +0.000 C 
ATOM     17  C   UNL     1       4.948   4.815  16.228  0.00  0.00    +0.000 C 
BRANCH  15  18
ATOM     18  C   UNL     1       4.328   3.449  18.268  0.00  0.00    +0.000 C 
BRANCH  18  19
ATOM     19  C   UNL     1       2.988   3.057  17.628  0.00  0.00    +0.000 C 
BRANCH  19  20
ATOM     20  C   UNL     1       2.147   2.141  18.518  0.00  0.00    +0.000 C 
BRANCH  20  21
ATOM     21  C   UNL     1       0.816   2.825  18.843  0.00  0.00    +0.000 C 
BRANCH  21  23
ATOM     22  C   UNL     1       1.866   2.716  21.122  0.00  0.00    +0.000 C 
ATOM     23  C   UNL     1       0.768   3.345  20.276  0.00  0.00    +0.000 C 
ENDBRANCH  21  23
ENDBRANCH  20  21
ENDBRANCH  19  20
ENDBRANCH  18  19
ENDBRANCH  15  18
ENDBRANCH   1  15
BRANCH   5  24
ATOM     24  O   UNL     1       1.717   6.699  20.988  0.00  0.00    +0.000 OA
ATOM     25  H   UNL     1       0.956   6.121  20.806  0.00  0.00    +0.000 HD
ENDBRANCH   5  24
TORSDOF 9
ENDMDL
MODEL 3
REMARK VINA RESULT:      -7.1      1.466      2.286
REMARK  Name = 
REMARK  13 active torsions:
REMARK  status: ('A' for Active; 'I' for Inactive)
REMARK    1  A    between atoms: C_1  and  C_2
REMARK    2  A    between atoms: C_2  and  C_3
REMARK    3  A    between atoms: C_3  and  C_4
REMARK    4  A    between atoms: C_4  and  C_5
REMARK    5  A    between atoms: C_5  and  C_6
REMARK    6  A    between atoms: C_6  and  C_7
REMARK    7  A    between atoms: C_7  and  C_8
REMARK    8  A    between atoms: C_7  and  C_9
REMARK    9  A    between atoms: C_7  and  C_10
REMARK   10  A    between atoms: C_13  and  C_14
REMARK   11  A    between atoms: C_18  and  O_19
REMARK   12  A    between atoms: O_19  and  C_20
REMARK   13  A    between atoms: C_22  and  O_23
REMARK                            x       y       z     vdW  Elec       q    Type
REMARK                         _______ _______ _______ _____ _____    ______ ____
ROOT
ATOM      1  C   UNL     1       3.227   6.751  18.540  0.00  0.00    +0.000 A 
ATOM      2  C   UNL     1       2.991   7.774  17.609  0.00  0.00    +0.000 A 
ATOM      3  C   UNL     1       2.130   8.842  17.900  0.00  0.00    +0.000 A 
ATOM      4  C   UNL     1       1.436   8.932  19.123  0.00  0.00    +0.000 A 
ATOM      5  C   UNL     1       1.675   7.891  20.039  0.00  0.00    +0.000 A 
ATOM      6  C   UNL     1       2.563   6.847  19.767  0.00  0.00    +0.000 A 
ENDROOT
BRANCH   4   7
ATOM      7  C   UNL     1       0.524  10.077  19.378  0.00  0.00    +0.000 A 
ATOM      8  C   UNL     1      -0.484  10.429  18.463  0.00  0.00    +0.000 A 
ATOM      9  C   UNL     1      -1.341  11.507  18.700  0.00  0.00    +0.000 A 
ATOM     10  C   UNL     1      -1.239  12.239  19.880  0.00  0.00    +0.000 A 
ATOM     11  C   UNL     1      -0.259  11.912  20.812  0.00  0.00    +0.000 A 
ATOM     12  C   UNL     1       0.631  10.867  20.537  0.00  0.00    +0.000 A 
BRANCH  11  13
ATOM     13  O   UNL     1      -0.062  12.517  22.023  0.00  0.00    +0.000 OA
ATOM     14  C   UNL     1      -1.131  12.447  22.956  0.00  0.00    +0.000 C 
ENDBRANCH  11  13
ENDBRANCH   4   7
BRANCH   1  15
ATOM     15  C   UNL     1       4.128   5.557  18.183  0.00  0.00    +0.000 C 
ATOM     16  C   UNL     1       4.651   4.788  19.424  0.00  0.00    +0.000 C 
ATOM     17  C   UNL     1       5.383   6.080  17.442  0.00  0.00    +0.000 C 
BRANCH  15  18
ATOM     18  C   UNL     1       3.364   4.565  17.247  0.00  0.00    +0.000 C 
BRANCH  18  19
ATOM     19  C   UNL     1       1.975   4.166  17.769  0.00  0.00    +0.000 C 
BRANCH  19  20
ATOM     20  C   UNL     1       1.856   2.670  18.064  0.00  0.00    +0.000 C 
BRANCH  20  21
ATOM     21  C   UNL     1       0.970   2.462  19.296  0.00  0.00    +0.000 C 
BRANCH  21  23
ATOM     22  C   UNL     1       1.923   3.306  21.460  0.00  0.00    +0.000 C 
ATOM     23  C   UNL     1       1.042   3.638  20.265  0.00  0.00    +0.000 C 
ENDBRANCH  21  23
ENDBRANCH  20  21
ENDBRANCH  19  20
ENDBRANCH  18  19
ENDBRANCH  15  18
ENDBRANCH   1  15
BRANCH   5  24
ATOM     24  O   UNL     1       1.032   7.772  21.243  0.00  0.00    +0.000 OA
ATOM     25  H   UNL     1       1.691   7.880  21.951  0.00  0.00    +0.000 HD
ENDBRANCH   5  24
TORSDOF 9
ENDMDL
MODEL 4
REMARK VINA RESULT:      -7.1      2.259      7.719
REMARK  Name = 
REMARK  13 active torsions:
REMARK  status: ('A' for Active; 'I' for Inactive)
REMARK    1  A    between atoms: C_1  and  C_2
REMARK    2  A    between atoms: C_2  and  C_3
REMARK    3  A    between atoms: C_3  and  C_4
REMARK    4  A    between atoms: C_4  and  C_5
REMARK    5  A    between atoms: C_5  and  C_6
REMARK    6  A    between atoms: C_6  and  C_7
REMARK    7  A    between atoms: C_7  and  C_8
REMARK    8  A    between atoms: C_7  and  C_9
REMARK    9  A    between atoms: C_7  and  C_10
REMARK   10  A    between atoms: C_13  and  C_14
REMARK   11  A    between atoms: C_18  and  O_19
REMARK   12  A    between atoms: O_19  and  C_20
REMARK   13  A    between atoms: C_22  and  O_23
REMARK                            x       y       z     vdW  Elec       q    Type
REMARK                         _______ _______ _______ _____ _____    ______ ____
ROOT
ATOM      1  C   UNL     1       0.912  10.136  19.274  0.00  0.00    +0.000 A 
ATOM      2  C   UNL     1       1.415   9.952  17.978  0.00  0.00    +0.000 A 
ATOM      3  C   UNL     1       2.091   8.777  17.617  0.00  0.00    +0.000 A 
ATOM      4  C   UNL     1       2.325   7.736  18.536  0.00  0.00    +0.000 A 
ATOM      5  C   UNL     1       1.825   7.943  19.834  0.00  0.00    +0.000 A 
ATOM      6  C   UNL     1       1.116   9.095  20.186  0.00  0.00    +0.000 A 
ENDROOT
BRANCH   4   7
ATOM      7  C   UNL     1       3.058   6.516  18.107  0.00  0.00    +0.000 A 
ATOM      8  C   UNL     1       4.331   6.597  17.512  0.00  0.00    +0.000 A 
ATOM      9  C   UNL     1       5.020   5.452  17.107  0.00  0.00    +0.000 A 
ATOM     10  C   UNL     1       4.473   4.190  17.320  0.00  0.00    +0.000 A 
ATOM     11  C   UNL     1       3.220   4.072  17.915  0.00  0.00    +0.000 A 
ATOM     12  C   UNL     1       2.514   5.230  18.264  0.00  0.00    +0.000 A 
BRANCH  11  13
ATOM     13  O   UNL     1       2.575   2.905  18.216  0.00  0.00    +0.000 OA
ATOM     14  C   UNL     1       3.356   1.718  18.202  0.00  0.00    +0.000 C 
ENDBRANCH  11  13
ENDBRANCH   4   7
BRANCH   1  15
ATOM     15  C   UNL     1       0.224  11.453  19.671  0.00  0.00    +0.000 C 
ATOM     16  C   UNL     1       0.369  12.568  18.605  0.00  0.00    +0.000 C 
ATOM     17  C   UNL     1       0.893  11.999  20.957  0.00  0.00    +0.000 C 
BRANCH  15  18
ATOM     18  C   UNL     1      -1.293  11.206  19.956  0.00  0.00    +0.000 C 
BRANCH  18  19
ATOM     19  C   UNL     1      -2.196  11.419  18.731  0.00  0.00    +0.000 C 
BRANCH  19  20
ATOM     20  C   UNL     1      -2.650  10.108  18.089  0.00  0.00    +0.000 C 
BRANCH  20  21
ATOM     21  C   UNL     1      -2.029   9.981  16.694  0.00  0.00    +0.000 C 
BRANCH  21  23
ATOM     22  C   UNL     1      -3.314  10.038  14.537  0.00  0.00    +0.000 C 
ATOM     23  C   UNL     1      -2.726  10.869  15.668  0.00  0.00    +0.000 C 
ENDBRANCH  21  23
ENDBRANCH  20  21
ENDBRANCH  19  20
ENDBRANCH  18  19
ENDBRANCH  15  18
ENDBRANCH   1  15
BRANCH   5  24
ATOM     24  O   UNL     1       2.025   7.076  20.876  0.00  0.00    +0.000 OA
ATOM     25  H   UNL     1       1.381   7.288  21.575  0.00  0.00    +0.000 HD
ENDBRANCH   5  24
TORSDOF 9
ENDMDL
MODEL 5
REMARK VINA RESULT:      -7.0      1.175      1.964
REMARK  Name = 
REMARK  13 active torsions:
REMARK  status: ('A' for Active; 'I' for Inactive)
REMARK    1  A    between atoms: C_1  and  C_2
REMARK    2  A    between atoms: C_2  and  C_3
REMARK    3  A    between atoms: C_3  and  C_4
REMARK    4  A    between atoms: C_4  and  C_5
REMARK    5  A    between atoms: C_5  and  C_6
REMARK    6  A    between atoms: C_6  and  C_7
REMARK    7  A    between atoms: C_7  and  C_8
REMARK    8  A    between atoms: C_7  and  C_9
REMARK    9  A    between atoms: C_7  and  C_10
REMARK   10  A    between atoms: C_13  and  C_14
REMARK   11  A    between atoms: C_18  and  O_19
REMARK   12  A    between atoms: O_19  and  C_20
REMARK   13  A    between atoms: C_22  and  O_23
REMARK                            x       y       z     vdW  Elec       q    Type
REMARK                         _______ _______ _______ _____ _____    ______ ____
ROOT
ATOM      1  C   UNL     1       3.002   7.030  18.592  0.00  0.00    +0.000 A 
ATOM      2  C   UNL     1       2.340   7.062  19.829  0.00  0.00    +0.000 A 
ATOM      3  C   UNL     1       1.504   8.131  20.182  0.00  0.00    +0.000 A 
ATOM      4  C   UNL     1       1.305   9.238  19.333  0.00  0.00    +0.000 A 
ATOM      5  C   UNL     1       1.986   9.194  18.103  0.00  0.00    +0.000 A 
ATOM      6  C   UNL     1       2.789   8.112  17.732  0.00  0.00    +0.000 A 
ENDROOT
BRANCH   4   7
ATOM      7  C   UNL     1       0.419  10.352  19.759  0.00  0.00    +0.000 A 
ATOM      8  C   UNL     1      -0.897  10.467  19.275  0.00  0.00    +0.000 A 
ATOM      9  C   UNL     1      -1.731  11.515  19.672  0.00  0.00    +0.000 A 
ATOM     10  C   UNL     1      -1.286  12.456  20.596  0.00  0.00    +0.000 A 
ATOM     11  C   UNL     1       0.007  12.367  21.103  0.00  0.00    +0.000 A 
ATOM     12  C   UNL     1       0.853  11.346  20.653  0.00  0.00    +0.000 A 
BRANCH  11  13
ATOM     13  O   UNL     1       0.569  13.195  22.036  0.00  0.00    +0.000 OA
ATOM     14  C   UNL     1       0.835  14.530  21.630  0.00  0.00    +0.000 C 
ENDBRANCH  11  13
ENDBRANCH   4   7
BRANCH   1  15
ATOM     15  C   UNL     1       3.962   5.879  18.244  0.00  0.00    +0.000 C 
ATOM     16  C   UNL     1       4.606   5.217  19.489  0.00  0.00    +0.000 C 
ATOM     17  C   UNL     1       5.134   6.442  17.403  0.00  0.00    +0.000 C 
BRANCH  15  18
ATOM     18  C   UNL     1       3.216   4.789  17.408  0.00  0.00    +0.000 C 
BRANCH  18  19
ATOM     19  C   UNL     1       1.784   4.511  17.890  0.00  0.00    +0.000 C 
BRANCH  19  20
ATOM     20  C   UNL     1       1.698   3.323  18.850  0.00  0.00    +0.000 C 
BRANCH  20  21
ATOM     21  C   UNL     1       0.863   3.714  20.073  0.00  0.00    +0.000 C 
BRANCH  21  23
ATOM     22  C   UNL     1       2.796   2.577  21.203  0.00  0.00    +0.000 C 
ATOM     23  C   UNL     1       1.353   3.036  21.348  0.00  0.00    +0.000 C 
ENDBRANCH  21  23
ENDBRANCH  20  21
ENDBRANCH  19  20
ENDBRANCH  18  19
ENDBRANCH  15  18
ENDBRANCH   1  15
BRANCH   5  24
ATOM     24  O   UNL     1       1.973  10.213  17.187  0.00  0.00    +0.000 OA
ATOM     25  H   UNL     1       1.214  10.077  16.593  0.00  0.00    +0.000 HD
ENDBRANCH   5  24
TORSDOF 9
ENDMDL
MODEL 6
REMARK VINA RESULT:      -7.0      1.330      1.701
REMARK  Name = 
REMARK  13 active torsions:
REMARK  status: ('A' for Active; 'I' for Inactive)
REMARK    1  A    between atoms: C_1  and  C_2
REMARK    2  A    between atoms: C_2  and  C_3
REMARK    3  A    between atoms: C_3  and  C_4
REMARK    4  A    between atoms: C_4  and  C_5
REMARK    5  A    between atoms: C_5  and  C_6
REMARK    6  A    between atoms: C_6  and  C_7
REMARK    7  A    between atoms: C_7  and  C_8
REMARK    8  A    between atoms: C_7  and  C_9
REMARK    9  A    between atoms: C_7  and  C_10
REMARK   10  A    between atoms: C_13  and  C_14
REMARK   11  A    between atoms: C_18  and  O_19
REMARK   12  A    between atoms: O_19  and  C_20
REMARK   13  A    between atoms: C_22  and  O_23
REMARK                            x       y       z     vdW  Elec       q    Type
REMARK                         _______ _______ _______ _____ _____    ______ ____
ROOT
ATOM      1  C   UNL     1       3.534   6.311  18.174  0.00  0.00    +0.000 A 
ATOM      2  C   UNL     1       3.245   7.427  17.375  0.00  0.00    +0.000 A 
ATOM      3  C   UNL     1       2.413   8.458  17.833  0.00  0.00    +0.000 A 
ATOM      4  C   UNL     1       1.802   8.420  19.102  0.00  0.00    +0.000 A 
ATOM      5  C   UNL     1       2.093   7.287  19.885  0.00  0.00    +0.000 A 
ATOM      6  C   UNL     1       2.954   6.277  19.447  0.00  0.00    +0.000 A 
ENDROOT
BRANCH   4   7
ATOM      7  C   UNL     1       0.918   9.532  19.536  0.00  0.00    +0.000 A 
ATOM      8  C   UNL     1       0.880   9.957  20.876  0.00  0.00    +0.000 A 
ATOM      9  C   UNL     1       0.047  11.000  21.288  0.00  0.00    +0.000 A 
ATOM     10  C   UNL     1      -0.742  11.676  20.361  0.00  0.00    +0.000 A 
ATOM     11  C   UNL     1      -0.722  11.289  19.024  0.00  0.00    +0.000 A 
ATOM     12  C   UNL     1       0.073  10.203  18.635  0.00  0.00    +0.000 A 
BRANCH  11  13
ATOM     13  O   UNL     1      -1.414  11.877  18.002  0.00  0.00    +0.000 OA
ATOM     14  C   UNL     1      -2.740  11.418  17.778  0.00  0.00    +0.000 C 
ENDBRANCH  11  13
ENDBRANCH   4   7
BRANCH   1  15
ATOM     15  C   UNL     1       4.401   5.161  17.635  0.00  0.00    +0.000 C 
ATOM     16  C   UNL     1       5.493   4.694  18.631  0.00  0.00    +0.000 C 
ATOM     17  C   UNL     1       5.153   5.650  16.373  0.00  0.00    +0.000 C 
BRANCH  15  18
ATOM     18  C   UNL     1       3.501   3.943  17.248  0.00  0.00    +0.000 C 
BRANCH  18  19
ATOM     19  C   UNL     1       3.869   2.643  17.980  0.00  0.00    +0.000 C 
BRANCH  19  20
ATOM     20  C   UNL     1       2.873   2.276  19.081  0.00  0.00    +0.000 C 
BRANCH  20  21
ATOM     21  C   UNL     1       1.489   2.826  18.722  0.00  0.00    +0.000 C 
BRANCH  21  23
ATOM     22  C   UNL     1       1.579   3.240  21.197  0.00  0.00    +0.000 C 
ATOM     23  C   UNL     1       0.806   3.494  19.911  0.00  0.00    +0.000 C 
ENDBRANCH  21  23
ENDBRANCH  20  21
ENDBRANCH  19  20
ENDBRANCH  18  19
ENDBRANCH  15  18
ENDBRANCH   1  15
BRANCH   5  24
ATOM     24  O   UNL     1       1.531   7.043  21.110  0.00  0.00    +0.000 OA
ATOM     25  H   UNL     1       0.987   6.238  21.038  0.00  0.00    +0.000 HD
ENDBRANCH   5  24
TORSDOF 9
ENDMDL
MODEL 7
REMARK VINA RESULT:      -7.0      2.433      7.996
REMARK  Name = 
REMARK  13 active torsions:
REMARK  status: ('A' for Active; 'I' for Inactive)
REMARK    1  A    between atoms: C_1  and  C_2
REMARK    2  A    between atoms: C_2  and  C_3
REMARK    3  A    between atoms: C_3  and  C_4
REMARK    4  A    between atoms: C_4  and  C_5
REMARK    5  A    between atoms: C_5  and  C_6
REMARK    6  A    between atoms: C_6  and  C_7
REMARK    7  A    between atoms: C_7  and  C_8
REMARK    8  A    between atoms: C_7  and  C_9
REMARK    9  A    between atoms: C_7  and  C_10
REMARK   10  A    between atoms: C_13  and  C_14
REMARK   11  A    between atoms: C_18  and  O_19
REMARK   12  A    between atoms: O_19  and  C_20
REMARK   13  A    between atoms: C_22  and  O_23
REMARK                            x       y       z     vdW  Elec       q    Type
REMARK                         _______ _______ _______ _____ _____    ______ ____
ROOT
ATOM      1  C   UNL     1       1.149   9.670  19.304  0.00  0.00    +0.000 A 
ATOM      2  C   UNL     1       1.700   9.408  18.040  0.00  0.00    +0.000 A 
ATOM      3  C   UNL     1       2.334   8.190  17.758  0.00  0.00    +0.000 A 
ATOM      4  C   UNL     1       2.479   7.179  18.728  0.00  0.00    +0.000 A 
ATOM      5  C   UNL     1       1.932   7.464  19.993  0.00  0.00    +0.000 A 
ATOM      6  C   UNL     1       1.264   8.661  20.266  0.00  0.00    +0.000 A 
ENDROOT
BRANCH   4   7
ATOM      7  C   UNL     1       3.171   5.910  18.384  0.00  0.00    +0.000 A 
ATOM      8  C   UNL     1       2.499   4.864  17.725  0.00  0.00    +0.000 A 
ATOM      9  C   UNL     1       3.147   3.670  17.402  0.00  0.00    +0.000 A 
ATOM     10  C   UNL     1       4.499   3.503  17.693  0.00  0.00    +0.000 A 
ATOM     11  C   UNL     1       5.197   4.521  18.336  0.00  0.00    +0.000 A 
ATOM     12  C   UNL     1       4.522   5.690  18.706  0.00  0.00    +0.000 A 
BRANCH  11  13
ATOM     13  O   UNL     1       6.527   4.512  18.654  0.00  0.00    +0.000 OA
ATOM     14  C   UNL     1       7.446   4.602  17.574  0.00  0.00    +0.000 C 
ENDBRANCH  11  13
ENDBRANCH   4   7
BRANCH   1  15
ATOM     15  C   UNL     1       0.509  11.033  19.615  0.00  0.00    +0.000 C 
ATOM     16  C   UNL     1       1.538  12.187  19.723  0.00  0.00    +0.000 C 
ATOM     17  C   UNL     1      -0.193  10.954  20.993  0.00  0.00    +0.000 C 
BRANCH  15  18
ATOM     18  C   UNL     1      -0.554  11.391  18.525  0.00  0.00    +0.000 C 
BRANCH  18  19
ATOM     19  C   UNL     1      -1.735  10.409  18.466  0.00  0.00    +0.000 C 
BRANCH  19  20
ATOM     20  C   UNL     1      -2.059   9.952  17.043  0.00  0.00    +0.000 C 
BRANCH  20  21
ATOM     21  C   UNL     1      -3.235  10.768  16.499  0.00  0.00    +0.000 C 
BRANCH  21  23
ATOM     22  C   UNL     1      -5.365  11.974  17.059  0.00  0.00    +0.000 C 
ATOM     23  C   UNL     1      -4.081  11.376  17.614  0.00  0.00    +0.000 C 
ENDBRANCH  21  23
ENDBRANCH  20  21
ENDBRANCH  19  20
ENDBRANCH  18  19
ENDBRANCH  15  18
ENDBRANCH   1  15
BRANCH   5  24
ATOM     24  O   UNL     1       2.045   6.634  21.077  0.00  0.00    +0.000 OA
ATOM     25  H   UNL     1       2.487   7.126  21.791  0.00  0.00    +0.000 HD
ENDBRANCH   5  24
TORSDOF 9
ENDMDL
MODEL 8
REMARK VINA RESULT:      -7.0      1.209      1.874
REMARK  Name = 
REMARK  13 active torsions:
REMARK  status: ('A' for Active; 'I' for Inactive)
REMARK    1  A    between atoms: C_1  and  C_2
REMARK    2  A    between atoms: C_2  and  C_3
REMARK    3  A    between atoms: C_3  and  C_4
REMARK    4  A    between atoms: C_4  and  C_5
REMARK    5  A    between atoms: C_5  and  C_6
REMARK    6  A    between atoms: C_6  and  C_7
REMARK    7  A    between atoms: C_7  and  C_8
REMARK    8  A    between atoms: C_7  and  C_9
REMARK    9  A    between atoms: C_7  and  C_10
REMARK   10  A    between atoms: C_13  and  C_14
REMARK   11  A    between atoms: C_18  and  O_19
REMARK   12  A    between atoms: O_19  and  C_20
REMARK   13  A    between atoms: C_22  and  O_23
REMARK                            x       y       z     vdW  Elec       q    Type
REMARK                         _______ _______ _______ _____ _____    ______ ____
ROOT
ATOM      1  C   UNL     1       3.137   6.806  18.523  0.00  0.00    +0.000 A 
ATOM      2  C   UNL     1       2.448   6.789  19.745  0.00  0.00    +0.000 A 
ATOM      3  C   UNL     1       1.560   7.815  20.098  0.00  0.00    +0.000 A 
ATOM      4  C   UNL     1       1.332   8.927  19.264  0.00  0.00    +0.000 A 
ATOM      5  C   UNL     1       2.040   8.934  18.048  0.00  0.00    +0.000 A 
ATOM      6  C   UNL     1       2.896   7.894  17.676  0.00  0.00    +0.000 A 
ENDROOT
BRANCH   4   7
ATOM      7  C   UNL     1       0.390   9.995  19.689  0.00  0.00    +0.000 A 
ATOM      8  C   UNL     1      -0.498  10.594  18.777  0.00  0.00    +0.000 A 
ATOM      9  C   UNL     1      -1.382  11.600  19.174  0.00  0.00    +0.000 A 
ATOM     10  C   UNL     1      -1.431  12.008  20.505  0.00  0.00    +0.000 A 
ATOM     11  C   UNL     1      -0.574  11.429  21.436  0.00  0.00    +0.000 A 
ATOM     12  C   UNL     1       0.349  10.464  21.014  0.00  0.00    +0.000 A 
BRANCH  11  13
ATOM     13  O   UNL     1      -0.531  11.704  22.775  0.00  0.00    +0.000 OA
ATOM     14  C   UNL     1      -1.767  11.679  23.474  0.00  0.00    +0.000 C 
ENDBRANCH  11  13
ENDBRANCH   4   7
BRANCH   1  15
ATOM     15  C   UNL     1       4.152   5.704  18.176  0.00  0.00    +0.000 C 
ATOM     16  C   UNL     1       4.885   5.131  19.415  0.00  0.00    +0.000 C 
ATOM     17  C   UNL     1       5.251   6.303  17.266  0.00  0.00    +0.000 C 
BRANCH  15  18
ATOM     18  C   UNL     1       3.442   4.538  17.412  0.00  0.00    +0.000 C 
BRANCH  18  19
ATOM     19  C   UNL     1       1.956   4.378  17.770  0.00  0.00    +0.000 C 
BRANCH  19  20
ATOM     20  C   UNL     1       1.669   3.104  18.566  0.00  0.00    +0.000 C 
BRANCH  20  21
ATOM     21  C   UNL     1       0.688   3.420  19.699  0.00  0.00    +0.000 C 
BRANCH  21  23
ATOM     22  C   UNL     1       2.734   2.782  21.008  0.00  0.00    +0.000 C 
ATOM     23  C   UNL     1       1.372   3.458  21.062  0.00  0.00    +0.000 C 
ENDBRANCH  21  23
ENDBRANCH  20  21
ENDBRANCH  19  20
ENDBRANCH  18  19
ENDBRANCH  15  18
ENDBRANCH   1  15
BRANCH   5  24
ATOM     24  O   UNL     1       2.003   9.968  17.150  0.00  0.00    +0.000 OA
ATOM     25  H   UNL     1       2.003   9.590  16.253  0.00  0.00    +0.000 HD
ENDBRANCH   5  24
TORSDOF 9
ENDMDL
MODEL 9
REMARK VINA RESULT:      -7.0      2.218      7.708
REMARK  Name = 
REMARK  13 active torsions:
REMARK  status: ('A' for Active; 'I' for Inactive)
REMARK    1  A    between atoms: C_1  and  C_2
REMARK    2  A    between atoms: C_2  and  C_3
REMARK    3  A    between atoms: C_3  and  C_4
REMARK    4  A    between atoms: C_4  and  C_5
REMARK    5  A    between atoms: C_5  and  C_6
REMARK    6  A    between atoms: C_6  and  C_7
REMARK    7  A    between atoms: C_7  and  C_8
REMARK    8  A    between atoms: C_7  and  C_9
REMARK    9  A    between atoms: C_7  and  C_10
REMARK   10  A    between atoms: C_13  and  C_14
REMARK   11  A    between atoms: C_18  and  O_19
REMARK   12  A    between atoms: O_19  and  C_20
REMARK   13  A    between atoms: C_22  and  O_23
REMARK                            x       y       z     vdW  Elec       q    Type
REMARK                         _______ _______ _______ _____ _____    ______ ____
ROOT
ATOM      1  C   UNL     1       1.056   9.675  19.440  0.00  0.00    +0.000 A 
ATOM      2  C   UNL     1       1.505   9.543  18.118  0.00  0.00    +0.000 A 
ATOM      3  C   UNL     1       2.164   8.384  17.683  0.00  0.00    +0.000 A 
ATOM      4  C   UNL     1       2.435   7.307  18.550  0.00  0.00    +0.000 A 
ATOM      5  C   UNL     1       1.988   7.463  19.875  0.00  0.00    +0.000 A 
ATOM      6  C   UNL     1       1.296   8.599  20.301  0.00  0.00    +0.000 A 
ENDROOT
BRANCH   4   7
ATOM      7  C   UNL     1       3.148   6.106  18.043  0.00  0.00    +0.000 A 
ATOM      8  C   UNL     1       4.480   6.179  17.596  0.00  0.00    +0.000 A 
ATOM      9  C   UNL     1       5.151   5.051  17.117  0.00  0.00    +0.000 A 
ATOM     10  C   UNL     1       4.522   3.809  17.110  0.00  0.00    +0.000 A 
ATOM     11  C   UNL     1       3.208   3.699  17.554  0.00  0.00    +0.000 A 
ATOM     12  C   UNL     1       2.526   4.847  17.977  0.00  0.00    +0.000 A 
BRANCH  11  13
ATOM     13  O   UNL     1       2.476   2.546  17.635  0.00  0.00    +0.000 OA
ATOM     14  C   UNL     1       1.345   2.564  18.494  0.00  0.00    +0.000 C 
ENDBRANCH  11  13
ENDBRANCH   4   7
BRANCH   1  15
ATOM     15  C   UNL     1       0.387  10.976  19.917  0.00  0.00    +0.000 C 
ATOM     16  C   UNL     1       1.400  12.079  20.314  0.00  0.00    +0.000 C 
ATOM     17  C   UNL     1      -0.442  10.676  21.190  0.00  0.00    +0.000 C 
BRANCH  15  18
ATOM     18  C   UNL     1      -0.569  11.528  18.809  0.00  0.00    +0.000 C 
BRANCH  18  19
ATOM     19  C   UNL     1      -1.828  10.675  18.596  0.00  0.00    +0.000 C 
BRANCH  19  20
ATOM     20  C   UNL     1      -3.058  11.507  18.230  0.00  0.00    +0.000 C 
BRANCH  20  21
ATOM     21  C   UNL     1      -3.860  10.783  17.144  0.00  0.00    +0.000 C 
BRANCH  21  23
ATOM     22  C   UNL     1      -2.970  10.281  14.850  0.00  0.00    +0.000 C 
ATOM     23  C   UNL     1      -2.990   9.849  16.309  0.00  0.00    +0.000 C 
ENDBRANCH  21  23
ENDBRANCH  20  21
ENDBRANCH  19  20
ENDBRANCH  18  19
ENDBRANCH  15  18
ENDBRANCH   1  15
BRANCH   5  24
ATOM     24  O   UNL     1       2.230   6.555  20.872  0.00  0.00    +0.000 OA
ATOM     25  H   UNL     1       3.194   6.481  20.988  0.00  0.00    +0.000 HD
ENDBRANCH   5  24
TORSDOF 9
ENDMDL
