MODEL 1
REMARK VINA RESULT:      -7.7      0.000      0.000
REMARK  Name = 
REMARK  6 active torsions:
REMARK  status: ('A' for Active; 'I' for Inactive)
REMARK    1  A    between atoms: C_2  and  C_3
REMARK    2  A    between atoms: C_3  and  N_4
REMARK    3  A    between atoms: C_6  and  C_7
REMARK    4  A    between atoms: C_9  and  C_10
REMARK    5  A    between atoms: N_16  and  C_17
REMARK    6  A    between atoms: C_17  and  C_18
REMARK                            x       y       z     vdW  Elec       q    Type
REMARK                         _______ _______ _______ _____ _____    ______ ____
ROOT
ATOM      1  N   UNL     1       5.090   5.410  17.711  0.00  0.00    +0.000 NA
ATOM      2  C   UNL     1       6.505   5.752  17.927  0.00  0.00    +0.000 C 
ATOM      3  C   UNL     1       6.886   4.470  17.132  0.00  0.00    +0.000 C 
ATOM      4  C   UNL     1       5.475   3.990  17.558  0.00  0.00    +0.000 C 
ENDROOT
BRANCH   3   5
ATOM      5  C   UNL     1       6.994   4.676  15.629  0.00  0.00    +0.000 A 
ATOM      6  N   UNL     1       6.358   3.939  14.743  0.00  0.00    +0.000 NA
ATOM      7  C   UNL     1       6.777   4.488  13.557  0.00  0.00    +0.000 A 
ATOM      8  N   UNL     1       7.632   5.508  13.678  0.00  0.00    +0.000 NA
ATOM      9  O   UNL     1       7.764   5.652  15.055  0.00  0.00    +0.000 OA
BRANCH   7  10
ATOM     10  C   UNL     1       6.337   3.986  12.194  0.00  0.00    +0.000 C 
ATOM     11  C   UNL     1       7.017   2.765  11.609  0.00  0.00    +0.000 C 
ATOM     12  C   UNL     1       5.612   2.660  12.093  0.00  0.00    +0.000 C 
ENDBRANCH   7  10
ENDBRANCH   3   5
BRANCH   1  13
ATOM     13  C   UNL     1       4.290   5.611  18.909  0.00  0.00    +0.000 C 
BRANCH  13  15
ATOM     14  O   UNL     1       2.438   7.106  18.804  0.00  0.00    +0.000 OA
ATOM     15  C   UNL     1       2.854   5.973  18.546  0.00  0.00    +0.000 C 
ATOM     16  N   UNL     1       1.994   5.120  17.936  0.00  0.00    +0.000 N 
ATOM     17  H   UNL     1       1.061   5.512  17.813  0.00  0.00    +0.000 HD
BRANCH  16  18
ATOM     18  C   UNL     1       1.982   3.668  17.757  0.00  0.00    +0.000 C 
BRANCH  18  19
ATOM     19  C   UNL     1       1.739   2.950  19.096  0.00  0.00    +0.000 C 
ATOM     20  C   UNL     1       0.928   3.737  20.111  0.00  0.00    +0.000 C 
ATOM     21  C   UNL     1       1.292   3.036  21.398  0.00  0.00    +0.000 C 
ATOM     22  C   UNL     1       2.750   2.672  21.184  0.00  0.00    +0.000 C 
ATOM     23  O   UNL     1       2.988   2.678  19.764  0.00  0.00    +0.000 OA
ENDBRANCH  18  19
ENDBRANCH  16  18
ENDBRANCH  13  15
ENDBRANCH   1  13
TORSDOF 6
ENDMDL
MODEL 2
REMARK VINA RESULT:      -7.3      1.078      1.464
REMARK  Name = 
REMARK  6 active torsions:
REMARK  status: ('A' for Active; 'I' for Inactive)
REMARK    1  A    between atoms: C_2  and  C_3
REMARK    2  A    between atoms: C_3  and  N_4
REMARK    3  A    between atoms: C_6  and  C_7
REMARK    4  A    between atoms: C_9  and  C_10
REMARK    5  A    between atoms: N_16  and  C_17
REMARK    6  A    between atoms: C_17  and  C_18
REMARK                            x       y       z     vdW  Elec       q    Type
REMARK                         _______ _______ _______ _____ _____    ______ ____
ROOT
ATOM      1  N   UNL     1       5.283   5.559  17.666  0.00  0.00    +0.000 NA
ATOM      2  C   UNL     1       6.743   5.586  17.852  0.00  0.00    +0.000 C 
ATOM      3  C   UNL     1       6.828   4.286  17.002  0.00  0.00    +0.000 C 
ATOM      4  C   UNL     1       5.356   4.097  17.452  0.00  0.00    +0.000 C 
ENDROOT
BRANCH   3   5
ATOM      5  C   UNL     1       6.944   4.526  15.504  0.00  0.00    +0.000 A 
ATOM      6  N   UNL     1       6.332   3.794  14.598  0.00  0.00    +0.000 NA
ATOM      7  C   UNL     1       6.749   4.375  13.427  0.00  0.00    +0.000 A 
ATOM      8  N   UNL     1       7.580   5.412  13.577  0.00  0.00    +0.000 NA
ATOM      9  O   UNL     1       7.697   5.530  14.957  0.00  0.00    +0.000 OA
BRANCH   7  10
ATOM     10  C   UNL     1       6.332   3.893  12.049  0.00  0.00    +0.000 C 
ATOM     11  C   UNL     1       6.203   2.403  11.804  0.00  0.00    +0.000 C 
ATOM     12  C   UNL     1       4.975   3.244  11.873  0.00  0.00    +0.000 C 
ENDBRANCH   7  10
ENDBRANCH   3   5
BRANCH   1  13
ATOM     13  C   UNL     1       4.570   5.874  18.894  0.00  0.00    +0.000 C 
BRANCH  13  15
ATOM     14  O   UNL     1       3.429   7.567  17.664  0.00  0.00    +0.000 OA
ATOM     15  C   UNL     1       3.369   6.770  18.606  0.00  0.00    +0.000 C 
ATOM     16  N   UNL     1       2.217   6.739  19.320  0.00  0.00    +0.000 N 
ATOM     17  H   UNL     1       1.541   7.439  19.020  0.00  0.00    +0.000 HD
BRANCH  16  18
ATOM     18  C   UNL     1       1.870   6.201  20.635  0.00  0.00    +0.000 C 
BRANCH  18  19
ATOM     19  C   UNL     1       1.286   4.783  20.514  0.00  0.00    +0.000 C 
ATOM     20  C   UNL     1       2.098   3.692  21.193  0.00  0.00    +0.000 C 
ATOM     21  C   UNL     1       1.586   2.455  20.494  0.00  0.00    +0.000 C 
ATOM     22  C   UNL     1       1.349   2.942  19.076  0.00  0.00    +0.000 C 
ATOM     23  O   UNL     1       1.218   4.374  19.132  0.00  0.00    +0.000 OA
ENDBRANCH  18  19
ENDBRANCH  16  18
ENDBRANCH  13  15
ENDBRANCH   1  13
TORSDOF 6
ENDMDL
MODEL 3
REMARK VINA RESULT:      -7.0      3.810      7.895
REMARK  Name = 
REMARK  6 active torsions:
REMARK  status: ('A' for Active; 'I' for Inactive)
REMARK    1  A    between atoms: C_2  and  C_3
REMARK    2  A    between atoms: C_3  and  N_4
REMARK    3  A    between atoms: C_6  and  C_7
REMARK    4  A    between atoms: C_9  and  C_10
REMARK    5  A    between atoms: N_16  and  C_17
REMARK    6  A    between atoms: C_17  and  C_18
REMARK                            x       y       z     vdW  Elec       q    Type
REMARK                         _______ _______ _______ _____ _____    ______ ____
ROOT
ATOM      1  N   UNL     1       5.944   5.684  17.395  0.00  0.00    +0.000 NA
ATOM      2  C   UNL     1       4.915   5.870  16.359  0.00  0.00    +0.000 C 
ATOM      3  C   UNL     1       4.736   4.325  16.325  0.00  0.00    +0.000 C 
ATOM      4  C   UNL     1       6.182   4.315  16.885  0.00  0.00    +0.000 C 
ENDROOT
BRANCH   3   5
ATOM      5  C   UNL     1       3.726   3.791  17.330  0.00  0.00    +0.000 A 
ATOM      6  N   UNL     1       3.996   3.597  18.603  0.00  0.00    +0.000 NA
ATOM      7  C   UNL     1       2.807   3.106  19.079  0.00  0.00    +0.000 A 
ATOM      8  N   UNL     1       1.839   2.989  18.165  0.00  0.00    +0.000 NA
ATOM      9  O   UNL     1       2.438   3.462  17.003  0.00  0.00    +0.000 OA
BRANCH   7  10
ATOM     10  C   UNL     1       2.579   2.700  20.524  0.00  0.00    +0.000 C 
ATOM     11  C   UNL     1       2.227   3.770  21.538  0.00  0.00    +0.000 C 
ATOM     12  C   UNL     1       1.184   2.797  21.108  0.00  0.00    +0.000 C 
ENDBRANCH   7  10
ENDBRANCH   3   5
BRANCH   1  13
ATOM     13  C   UNL     1       7.102   6.535  17.173  0.00  0.00    +0.000 C 
BRANCH  13  15
ATOM     14  O   UNL     1       7.918   5.837  19.301  0.00  0.00    +0.000 OA
ATOM     15  C   UNL     1       7.867   6.753  18.474  0.00  0.00    +0.000 C 
ATOM     16  N   UNL     1       8.516   7.903  18.783  0.00  0.00    +0.000 N 
ATOM     17  H   UNL     1       8.932   7.891  19.713  0.00  0.00    +0.000 HD
BRANCH  16  18
ATOM     18  C   UNL     1       8.442   9.266  18.258  0.00  0.00    +0.000 C 
BRANCH  18  19
ATOM     19  C   UNL     1       9.590  10.131  18.808  0.00  0.00    +0.000 C 
ATOM     20  C   UNL     1       9.319  10.779  20.156  0.00  0.00    +0.000 C 
ATOM     21  C   UNL     1      10.337  11.895  20.164  0.00  0.00    +0.000 C 
ATOM     22  C   UNL     1      10.373  12.331  18.711  0.00  0.00    +0.000 C 
ATOM     23  O   UNL     1       9.864  11.239  17.925  0.00  0.00    +0.000 OA
ENDBRANCH  18  19
ENDBRANCH  16  18
ENDBRANCH  13  15
ENDBRANCH   1  13
TORSDOF 6
ENDMDL
MODEL 4
REMARK VINA RESULT:      -6.9      1.223      1.688
REMARK  Name = 
REMARK  6 active torsions:
REMARK  status: ('A' for Active; 'I' for Inactive)
REMARK    1  A    between atoms: C_2  and  C_3
REMARK    2  A    between atoms: C_3  and  N_4
REMARK    3  A    between atoms: C_6  and  C_7
REMARK    4  A    between atoms: C_9  and  C_10
REMARK    5  A    between atoms: N_16  and  C_17
REMARK    6  A    between atoms: C_17  and  C_18
REMARK                            x       y       z     vdW  Elec       q    Type
REMARK                         _______ _______ _______ _____ _____    ______ ____
ROOT
ATOM      1  N   UNL     1       5.606   6.076  17.126  0.00  0.00    +0.000 NA
ATOM      2  C   UNL     1       7.032   5.766  17.323  0.00  0.00    +0.000 C 
ATOM      3  C   UNL     1       6.792   4.418  16.584  0.00  0.00    +0.000 C 
ATOM      4  C   UNL     1       5.323   4.627  17.034  0.00  0.00    +0.000 C 
ENDROOT
BRANCH   3   5
ATOM      5  C   UNL     1       6.946   4.499  15.072  0.00  0.00    +0.000 A 
ATOM      6  N   UNL     1       6.312   3.712  14.230  0.00  0.00    +0.000 NA
ATOM      7  C   UNL     1       6.780   4.150  13.017  0.00  0.00    +0.000 A 
ATOM      8  N   UNL     1       7.662   5.152  13.081  0.00  0.00    +0.000 NA
ATOM      9  O   UNL     1       7.762   5.402  14.445  0.00  0.00    +0.000 OA
BRANCH   7  10
ATOM     10  C   UNL     1       6.362   3.552  11.686  0.00  0.00    +0.000 C 
ATOM     11  C   UNL     1       6.794   2.140  11.349  0.00  0.00    +0.000 C 
ATOM     12  C   UNL     1       5.365   2.412  11.668  0.00  0.00    +0.000 C 
ENDBRANCH   7  10
ENDBRANCH   3   5
BRANCH   1  13
ATOM     13  C   UNL     1       5.004   6.654  18.317  0.00  0.00    +0.000 C 
BRANCH  13  15
ATOM     14  O   UNL     1       3.037   7.613  17.372  0.00  0.00    +0.000 OA
ATOM     15  C   UNL     1       3.492   6.772  18.154  0.00  0.00    +0.000 C 
ATOM     16  N   UNL     1       2.601   5.992  18.814  0.00  0.00    +0.000 N 
ATOM     17  H   UNL     1       1.631   6.241  18.621  0.00  0.00    +0.000 HD
BRANCH  16  18
ATOM     18  C   UNL     1       2.699   5.142  20.000  0.00  0.00    +0.000 C 
BRANCH  18  19
ATOM     19  C   UNL     1       2.590   3.654  19.623  0.00  0.00    +0.000 C 
ATOM     20  C   UNL     1       3.911   2.906  19.566  0.00  0.00    +0.000 C 
ATOM     21  C   UNL     1       3.544   1.710  18.718  0.00  0.00    +0.000 C 
ATOM     22  C   UNL     1       2.554   2.290  17.726  0.00  0.00    +0.000 C 
ATOM     23  O   UNL     1       2.032   3.502  18.301  0.00  0.00    +0.000 OA
ENDBRANCH  18  19
ENDBRANCH  16  18
ENDBRANCH  13  15
ENDBRANCH   1  13
TORSDOF 6
ENDMDL
MODEL 5
REMARK VINA RESULT:      -6.8      1.344      1.511
REMARK  Name = 
REMARK  6 active torsions:
REMARK  status: ('A' for Active; 'I' for Inactive)
REMARK    1  A    between atoms: C_2  and  C_3
REMARK    2  A    between atoms: C_3  and  N_4
REMARK    3  A    between atoms: C_6  and  C_7
REMARK    4  A    between atoms: C_9  and  C_10
REMARK    5  A    between atoms: N_16  and  C_17
REMARK    6  A    between atoms: C_17  and  C_18
REMARK                            x       y       z     vdW  Elec       q    Type
REMARK                         _______ _______ _______ _____ _____    ______ ____
ROOT
ATOM      1  N   UNL     1       4.215   5.085  16.861  0.00  0.00    +0.000 NA
ATOM      2  C   UNL     1       4.988   6.337  16.918  0.00  0.00    +0.000 C 
ATOM      3  C   UNL     1       6.283   5.488  16.770  0.00  0.00    +0.000 C 
ATOM      4  C   UNL     1       5.402   4.352  17.351  0.00  0.00    +0.000 C 
ENDROOT
BRANCH   3   5
ATOM      5  C   UNL     1       6.693   5.219  15.330  0.00  0.00    +0.000 A 
ATOM      6  N   UNL     1       5.972   4.513  14.486  0.00  0.00    +0.000 NA
ATOM      7  C   UNL     1       6.745   4.540  13.352  0.00  0.00    +0.000 A 
ATOM      8  N   UNL     1       7.891   5.218  13.468  0.00  0.00    +0.000 NA
ATOM      9  O   UNL     1       7.853   5.689  14.775  0.00  0.00    +0.000 OA
BRANCH   7  10
ATOM     10  C   UNL     1       6.366   3.849  12.055  0.00  0.00    +0.000 C 
ATOM     11  C   UNL     1       6.121   2.354  12.067  0.00  0.00    +0.000 C 
ATOM     12  C   UNL     1       4.969   3.283  11.900  0.00  0.00    +0.000 C 
ENDBRANCH   7  10
ENDBRANCH   3   5
BRANCH   1  13
ATOM     13  C   UNL     1       3.142   5.061  17.842  0.00  0.00    +0.000 C 
BRANCH  13  15
ATOM     14  O   UNL     1       1.037   4.390  16.947  0.00  0.00    +0.000 OA
ATOM     15  C   UNL     1       2.093   4.018  17.469  0.00  0.00    +0.000 C 
ATOM     16  N   UNL     1       2.252   2.686  17.666  0.00  0.00    +0.000 N 
ATOM     17  H   UNL     1       1.432   2.142  17.403  0.00  0.00    +0.000 HD
BRANCH  16  18
ATOM     18  C   UNL     1       3.161   1.899  18.498  0.00  0.00    +0.000 C 
BRANCH  18  19
ATOM     19  C   UNL     1       2.755   1.973  19.980  0.00  0.00    +0.000 C 
ATOM     20  C   UNL     1       1.273   2.190  20.232  0.00  0.00    +0.000 C 
ATOM     21  C   UNL     1       1.280   2.710  21.650  0.00  0.00    +0.000 C 
ATOM     22  C   UNL     1       2.547   3.543  21.698  0.00  0.00    +0.000 C 
ATOM     23  O   UNL     1       3.398   3.089  20.630  0.00  0.00    +0.000 OA
ENDBRANCH  18  19
ENDBRANCH  16  18
ENDBRANCH  13  15
ENDBRANCH   1  13
TORSDOF 6
ENDMDL
MODEL 6
REMARK VINA RESULT:      -6.8      1.062      1.625
REMARK  Name = 
REMARK  6 active torsions:
REMARK  status: ('A' for Active; 'I' for Inactive)
REMARK    1  A    between atoms: C_2  and  C_3
REMARK    2  A    between atoms: C_3  and  N_4
REMARK    3  A    between atoms: C_6  and  C_7
REMARK    4  A    between atoms: C_9  and  C_10
REMARK    5  A    between atoms: N_16  and  C_17
REMARK    6  A    between atoms: C_17  and  C_18
REMARK                            x       y       z     vdW  Elec       q    Type
REMARK                         _______ _______ _______ _____ _____    ______ ____
ROOT
ATOM      1  N   UNL     1       5.167   5.809  17.919  0.00  0.00    +0.000 NA
ATOM      2  C   UNL     1       6.561   6.281  17.887  0.00  0.00    +0.000 C 
ATOM      3  C   UNL     1       6.977   4.872  17.374  0.00  0.00    +0.000 C 
ATOM      4  C   UNL     1       5.661   4.421  18.058  0.00  0.00    +0.000 C 
ENDROOT
BRANCH   3   5
ATOM      5  C   UNL     1       6.921   4.717  15.862  0.00  0.00    +0.000 A 
ATOM      6  N   UNL     1       6.323   3.716  15.252  0.00  0.00    +0.000 NA
ATOM      7  C   UNL     1       6.553   4.004  13.931  0.00  0.00    +0.000 A 
ATOM      8  N   UNL     1       7.259   5.117  13.710  0.00  0.00    +0.000 NA
ATOM      9  O   UNL     1       7.490   5.607  14.990  0.00  0.00    +0.000 OA
BRANCH   7  10
ATOM     10  C   UNL     1       6.072   3.136  12.782  0.00  0.00    +0.000 C 
ATOM     11  C   UNL     1       4.955   3.648  11.896  0.00  0.00    +0.000 C 
ATOM     12  C   UNL     1       6.342   3.577  11.358  0.00  0.00    +0.000 C 
ENDBRANCH   7  10
ENDBRANCH   3   5
BRANCH   1  13
ATOM     13  C   UNL     1       4.472   6.241  19.121  0.00  0.00    +0.000 C 
BRANCH  13  15
ATOM     14  O   UNL     1       2.655   7.425  18.133  0.00  0.00    +0.000 OA
ATOM     15  C   UNL     1       2.991   6.467  18.835  0.00  0.00    +0.000 C 
ATOM     16  N   UNL     1       2.003   5.663  19.301  0.00  0.00    +0.000 N 
ATOM     17  H   UNL     1       1.070   5.991  19.054  0.00  0.00    +0.000 HD
BRANCH  16  18
ATOM     18  C   UNL     1       1.944   4.666  20.368  0.00  0.00    +0.000 C 
BRANCH  18  19
ATOM     19  C   UNL     1       2.079   3.242  19.800  0.00  0.00    +0.000 C 
ATOM     20  C   UNL     1       3.436   2.591  20.009  0.00  0.00    +0.000 C 
ATOM     21  C   UNL     1       3.416   1.507  18.958  0.00  0.00    +0.000 C 
ATOM     22  C   UNL     1       2.662   2.159  17.814  0.00  0.00    +0.000 C 
ATOM     23  O   UNL     1       1.896   3.243  18.369  0.00  0.00    +0.000 OA
ENDBRANCH  18  19
ENDBRANCH  16  18
ENDBRANCH  13  15
ENDBRANCH   1  13
TORSDOF 6
ENDMDL
MODEL 7
REMARK VINA RESULT:      -6.8      3.206      4.037
REMARK  Name = 
REMARK  6 active torsions:
REMARK  status: ('A' for Active; 'I' for Inactive)
REMARK    1  A    between atoms: C_2  and  C_3
REMARK    2  A    between atoms: C_3  and  N_4
REMARK    3  A    between atoms: C_6  and  C_7
REMARK    4  A    between atoms: C_9  and  C_10
REMARK    5  A    between atoms: N_16  and  C_17
REMARK    6  A    between atoms: C_17  and  C_18
REMARK                            x       y       z     vdW  Elec       q    Type
REMARK                         _______ _______ _______ _____ _____    ______ ____
ROOT
ATOM      1  N   UNL     1       4.073   5.775  17.938  0.00  0.00    +0.000 NA
ATOM      2  C   UNL     1       5.350   5.376  18.551  0.00  0.00    +0.000 C 
ATOM      3  C   UNL     1       5.376   4.154  17.587  0.00  0.00    +0.000 C 
ATOM      4  C   UNL     1       3.841   4.367  17.548  0.00  0.00    +0.000 C 
ENDROOT
BRANCH   3   5
ATOM      5  C   UNL     1       6.030   4.435  16.242  0.00  0.00    +0.000 A 
ATOM      6  N   UNL     1       5.535   4.030  15.092  0.00  0.00    +0.000 NA
ATOM      7  C   UNL     1       6.463   4.500  14.197  0.00  0.00    +0.000 A 
ATOM      8  N   UNL     1       7.490   5.159  14.743  0.00  0.00    +0.000 NA
ATOM      9  O   UNL     1       7.197   5.137  16.102  0.00  0.00    +0.000 OA
BRANCH   7  10
ATOM     10  C   UNL     1       6.371   4.289  12.697  0.00  0.00    +0.000 C 
ATOM     11  C   UNL     1       6.666   2.915  12.132  0.00  0.00    +0.000 C 
ATOM     12  C   UNL     1       5.264   3.419  12.139  0.00  0.00    +0.000 C 
ENDBRANCH   7  10
ENDBRANCH   3   5
BRANCH   1  13
ATOM     13  C   UNL     1       3.103   6.211  18.930  0.00  0.00    +0.000 C 
BRANCH  13  15
ATOM     14  O   UNL     1       2.872   8.106  17.503  0.00  0.00    +0.000 OA
ATOM     15  C   UNL     1       2.562   7.594  18.584  0.00  0.00    +0.000 C 
ATOM     16  N   UNL     1       1.738   8.305  19.393  0.00  0.00    +0.000 N 
ATOM     17  H   UNL     1       1.515   9.229  19.024  0.00  0.00    +0.000 HD
BRANCH  16  18
ATOM     18  C   UNL     1       1.404   8.211  20.813  0.00  0.00    +0.000 C 
BRANCH  18  19
ATOM     19  C   UNL     1       0.255   9.169  21.174  0.00  0.00    +0.000 C 
ATOM     20  C   UNL     1       0.624  10.643  21.183  0.00  0.00    +0.000 C 
ATOM     21  C   UNL     1      -0.485  11.227  22.025  0.00  0.00    +0.000 C 
ATOM     22  C   UNL     1      -0.737  10.140  23.053  0.00  0.00    +0.000 C 
ATOM     23  O   UNL     1      -0.226   8.909  22.510  0.00  0.00    +0.000 OA
ENDBRANCH  18  19
ENDBRANCH  16  18
ENDBRANCH  13  15
ENDBRANCH   1  13
TORSDOF 6
ENDMDL
MODEL 8
REMARK VINA RESULT:      -6.8      2.049      2.929
REMARK  Name = 
REMARK  6 active torsions:
REMARK  status: ('A' for Active; 'I' for Inactive)
REMARK    1  A    between atoms: C_2  and  C_3
REMARK    2  A    between atoms: C_3  and  N_4
REMARK    3  A    between atoms: C_6  and  C_7
REMARK    4  A    between atoms: C_9  and  C_10
REMARK    5  A    between atoms: N_16  and  C_17
REMARK    6  A    between atoms: C_17  and  C_18
REMARK                            x       y       z     vdW  Elec       q    Type
REMARK                         _______ _______ _______ _____ _____    ______ ____
ROOT
ATOM      1  N   UNL     1       7.123   6.005  16.527  0.00  0.00    +0.000 NA
ATOM      2  C   UNL     1       6.753   4.592  16.711  0.00  0.00    +0.000 C 
ATOM      3  C   UNL     1       5.712   4.765  15.567  0.00  0.00    +0.000 C 
ATOM      4  C   UNL     1       5.780   6.263  15.960  0.00  0.00    +0.000 C 
ENDROOT
BRANCH   3   5
ATOM      5  C   UNL     1       6.267   4.510  14.174  0.00  0.00    +0.000 A 
ATOM      6  N   UNL     1       5.857   3.534  13.392  0.00  0.00    +0.000 NA
ATOM      7  C   UNL     1       6.645   3.704  12.282  0.00  0.00    +0.000 A 
ATOM      8  N   UNL     1       7.509   4.721  12.353  0.00  0.00    +0.000 NA
ATOM      9  O   UNL     1       7.248   5.274  13.601  0.00  0.00    +0.000 OA
BRANCH   7  10
ATOM     10  C   UNL     1       6.580   2.811  11.056  0.00  0.00    +0.000 C 
ATOM     11  C   UNL     1       7.359   1.511  11.055  0.00  0.00    +0.000 C 
ATOM     12  C   UNL     1       5.872   1.475  11.152  0.00  0.00    +0.000 C 
ENDBRANCH   7  10
ENDBRANCH   3   5
BRANCH   1  13
ATOM     13  C   UNL     1       7.298   6.694  17.795  0.00  0.00    +0.000 C 
BRANCH  13  15
ATOM     14  O   UNL     1       8.139   5.136  19.391  0.00  0.00    +0.000 OA
ATOM     15  C   UNL     1       7.141   5.724  18.962  0.00  0.00    +0.000 C 
ATOM     16  N   UNL     1       5.959   5.469  19.576  0.00  0.00    +0.000 N 
ATOM     17  H   UNL     1       6.031   4.758  20.303  0.00  0.00    +0.000 HD
BRANCH  16  18
ATOM     18  C   UNL     1       4.565   5.695  19.197  0.00  0.00    +0.000 C 
BRANCH  18  19
ATOM     19  C   UNL     1       3.771   4.377  19.204  0.00  0.00    +0.000 C 
ATOM     20  C   UNL     1       4.597   3.130  19.471  0.00  0.00    +0.000 C 
ATOM     21  C   UNL     1       3.695   2.048  18.926  0.00  0.00    +0.000 C 
ATOM     22  C   UNL     1       3.053   2.717  17.725  0.00  0.00    +0.000 C 
ATOM     23  O   UNL     1       3.165   4.139  17.916  0.00  0.00    +0.000 OA
ENDBRANCH  18  19
ENDBRANCH  16  18
ENDBRANCH  13  15
ENDBRANCH   1  13
TORSDOF 6
ENDMDL
MODEL 9
REMARK VINA RESULT:      -6.7      2.685      7.493
REMARK  Name = 
REMARK  6 active torsions:
REMARK  status: ('A' for Active; 'I' for Inactive)
REMARK    1  A    between atoms: C_2  and  C_3
REMARK    2  A    between atoms: C_3  and  N_4
REMARK    3  A    between atoms: C_6  and  C_7
REMARK    4  A    between atoms: C_9  and  C_10
REMARK    5  A    between atoms: N_16  and  C_17
REMARK    6  A    between atoms: C_17  and  C_18
REMARK                            x       y       z     vdW  Elec       q    Type
REMARK                         _______ _______ _______ _____ _____    ______ ____
ROOT
ATOM      1  N   UNL     1       4.549   5.202  17.909  0.00  0.00    +0.000 NA
ATOM      2  C   UNL     1       3.156   4.750  18.069  0.00  0.00    +0.000 C 
ATOM      3  C   UNL     1       2.997   5.800  19.207  0.00  0.00    +0.000 C 
ATOM      4  C   UNL     1       4.538   5.670  19.312  0.00  0.00    +0.000 C 
ENDROOT
BRANCH   3   5
ATOM      5  C   UNL     1       2.567   7.179  18.728  0.00  0.00    +0.000 A 
ATOM      6  N   UNL     1       1.759   7.967  19.403  0.00  0.00    +0.000 NA
ATOM      7  C   UNL     1       1.664   9.059  18.577  0.00  0.00    +0.000 A 
ATOM      8  N   UNL     1       2.365   8.971  17.443  0.00  0.00    +0.000 NA
ATOM      9  O   UNL     1       2.984   7.731  17.546  0.00  0.00    +0.000 OA
BRANCH   7  10
ATOM     10  C   UNL     1       0.822  10.282  18.890  0.00  0.00    +0.000 C 
ATOM     11  C   UNL     1      -0.598  10.347  18.365  0.00  0.00    +0.000 C 
ATOM     12  C   UNL     1      -0.364  10.145  19.822  0.00  0.00    +0.000 C 
ENDBRANCH   7  10
ENDBRANCH   3   5
BRANCH   1  13
ATOM     13  C   UNL     1       5.467   4.088  17.734  0.00  0.00    +0.000 C 
BRANCH  13  15
ATOM     14  O   UNL     1       7.680   4.620  18.442  0.00  0.00    +0.000 OA
ATOM     15  C   UNL     1       6.887   4.593  17.496  0.00  0.00    +0.000 C 
ATOM     16  N   UNL     1       7.346   5.009  16.290  0.00  0.00    +0.000 N 
ATOM     17  H   UNL     1       8.303   5.359  16.325  0.00  0.00    +0.000 HD
BRANCH  16  18
ATOM     18  C   UNL     1       6.682   5.416  15.052  0.00  0.00    +0.000 C 
BRANCH  18  19
ATOM     19  C   UNL     1       6.576   4.236  14.070  0.00  0.00    +0.000 C 
ATOM     20  C   UNL     1       7.272   4.445  12.735  0.00  0.00    +0.000 C 
ATOM     21  C   UNL     1       6.586   3.413  11.872  0.00  0.00    +0.000 C 
ATOM     22  C   UNL     1       5.162   3.428  12.396  0.00  0.00    +0.000 C 
ATOM     23  O   UNL     1       5.199   3.982  13.723  0.00  0.00    +0.000 OA
ENDBRANCH  18  19
ENDBRANCH  16  18
ENDBRANCH  13  15
ENDBRANCH   1  13
TORSDOF 6
ENDMDL
