MODEL 1
REMARK VINA RESULT:      -7.8      0.000      0.000
REMARK  Name = 
REMARK  2 active torsions:
REMARK  status: ('A' for Active; 'I' for Inactive)
REMARK    1  A    between atoms: N_16  and  C_17
REMARK    2  A    between atoms: C_17  and  C_18
REMARK                            x       y       z     vdW  Elec       q    Type
REMARK                         _______ _______ _______ _____ _____    ______ ____
ROOT
ATOM      1  O   UNL     1       8.074   4.719  14.878  0.00  0.00    +0.000 OA
ATOM      2  C   UNL     1       6.882   4.395  14.910  0.00  0.00    +0.000 C 
ATOM      3  N   UNL     1       6.284   3.878  13.779  0.00  0.00    +0.000 N 
ATOM      4  C   UNL     1       7.070   3.694  12.565  0.00  0.00    +0.000 C 
ATOM      5  C   UNL     1       6.110   4.050  11.440  0.00  0.00    +0.000 C 
ATOM      6  C   UNL     1       4.775   3.553  11.955  0.00  0.00    +0.000 C 
ATOM      7  C   UNL     1       4.870   3.744  13.460  0.00  0.00    +0.000 C 
ATOM      8  N   UNL     1       6.135   4.599  16.057  0.00  0.00    +0.000 N 
ATOM      9  C   UNL     1       6.736   5.340  17.171  0.00  0.00    +0.000 C 
ATOM     10  C   UNL     1       5.763   6.399  17.724  0.00  0.00    +0.000 C 
ATOM     11  C   UNL     1       4.346   5.847  17.973  0.00  0.00    +0.000 C 
ATOM     12  C   UNL     1       3.861   5.020  16.770  0.00  0.00    +0.000 C 
ATOM     13  C   UNL     1       4.891   3.949  16.437  0.00  0.00    +0.000 C 
ATOM     14  C   UNL     1       4.296   4.952  19.243  0.00  0.00    +0.000 C 
ATOM     15  O   UNL     1       5.093   4.072  19.536  0.00  0.00    +0.000 OA
ATOM     16  N   UNL     1       3.165   5.310  19.977  0.00  0.00    +0.000 N 
ATOM     17  C   UNL     1       2.623   6.505  19.486  0.00  0.00    +0.000 A 
ATOM     18  C   UNL     1       1.610   7.273  20.022  0.00  0.00    +0.000 A 
ATOM     19  C   UNL     1       1.272   8.466  19.377  0.00  0.00    +0.000 A 
ATOM     20  C   UNL     1       1.952   8.857  18.213  0.00  0.00    +0.000 A 
ATOM     21  C   UNL     1       2.975   8.072  17.675  0.00  0.00    +0.000 A 
ATOM     22  C   UNL     1       3.306   6.893  18.325  0.00  0.00    +0.000 A 
ENDROOT
BRANCH  16  23
ATOM     23  C   UNL     1       2.854   4.705  21.250  0.00  0.00    +0.000 C 
BRANCH  23  24
ATOM     24  C   UNL     1       1.572   3.921  21.253  0.00  0.00    +0.000 C 
ATOM     25  C   UNL     1       1.193   2.909  20.197  0.00  0.00    +0.000 C 
ATOM     26  C   UNL     1       1.653   2.439  21.547  0.00  0.00    +0.000 C 
ENDBRANCH  23  24
ENDBRANCH  16  23
TORSDOF 2
ENDMDL
MODEL 2
REMARK VINA RESULT:      -7.5      3.078      7.394
REMARK  Name = 
REMARK  2 active torsions:
REMARK  status: ('A' for Active; 'I' for Inactive)
REMARK    1  A    between atoms: N_16  and  C_17
REMARK    2  A    between atoms: C_17  and  C_18
REMARK                            x       y       z     vdW  Elec       q    Type
REMARK                         _______ _______ _______ _____ _____    ______ ____
ROOT
ATOM      1  O   UNL     1       0.606  10.362  20.597  0.00  0.00    +0.000 OA
ATOM      2  C   UNL     1       0.531   9.887  19.459  0.00  0.00    +0.000 C 
ATOM      3  N   UNL     1      -0.463  10.317  18.603  0.00  0.00    +0.000 N 
ATOM      4  C   UNL     1      -1.398  11.347  19.039  0.00  0.00    +0.000 C 
ATOM      5  C   UNL     1      -2.728  10.928  18.430  0.00  0.00    +0.000 C 
ATOM      6  C   UNL     1      -2.322  10.321  17.103  0.00  0.00    +0.000 C 
ATOM      7  C   UNL     1      -0.965   9.699  17.385  0.00  0.00    +0.000 C 
ATOM      8  N   UNL     1       1.403   8.889  19.061  0.00  0.00    +0.000 N 
ATOM      9  C   UNL     1       2.311   8.304  20.055  0.00  0.00    +0.000 C 
ATOM     10  C   UNL     1       2.318   6.766  19.964  0.00  0.00    +0.000 C 
ATOM     11  C   UNL     1       2.478   6.246  18.523  0.00  0.00    +0.000 C 
ATOM     12  C   UNL     1       1.536   6.993  17.562  0.00  0.00    +0.000 C 
ATOM     13  C   UNL     1       1.746   8.494  17.704  0.00  0.00    +0.000 C 
ATOM     14  C   UNL     1       3.937   6.411  18.014  0.00  0.00    +0.000 C 
ATOM     15  O   UNL     1       4.631   7.412  18.125  0.00  0.00    +0.000 OA
ATOM     16  N   UNL     1       4.309   5.225  17.382  0.00  0.00    +0.000 N 
ATOM     17  C   UNL     1       3.376   4.215  17.652  0.00  0.00    +0.000 A 
ATOM     18  C   UNL     1       3.454   2.870  17.350  0.00  0.00    +0.000 A 
ATOM     19  C   UNL     1       2.413   2.037  17.772  0.00  0.00    +0.000 A 
ATOM     20  C   UNL     1       1.324   2.570  18.478  0.00  0.00    +0.000 A 
ATOM     21  C   UNL     1       1.252   3.933  18.776  0.00  0.00    +0.000 A 
ATOM     22  C   UNL     1       2.291   4.750  18.358  0.00  0.00    +0.000 A 
ENDROOT
BRANCH  16  23
ATOM     23  C   UNL     1       5.634   5.025  16.844  0.00  0.00    +0.000 C 
BRANCH  23  24
ATOM     24  C   UNL     1       5.723   5.233  15.357  0.00  0.00    +0.000 C 
ATOM     25  C   UNL     1       6.951   4.928  14.530  0.00  0.00    +0.000 C 
ATOM     26  C   UNL     1       5.769   4.004  14.475  0.00  0.00    +0.000 C 
ENDBRANCH  23  24
ENDBRANCH  16  23
TORSDOF 2
ENDMDL
MODEL 3
REMARK VINA RESULT:      -7.2      4.352      7.691
REMARK  Name = 
REMARK  2 active torsions:
REMARK  status: ('A' for Active; 'I' for Inactive)
REMARK    1  A    between atoms: N_16  and  C_17
REMARK    2  A    between atoms: C_17  and  C_18
REMARK                            x       y       z     vdW  Elec       q    Type
REMARK                         _______ _______ _______ _____ _____    ______ ____
ROOT
ATOM      1  O   UNL     1       3.669   6.942  18.096  0.00  0.00    +0.000 OA
ATOM      2  C   UNL     1       2.821   6.998  18.994  0.00  0.00    +0.000 C 
ATOM      3  N   UNL     1       2.575   5.885  19.772  0.00  0.00    +0.000 N 
ATOM      4  C   UNL     1       3.336   4.662  19.547  0.00  0.00    +0.000 C 
ATOM      5  C   UNL     1       2.326   3.546  19.768  0.00  0.00    +0.000 C 
ATOM      6  C   UNL     1       1.449   4.090  20.877  0.00  0.00    +0.000 C 
ATOM      7  C   UNL     1       1.437   5.590  20.631  0.00  0.00    +0.000 C 
ATOM      8  N   UNL     1       2.082   8.152  19.184  0.00  0.00    +0.000 N 
ATOM      9  C   UNL     1       2.214   9.245  18.213  0.00  0.00    +0.000 C 
ATOM     10  C   UNL     1       0.833   9.795  17.806  0.00  0.00    +0.000 C 
ATOM     11  C   UNL     1      -0.087  10.075  19.009  0.00  0.00    +0.000 C 
ATOM     12  C   UNL     1      -0.075   8.894  19.995  0.00  0.00    +0.000 C 
ATOM     13  C   UNL     1       1.361   8.562  20.378  0.00  0.00    +0.000 C 
ATOM     14  C   UNL     1       0.343  11.360  19.770  0.00  0.00    +0.000 C 
ATOM     15  O   UNL     1       1.483  11.656  20.099  0.00  0.00    +0.000 OA
ATOM     16  N   UNL     1      -0.805  12.105  20.038  0.00  0.00    +0.000 N 
ATOM     17  C   UNL     1      -1.893  11.603  19.312  0.00  0.00    +0.000 A 
ATOM     18  C   UNL     1      -3.156  12.142  19.174  0.00  0.00    +0.000 A 
ATOM     19  C   UNL     1      -4.069  11.482  18.346  0.00  0.00    +0.000 A 
ATOM     20  C   UNL     1      -3.698  10.301  17.685  0.00  0.00    +0.000 A 
ATOM     21  C   UNL     1      -2.418   9.761  17.833  0.00  0.00    +0.000 A 
ATOM     22  C   UNL     1      -1.518  10.426  18.651  0.00  0.00    +0.000 A 
ENDROOT
BRANCH  16  23
ATOM     23  C   UNL     1      -0.749  13.393  20.688  0.00  0.00    +0.000 C 
BRANCH  23  24
ATOM     24  C   UNL     1      -1.632  13.501  21.900  0.00  0.00    +0.000 C 
ATOM     25  C   UNL     1      -1.617  12.523  23.051  0.00  0.00    +0.000 C 
ATOM     26  C   UNL     1      -0.982  13.874  23.215  0.00  0.00    +0.000 C 
ENDBRANCH  23  24
ENDBRANCH  16  23
TORSDOF 2
ENDMDL
MODEL 4
REMARK VINA RESULT:      -7.1      3.195      7.365
REMARK  Name = 
REMARK  2 active torsions:
REMARK  status: ('A' for Active; 'I' for Inactive)
REMARK    1  A    between atoms: N_16  and  C_17
REMARK    2  A    between atoms: C_17  and  C_18
REMARK                            x       y       z     vdW  Elec       q    Type
REMARK                         _______ _______ _______ _____ _____    ______ ____
ROOT
ATOM      1  O   UNL     1       0.443  10.568  20.582  0.00  0.00    +0.000 OA
ATOM      2  C   UNL     1       0.364  10.071  19.454  0.00  0.00    +0.000 C 
ATOM      3  N   UNL     1      -0.633  10.485  18.594  0.00  0.00    +0.000 N 
ATOM      4  C   UNL     1      -1.566  11.524  19.013  0.00  0.00    +0.000 C 
ATOM      5  C   UNL     1      -2.898  11.094  18.417  0.00  0.00    +0.000 C 
ATOM      6  C   UNL     1      -2.498  10.462  17.100  0.00  0.00    +0.000 C 
ATOM      7  C   UNL     1      -1.140   9.844  17.389  0.00  0.00    +0.000 C 
ATOM      8  N   UNL     1       1.234   9.065  19.072  0.00  0.00    +0.000 N 
ATOM      9  C   UNL     1       2.145   8.499  20.074  0.00  0.00    +0.000 C 
ATOM     10  C   UNL     1       2.151   6.960  20.012  0.00  0.00    +0.000 C 
ATOM     11  C   UNL     1       2.305   6.412  18.581  0.00  0.00    +0.000 C 
ATOM     12  C   UNL     1       1.360   7.141  17.610  0.00  0.00    +0.000 C 
ATOM     13  C   UNL     1       1.572   8.644  17.722  0.00  0.00    +0.000 C 
ATOM     14  C   UNL     1       3.763   6.566  18.064  0.00  0.00    +0.000 C 
ATOM     15  O   UNL     1       4.457   7.569  18.153  0.00  0.00    +0.000 OA
ATOM     16  N   UNL     1       4.132   5.367  17.453  0.00  0.00    +0.000 N 
ATOM     17  C   UNL     1       3.199   4.364  17.747  0.00  0.00    +0.000 A 
ATOM     18  C   UNL     1       3.275   3.013  17.471  0.00  0.00    +0.000 A 
ATOM     19  C   UNL     1       2.236   2.189  17.912  0.00  0.00    +0.000 A 
ATOM     20  C   UNL     1       1.149   2.736  18.612  0.00  0.00    +0.000 A 
ATOM     21  C   UNL     1       1.079   4.105  18.884  0.00  0.00    +0.000 A 
ATOM     22  C   UNL     1       2.117   4.913  18.447  0.00  0.00    +0.000 A 
ENDROOT
BRANCH  16  23
ATOM     23  C   UNL     1       5.454   5.156  16.915  0.00  0.00    +0.000 C 
BRANCH  23  24
ATOM     24  C   UNL     1       6.474   4.762  17.946  0.00  0.00    +0.000 C 
ATOM     25  C   UNL     1       7.935   4.516  17.644  0.00  0.00    +0.000 C 
ATOM     26  C   UNL     1       7.520   5.786  18.330  0.00  0.00    +0.000 C 
ENDBRANCH  23  24
ENDBRANCH  16  23
TORSDOF 2
ENDMDL
MODEL 5
REMARK VINA RESULT:      -7.0      4.293      7.836
REMARK  Name = 
REMARK  2 active torsions:
REMARK  status: ('A' for Active; 'I' for Inactive)
REMARK    1  A    between atoms: N_16  and  C_17
REMARK    2  A    between atoms: C_17  and  C_18
REMARK                            x       y       z     vdW  Elec       q    Type
REMARK                         _______ _______ _______ _____ _____    ______ ____
ROOT
ATOM      1  O   UNL     1       3.602   6.725  18.046  0.00  0.00    +0.000 OA
ATOM      2  C   UNL     1       2.773   6.801  18.959  0.00  0.00    +0.000 C 
ATOM      3  N   UNL     1       2.476   5.680  19.708  0.00  0.00    +0.000 N 
ATOM      4  C   UNL     1       3.165   4.424  19.435  0.00  0.00    +0.000 C 
ATOM      5  C   UNL     1       2.097   3.359  19.639  0.00  0.00    +0.000 C 
ATOM      6  C   UNL     1       1.268   3.918  20.778  0.00  0.00    +0.000 C 
ATOM      7  C   UNL     1       1.336   5.423  20.575  0.00  0.00    +0.000 C 
ATOM      8  N   UNL     1       2.101   7.988  19.195  0.00  0.00    +0.000 N 
ATOM      9  C   UNL     1       2.280   9.100  18.254  0.00  0.00    +0.000 C 
ATOM     10  C   UNL     1       0.926   9.737  17.885  0.00  0.00    +0.000 C 
ATOM     11  C   UNL     1       0.041  10.032  19.111  0.00  0.00    +0.000 C 
ATOM     12  C   UNL     1       0.001   8.822  20.061  0.00  0.00    +0.000 C 
ATOM     13  C   UNL     1       1.422   8.401  20.412  0.00  0.00    +0.000 C 
ATOM     14  C   UNL     1       0.553  11.268  19.902  0.00  0.00    +0.000 C 
ATOM     15  O   UNL     1       1.713  11.490  20.221  0.00  0.00    +0.000 OA
ATOM     16  N   UNL     1      -0.548  12.067  20.210  0.00  0.00    +0.000 N 
ATOM     17  C   UNL     1      -1.673  11.647  19.488  0.00  0.00    +0.000 A 
ATOM     18  C   UNL     1      -2.905  12.260  19.385  0.00  0.00    +0.000 A 
ATOM     19  C   UNL     1      -3.866  11.676  18.554  0.00  0.00    +0.000 A 
ATOM     20  C   UNL     1      -3.571  10.497  17.852  0.00  0.00    +0.000 A 
ATOM     21  C   UNL     1      -2.321   9.883  17.963  0.00  0.00    +0.000 A 
ATOM     22  C   UNL     1      -1.373  10.472  18.787  0.00  0.00    +0.000 A 
ENDROOT
BRANCH  16  23
ATOM     23  C   UNL     1      -0.411  13.330  20.896  0.00  0.00    +0.000 C 
BRANCH  23  24
ATOM     24  C   UNL     1       0.212  14.412  20.059  0.00  0.00    +0.000 C 
ATOM     25  C   UNL     1      -0.235  14.765  18.659  0.00  0.00    +0.000 C 
ATOM     26  C   UNL     1      -0.601  15.663  19.805  0.00  0.00    +0.000 C 
ENDBRANCH  23  24
ENDBRANCH  16  23
TORSDOF 2
ENDMDL
MODEL 6
REMARK VINA RESULT:      -6.7      2.919      7.294
REMARK  Name = 
REMARK  2 active torsions:
REMARK  status: ('A' for Active; 'I' for Inactive)
REMARK    1  A    between atoms: N_16  and  C_17
REMARK    2  A    between atoms: C_17  and  C_18
REMARK                            x       y       z     vdW  Elec       q    Type
REMARK                         _______ _______ _______ _____ _____    ______ ____
ROOT
ATOM      1  O   UNL     1       0.487  10.040  21.106  0.00  0.00    +0.000 OA
ATOM      2  C   UNL     1       0.565   9.601  19.953  0.00  0.00    +0.000 C 
ATOM      3  N   UNL     1      -0.216  10.154  18.958  0.00  0.00    +0.000 N 
ATOM      4  C   UNL     1      -1.104  11.268  19.269  0.00  0.00    +0.000 C 
ATOM      5  C   UNL     1      -2.342  11.007  18.425  0.00  0.00    +0.000 C 
ATOM      6  C   UNL     1      -1.774  10.391  17.163  0.00  0.00    +0.000 C 
ATOM      7  C   UNL     1      -0.557   9.621  17.647  0.00  0.00    +0.000 C 
ATOM      8  N   UNL     1       1.387   8.525  19.670  0.00  0.00    +0.000 N 
ATOM      9  C   UNL     1       2.044   7.825  20.780  0.00  0.00    +0.000 C 
ATOM     10  C   UNL     1       1.911   6.297  20.629  0.00  0.00    +0.000 C 
ATOM     11  C   UNL     1       2.266   5.796  19.216  0.00  0.00    +0.000 C 
ATOM     12  C   UNL     1       1.587   6.660  18.140  0.00  0.00    +0.000 C 
ATOM     13  C   UNL     1       1.921   8.127  18.377  0.00  0.00    +0.000 C 
ATOM     14  C   UNL     1       3.801   5.815  18.972  0.00  0.00    +0.000 C 
ATOM     15  O   UNL     1       4.562   6.734  19.241  0.00  0.00    +0.000 OA
ATOM     16  N   UNL     1       4.156   4.611  18.366  0.00  0.00    +0.000 N 
ATOM     17  C   UNL     1       3.093   3.701  18.430  0.00  0.00    +0.000 A 
ATOM     18  C   UNL     1       3.086   2.362  18.092  0.00  0.00    +0.000 A 
ATOM     19  C   UNL     1       1.909   1.636  18.295  0.00  0.00    +0.000 A 
ATOM     20  C   UNL     1       0.772   2.266  18.825  0.00  0.00    +0.000 A 
ATOM     21  C   UNL     1       0.787   3.622  19.162  0.00  0.00    +0.000 A 
ATOM     22  C   UNL     1       1.961   4.332  18.962  0.00  0.00    +0.000 A 
ENDROOT
BRANCH  16  23
ATOM     23  C   UNL     1       5.527   4.283  18.055  0.00  0.00    +0.000 C 
BRANCH  23  24
ATOM     24  C   UNL     1       6.003   4.841  16.743  0.00  0.00    +0.000 C 
ATOM     25  C   UNL     1       7.038   5.934  16.610  0.00  0.00    +0.000 C 
ATOM     26  C   UNL     1       7.414   4.513  16.307  0.00  0.00    +0.000 C 
ENDBRANCH  23  24
ENDBRANCH  16  23
TORSDOF 2
ENDMDL
MODEL 7
REMARK VINA RESULT:      -6.6      7.603     12.143
REMARK  Name = 
REMARK  2 active torsions:
REMARK  status: ('A' for Active; 'I' for Inactive)
REMARK    1  A    between atoms: N_16  and  C_17
REMARK    2  A    between atoms: C_17  and  C_18
REMARK                            x       y       z     vdW  Elec       q    Type
REMARK                         _______ _______ _______ _____ _____    ______ ____
ROOT
ATOM      1  O   UNL     1      -4.120  12.089  24.216  0.00  0.00    +0.000 OA
ATOM      2  C   UNL     1      -4.005  12.567  23.083  0.00  0.00    +0.000 C 
ATOM      3  N   UNL     1      -5.134  12.934  22.378  0.00  0.00    +0.000 N 
ATOM      4  C   UNL     1      -6.449  12.781  22.988  0.00  0.00    +0.000 C 
ATOM      5  C   UNL     1      -7.347  12.346  21.839  0.00  0.00    +0.000 C 
ATOM      6  C   UNL     1      -6.780  13.102  20.655  0.00  0.00    +0.000 C 
ATOM      7  C   UNL     1      -5.293  13.188  20.954  0.00  0.00    +0.000 C 
ATOM      8  N   UNL     1      -2.756  12.683  22.497  0.00  0.00    +0.000 N 
ATOM      9  C   UNL     1      -1.598  12.094  23.180  0.00  0.00    +0.000 C 
ATOM     10  C   UNL     1      -0.721  11.295  22.196  0.00  0.00    +0.000 C 
ATOM     11  C   UNL     1      -0.414  12.064  20.897  0.00  0.00    +0.000 C 
ATOM     12  C   UNL     1      -1.690  12.705  20.325  0.00  0.00    +0.000 C 
ATOM     13  C   UNL     1      -2.364  13.549  21.398  0.00  0.00    +0.000 C 
ATOM     14  C   UNL     1       0.641  13.181  21.129  0.00  0.00    +0.000 C 
ATOM     15  O   UNL     1       0.644  13.990  22.048  0.00  0.00    +0.000 OA
ATOM     16  N   UNL     1       1.569  13.120  20.091  0.00  0.00    +0.000 N 
ATOM     17  C   UNL     1       1.406  11.935  19.361  0.00  0.00    +0.000 A 
ATOM     18  C   UNL     1       2.213  11.421  18.365  0.00  0.00    +0.000 A 
ATOM     19  C   UNL     1       1.874  10.182  17.815  0.00  0.00    +0.000 A 
ATOM     20  C   UNL     1       0.739   9.493  18.269  0.00  0.00    +0.000 A 
ATOM     21  C   UNL     1      -0.073  10.021  19.275  0.00  0.00    +0.000 A 
ATOM     22  C   UNL     1       0.274  11.249  19.819  0.00  0.00    +0.000 A 
ENDROOT
BRANCH  16  23
ATOM     23  C   UNL     1       2.719  13.990  20.037  0.00  0.00    +0.000 C 
BRANCH  23  24
ATOM     24  C   UNL     1       2.614  15.074  19.002  0.00  0.00    +0.000 C 
ATOM     25  C   UNL     1       3.565  16.244  18.897  0.00  0.00    +0.000 C 
ATOM     26  C   UNL     1       3.665  15.114  17.913  0.00  0.00    +0.000 C 
ENDBRANCH  23  24
ENDBRANCH  16  23
TORSDOF 2
ENDMDL
MODEL 8
REMARK VINA RESULT:      -6.4      8.575     10.774
REMARK  Name = 
REMARK  2 active torsions:
REMARK  status: ('A' for Active; 'I' for Inactive)
REMARK    1  A    between atoms: N_16  and  C_17
REMARK    2  A    between atoms: C_17  and  C_18
REMARK                            x       y       z     vdW  Elec       q    Type
REMARK                         _______ _______ _______ _____ _____    ______ ____
ROOT
ATOM      1  O   UNL     1       3.018  13.363  21.590  0.00  0.00    +0.000 OA
ATOM      2  C   UNL     1       2.380  13.871  20.661  0.00  0.00    +0.000 C 
ATOM      3  N   UNL     1       2.646  15.171  20.280  0.00  0.00    +0.000 N 
ATOM      4  C   UNL     1       3.695  15.924  20.958  0.00  0.00    +0.000 C 
ATOM      5  C   UNL     1       3.145  17.339  21.041  0.00  0.00    +0.000 C 
ATOM      6  C   UNL     1       2.367  17.483  19.749  0.00  0.00    +0.000 C 
ATOM      7  C   UNL     1       1.840  16.083  19.482  0.00  0.00    +0.000 C 
ATOM      8  N   UNL     1       1.367  13.161  20.041  0.00  0.00    +0.000 N 
ATOM      9  C   UNL     1       0.965  11.865  20.601  0.00  0.00    +0.000 C 
ATOM     10  C   UNL     1      -0.569  11.752  20.693  0.00  0.00    +0.000 C 
ATOM     11  C   UNL     1      -1.286  12.174  19.397  0.00  0.00    +0.000 C 
ATOM     12  C   UNL     1      -0.720  13.501  18.863  0.00  0.00    +0.000 C 
ATOM     13  C   UNL     1       0.792  13.394  18.726  0.00  0.00    +0.000 C 
ATOM     14  C   UNL     1      -1.145  11.093  18.288  0.00  0.00    +0.000 C 
ATOM     15  O   UNL     1      -0.114  10.517  17.970  0.00  0.00    +0.000 OA
ATOM     16  N   UNL     1      -2.396  10.916  17.699  0.00  0.00    +0.000 N 
ATOM     17  C   UNL     1      -3.389  11.544  18.462  0.00  0.00    +0.000 A 
ATOM     18  C   UNL     1      -4.759  11.475  18.314  0.00  0.00    +0.000 A 
ATOM     19  C   UNL     1      -5.559  12.152  19.240  0.00  0.00    +0.000 A 
ATOM     20  C   UNL     1      -4.968  12.882  20.283  0.00  0.00    +0.000 A 
ATOM     21  C   UNL     1      -3.580  12.949  20.424  0.00  0.00    +0.000 A 
ATOM     22  C   UNL     1      -2.796  12.270  19.504  0.00  0.00    +0.000 A 
ENDROOT
BRANCH  16  23
ATOM     23  C   UNL     1      -2.625   9.935  16.665  0.00  0.00    +0.000 C 
BRANCH  23  24
ATOM     24  C   UNL     1      -2.795  10.526  15.293  0.00  0.00    +0.000 C 
ATOM     25  C   UNL     1      -2.725   9.730  14.011  0.00  0.00    +0.000 C 
ATOM     26  C   UNL     1      -4.057  10.187  14.530  0.00  0.00    +0.000 C 
ENDBRANCH  23  24
ENDBRANCH  16  23
TORSDOF 2
ENDMDL
MODEL 9
REMARK VINA RESULT:      -6.4      4.107      7.046
REMARK  Name = 
REMARK  2 active torsions:
REMARK  status: ('A' for Active; 'I' for Inactive)
REMARK    1  A    between atoms: N_16  and  C_17
REMARK    2  A    between atoms: C_17  and  C_18
REMARK                            x       y       z     vdW  Elec       q    Type
REMARK                         _______ _______ _______ _____ _____    ______ ____
ROOT
ATOM      1  O   UNL     1       3.004   6.028  20.378  0.00  0.00    +0.000 OA
ATOM      2  C   UNL     1       2.971   6.664  19.319  0.00  0.00    +0.000 C 
ATOM      3  N   UNL     1       3.882   6.378  18.322  0.00  0.00    +0.000 N 
ATOM      4  C   UNL     1       4.856   5.311  18.515  0.00  0.00    +0.000 C 
ATOM      5  C   UNL     1       6.121   5.835  17.853  0.00  0.00    +0.000 C 
ATOM      6  C   UNL     1       5.592   6.621  16.671  0.00  0.00    +0.000 C 
ATOM      7  C   UNL     1       4.266   7.175  17.165  0.00  0.00    +0.000 C 
ATOM      8  N   UNL     1       2.064   7.695  19.153  0.00  0.00    +0.000 N 
ATOM      9  C   UNL     1       1.252   8.115  20.301  0.00  0.00    +0.000 C 
ATOM     10  C   UNL     1       1.233   9.650  20.436  0.00  0.00    +0.000 C 
ATOM     11  C   UNL     1       0.938  10.371  19.107  0.00  0.00    +0.000 C 
ATOM     12  C   UNL     1       1.787   9.786  17.966  0.00  0.00    +0.000 C 
ATOM     13  C   UNL     1       1.594   8.277  17.906  0.00  0.00    +0.000 C 
ATOM     14  C   UNL     1      -0.563  10.259  18.717  0.00  0.00    +0.000 C 
ATOM     15  O   UNL     1      -1.240   9.241  18.744  0.00  0.00    +0.000 OA
ATOM     16  N   UNL     1      -0.995  11.518  18.302  0.00  0.00    +0.000 N 
ATOM     17  C   UNL     1      -0.043  12.492  18.629  0.00  0.00    +0.000 A 
ATOM     18  C   UNL     1      -0.151  13.865  18.535  0.00  0.00    +0.000 A 
ATOM     19  C   UNL     1       0.922  14.644  18.976  0.00  0.00    +0.000 A 
ATOM     20  C   UNL     1       2.075  14.032  19.493  0.00  0.00    +0.000 A 
ATOM     21  C   UNL     1       2.177  12.642  19.582  0.00  0.00    +0.000 A 
ATOM     22  C   UNL     1       1.105  11.877  19.147  0.00  0.00    +0.000 A 
ENDROOT
BRANCH  16  23
ATOM     23  C   UNL     1      -2.364  11.773  17.923  0.00  0.00    +0.000 C 
BRANCH  23  24
ATOM     24  C   UNL     1      -2.673  11.430  16.492  0.00  0.00    +0.000 C 
ATOM     25  C   UNL     1      -2.973  10.033  16.000  0.00  0.00    +0.000 C 
ATOM     26  C   UNL     1      -4.091  11.023  16.155  0.00  0.00    +0.000 C 
ENDBRANCH  23  24
ENDBRANCH  16  23
TORSDOF 2
ENDMDL
