MODEL 1
REMARK VINA RESULT:      -6.3      0.000      0.000
REMARK  Name = 
REMARK  8 active torsions:
REMARK  status: ('A' for Active; 'I' for Inactive)
REMARK    1  A    between atoms: C_1  and  O_2
REMARK    2  A    between atoms: O_2  and  C_3
REMARK    3  A    between atoms: C_7  and  O_8
REMARK    4  A    between atoms: O_8  and  C_9
REMARK    5  A    between atoms: C_10  and  O_11
REMARK    6  A    between atoms: O_11  and  C_12
REMARK    7  A    between atoms: C_13  and  C_14
REMARK    8  A    between atoms: C_16  and  C_17
REMARK                            x       y       z     vdW  Elec       q    Type
REMARK                         _______ _______ _______ _____ _____    ______ ____
ROOT
ATOM      1  C   UNL     1       2.350   7.634  18.642  0.00  0.00    +0.000 A 
ATOM      2  C   UNL     1       2.490   8.867  18.012  0.00  0.00    +0.000 A 
ATOM      3  C   UNL     1       1.986  10.027  18.595  0.00  0.00    +0.000 A 
ATOM      4  C   UNL     1       1.271  10.013  19.814  0.00  0.00    +0.000 A 
ATOM      5  C   UNL     1       1.119   8.768  20.464  0.00  0.00    +0.000 A 
ATOM      6  C   UNL     1       1.666   7.577  19.870  0.00  0.00    +0.000 A 
ATOM      7  C   UNL     1       0.582  11.331  20.181  0.00  0.00    +0.000 C 
ATOM      8  C   UNL     1       1.512  12.503  19.824  0.00  0.00    +0.000 C 
ATOM      9  C   UNL     1       1.908  12.459  18.377  0.00  0.00    +0.000 C 
ATOM     10  O   UNL     1       2.100  13.469  17.705  0.00  0.00    +0.000 OA
ATOM     11  N   UNL     1       2.168  11.217  17.881  0.00  0.00    +0.000 N 
ATOM     12  H   UNL     1       2.561  11.206  16.948  0.00  0.00    +0.000 HD
ENDROOT
BRANCH   7  13
ATOM     13  C   UNL     1      -0.830  11.486  19.595  0.00  0.00    +0.000 A 
ATOM     14  C   UNL     1      -1.206  10.928  18.356  0.00  0.00    +0.000 A 
ATOM     15  C   UNL     1      -2.497  11.095  17.833  0.00  0.00    +0.000 A 
ATOM     16  C   UNL     1      -3.445  11.811  18.573  0.00  0.00    +0.000 A 
ATOM     17  C   UNL     1      -3.104  12.352  19.812  0.00  0.00    +0.000 A 
ATOM     18  C   UNL     1      -1.815  12.182  20.311  0.00  0.00    +0.000 A 
ATOM     19  F   UNL     1      -1.535  12.691  21.518  0.00  0.00    +0.000 F 
BRANCH  15  20
ATOM     20  C   UNL     1      -2.911  10.547  16.507  0.00  0.00    +0.000 C 
ATOM     21  N   UNL     1      -3.239  11.415  15.504  0.00  0.00    +0.000 N 
ATOM     22  O   UNL     1      -2.968   9.339  16.308  0.00  0.00    +0.000 OA
ATOM     23  H   UNL     1      -3.215  12.421  15.557  0.00  0.00    +0.000 HD
ATOM     24  H   UNL     1      -3.519  11.003  14.624  0.00  0.00    +0.000 HD
ENDBRANCH  15  20
ENDBRANCH   7  13
BRANCH   1  26
ATOM     25  C   UNL     1       4.090   6.523  17.446  0.00  0.00    +0.000 C 
ATOM     26  O   UNL     1       2.804   6.481  18.060  0.00  0.00    +0.000 OA
ENDBRANCH   1  26
BRANCH   5  27
ATOM     27  O   UNL     1       0.431   8.481  21.615  0.00  0.00    +0.000 OA
ATOM     28  C   UNL     1       0.521   9.236  22.802  0.00  0.00    +0.000 C 
ENDBRANCH   5  27
BRANCH   6  29
ATOM     29  O   UNL     1       1.427   6.436  20.611  0.00  0.00    +0.000 OA
ATOM     30  C   UNL     1       2.348   5.358  20.591  0.00  0.00    +0.000 C 
ENDBRANCH   6  29
TORSDOF 5
ENDMDL
MODEL 2
REMARK VINA RESULT:      -6.3      2.820      6.722
REMARK  Name = 
REMARK  8 active torsions:
REMARK  status: ('A' for Active; 'I' for Inactive)
REMARK    1  A    between atoms: C_1  and  O_2
REMARK    2  A    between atoms: O_2  and  C_3
REMARK    3  A    between atoms: C_7  and  O_8
REMARK    4  A    between atoms: O_8  and  C_9
REMARK    5  A    between atoms: C_10  and  O_11
REMARK    6  A    between atoms: O_11  and  C_12
REMARK    7  A    between atoms: C_13  and  C_14
REMARK    8  A    between atoms: C_16  and  C_17
REMARK                            x       y       z     vdW  Elec       q    Type
REMARK                         _______ _______ _______ _____ _____    ______ ____
ROOT
ATOM      1  C   UNL     1      -4.224  12.809  20.013  0.00  0.00    +0.000 A 
ATOM      2  C   UNL     1      -3.049  13.421  20.439  0.00  0.00    +0.000 A 
ATOM      3  C   UNL     1      -1.829  13.118  19.840  0.00  0.00    +0.000 A 
ATOM      4  C   UNL     1      -1.709  12.150  18.816  0.00  0.00    +0.000 A 
ATOM      5  C   UNL     1      -2.893  11.519  18.375  0.00  0.00    +0.000 A 
ATOM      6  C   UNL     1      -4.154  11.857  18.980  0.00  0.00    +0.000 A 
ATOM      7  C   UNL     1      -0.271  11.769  18.446  0.00  0.00    +0.000 C 
ATOM      8  C   UNL     1       0.602  13.035  18.444  0.00  0.00    +0.000 C 
ATOM      9  C   UNL     1       0.531  13.745  19.763  0.00  0.00    +0.000 C 
ATOM     10  O   UNL     1       1.480  14.357  20.246  0.00  0.00    +0.000 OA
ATOM     11  N   UNL     1      -0.702  13.778  20.342  0.00  0.00    +0.000 N 
ATOM     12  H   UNL     1      -0.771  14.369  21.161  0.00  0.00    +0.000 HD
ENDROOT
BRANCH   7  13
ATOM     13  C   UNL     1       0.318  10.636  19.301  0.00  0.00    +0.000 A 
ATOM     14  C   UNL     1       0.097  10.536  20.690  0.00  0.00    +0.000 A 
ATOM     15  C   UNL     1       0.657   9.501  21.453  0.00  0.00    +0.000 A 
ATOM     16  C   UNL     1       1.435   8.527  20.815  0.00  0.00    +0.000 A 
ATOM     17  C   UNL     1       1.648   8.592  19.440  0.00  0.00    +0.000 A 
ATOM     18  C   UNL     1       1.089   9.631  18.700  0.00  0.00    +0.000 A 
ATOM     19  F   UNL     1       1.291   9.641  17.375  0.00  0.00    +0.000 F 
BRANCH  15  20
ATOM     20  C   UNL     1       0.470   9.392  22.931  0.00  0.00    +0.000 C 
ATOM     21  N   UNL     1      -0.796   9.271  23.432  0.00  0.00    +0.000 N 
ATOM     22  O   UNL     1       1.426   9.418  23.697  0.00  0.00    +0.000 OA
ATOM     23  H   UNL     1      -1.646   9.228  22.893  0.00  0.00    +0.000 HD
ATOM     24  H   UNL     1      -0.879   9.205  24.438  0.00  0.00    +0.000 HD
ENDBRANCH  15  20
ENDBRANCH   7  13
BRANCH   1  26
ATOM     25  C   UNL     1      -5.381  13.658  21.919  0.00  0.00    +0.000 C 
ATOM     26  O   UNL     1      -5.423  13.068  20.623  0.00  0.00    +0.000 OA
ENDBRANCH   1  26
BRANCH   5  27
ATOM     27  O   UNL     1      -3.036  10.520  17.447  0.00  0.00    +0.000 OA
ATOM     28  C   UNL     1      -2.785  10.677  16.069  0.00  0.00    +0.000 C 
ENDBRANCH   5  27
BRANCH   6  29
ATOM     29  O   UNL     1      -5.219  11.150  18.458  0.00  0.00    +0.000 OA
ATOM     30  C   UNL     1      -6.178  11.794  17.636  0.00  0.00    +0.000 C 
ENDBRANCH   6  29
TORSDOF 5
ENDMDL
MODEL 3
REMARK VINA RESULT:      -6.2      3.188      6.242
REMARK  Name = 
REMARK  8 active torsions:
REMARK  status: ('A' for Active; 'I' for Inactive)
REMARK    1  A    between atoms: C_1  and  O_2
REMARK    2  A    between atoms: O_2  and  C_3
REMARK    3  A    between atoms: C_7  and  O_8
REMARK    4  A    between atoms: O_8  and  C_9
REMARK    5  A    between atoms: C_10  and  O_11
REMARK    6  A    between atoms: O_11  and  C_12
REMARK    7  A    between atoms: C_13  and  C_14
REMARK    8  A    between atoms: C_16  and  C_17
REMARK                            x       y       z     vdW  Elec       q    Type
REMARK                         _______ _______ _______ _____ _____    ______ ____
ROOT
ATOM      1  C   UNL     1      -1.176  13.858  22.988  0.00  0.00    +0.000 A 
ATOM      2  C   UNL     1      -1.195  12.469  23.060  0.00  0.00    +0.000 A 
ATOM      3  C   UNL     1      -0.704  11.693  22.012  0.00  0.00    +0.000 A 
ATOM      4  C   UNL     1      -0.213  12.263  20.815  0.00  0.00    +0.000 A 
ATOM      5  C   UNL     1      -0.191  13.673  20.727  0.00  0.00    +0.000 A 
ATOM      6  C   UNL     1      -0.674  14.468  21.824  0.00  0.00    +0.000 A 
ATOM      7  C   UNL     1       0.054  11.267  19.683  0.00  0.00    +0.000 C 
ATOM      8  C   UNL     1       0.686   9.993  20.269  0.00  0.00    +0.000 C 
ATOM      9  C   UNL     1      -0.180   9.404  21.343  0.00  0.00    +0.000 C 
ATOM     10  O   UNL     1      -0.266   8.195  21.544  0.00  0.00    +0.000 OA
ATOM     11  N   UNL     1      -0.773  10.306  22.174  0.00  0.00    +0.000 N 
ATOM     12  H   UNL     1      -1.246   9.900  22.972  0.00  0.00    +0.000 HD
ENDROOT
BRANCH   7  13
ATOM     13  C   UNL     1      -1.169  10.977  18.798  0.00  0.00    +0.000 A 
ATOM     14  C   UNL     1      -2.420  11.595  19.003  0.00  0.00    +0.000 A 
ATOM     15  C   UNL     1      -3.528  11.305  18.193  0.00  0.00    +0.000 A 
ATOM     16  C   UNL     1      -3.381  10.396  17.138  0.00  0.00    +0.000 A 
ATOM     17  C   UNL     1      -2.149   9.790  16.901  0.00  0.00    +0.000 A 
ATOM     18  C   UNL     1      -1.062  10.086  17.720  0.00  0.00    +0.000 A 
ATOM     19  F   UNL     1       0.113   9.507  17.443  0.00  0.00    +0.000 F 
BRANCH  15  20
ATOM     20  C   UNL     1      -4.873  11.917  18.410  0.00  0.00    +0.000 C 
ATOM     21  N   UNL     1      -4.978  13.020  19.210  0.00  0.00    +0.000 N 
ATOM     22  O   UNL     1      -5.877  11.443  17.893  0.00  0.00    +0.000 OA
ATOM     23  H   UNL     1      -4.218  13.493  19.672  0.00  0.00    +0.000 HD
ATOM     24  H   UNL     1      -5.906  13.400  19.335  0.00  0.00    +0.000 HD
ENDBRANCH  15  20
ENDBRANCH   7  13
BRANCH   1  26
ATOM     25  C   UNL     1      -3.040  14.374  24.386  0.00  0.00    +0.000 C 
ATOM     26  O   UNL     1      -1.694  14.631  23.994  0.00  0.00    +0.000 OA
ENDBRANCH   1  26
BRANCH   5  27
ATOM     27  O   UNL     1       0.182  14.459  19.667  0.00  0.00    +0.000 OA
ATOM     28  C   UNL     1       1.501  14.559  19.179  0.00  0.00    +0.000 C 
ENDBRANCH   5  27
BRANCH   6  29
ATOM     29  O   UNL     1      -0.603  15.827  21.589  0.00  0.00    +0.000 OA
ATOM     30  C   UNL     1      -1.779  16.576  21.330  0.00  0.00    +0.000 C 
ENDBRANCH   6  29
TORSDOF 5
ENDMDL
MODEL 4
REMARK VINA RESULT:      -6.2      3.112      6.163
REMARK  Name = 
REMARK  8 active torsions:
REMARK  status: ('A' for Active; 'I' for Inactive)
REMARK    1  A    between atoms: C_1  and  O_2
REMARK    2  A    between atoms: O_2  and  C_3
REMARK    3  A    between atoms: C_7  and  O_8
REMARK    4  A    between atoms: O_8  and  C_9
REMARK    5  A    between atoms: C_10  and  O_11
REMARK    6  A    between atoms: O_11  and  C_12
REMARK    7  A    between atoms: C_13  and  C_14
REMARK    8  A    between atoms: C_16  and  C_17
REMARK                            x       y       z     vdW  Elec       q    Type
REMARK                         _______ _______ _______ _____ _____    ______ ____
ROOT
ATOM      1  C   UNL     1      -0.496  14.268  22.552  0.00  0.00    +0.000 A 
ATOM      2  C   UNL     1      -0.722  12.918  22.803  0.00  0.00    +0.000 A 
ATOM      3  C   UNL     1      -0.444  11.956  21.834  0.00  0.00    +0.000 A 
ATOM      4  C   UNL     1       0.029  12.295  20.546  0.00  0.00    +0.000 A 
ATOM      5  C   UNL     1       0.261  13.662  20.276  0.00  0.00    +0.000 A 
ATOM      6  C   UNL     1      -0.003  14.648  21.290  0.00  0.00    +0.000 A 
ATOM      7  C   UNL     1       0.047  11.143  19.535  0.00  0.00    +0.000 C 
ATOM      8  C   UNL     1       0.522   9.861  20.239  0.00  0.00    +0.000 C 
ATOM      9  C   UNL     1      -0.334   9.549  21.432  0.00  0.00    +0.000 C 
ATOM     10  O   UNL     1      -0.588   8.403  21.792  0.00  0.00    +0.000 OA
ATOM     11  N   UNL     1      -0.712  10.626  22.176  0.00  0.00    +0.000 N 
ATOM     12  H   UNL     1      -1.174  10.399  23.048  0.00  0.00    +0.000 HD
ENDROOT
BRANCH   7  13
ATOM     13  C   UNL     1      -1.275  10.955  18.774  0.00  0.00    +0.000 A 
ATOM     14  C   UNL     1      -2.454  11.651  19.111  0.00  0.00    +0.000 A 
ATOM     15  C   UNL     1      -3.654  11.453  18.411  0.00  0.00    +0.000 A 
ATOM     16  C   UNL     1      -3.674  10.559  17.334  0.00  0.00    +0.000 A 
ATOM     17  C   UNL     1      -2.516   9.877  16.966  0.00  0.00    +0.000 A 
ATOM     18  C   UNL     1      -1.336  10.082  17.678  0.00  0.00    +0.000 A 
ATOM     19  F   UNL     1      -0.236   9.431  17.275  0.00  0.00    +0.000 F 
BRANCH  15  20
ATOM     20  C   UNL     1      -4.925  12.148  18.771  0.00  0.00    +0.000 C 
ATOM     21  N   UNL     1      -5.589  12.856  17.808  0.00  0.00    +0.000 N 
ATOM     22  O   UNL     1      -5.375  12.102  19.909  0.00  0.00    +0.000 OA
ATOM     23  H   UNL     1      -5.314  12.949  16.843  0.00  0.00    +0.000 HD
ATOM     24  H   UNL     1      -6.442  13.316  18.094  0.00  0.00    +0.000 HD
ENDBRANCH  15  20
ENDBRANCH   7  13
BRANCH   1  26
ATOM     25  C   UNL     1      -1.862  14.934  24.391  0.00  0.00    +0.000 C 
ATOM     26  O   UNL     1      -0.805  15.226  23.481  0.00  0.00    +0.000 OA
ENDBRANCH   1  26
BRANCH   5  27
ATOM     27  O   UNL     1       0.661  14.248  19.103  0.00  0.00    +0.000 OA
ATOM     28  C   UNL     1       1.947  14.103  18.543  0.00  0.00    +0.000 C 
ENDBRANCH   5  27
BRANCH   6  29
ATOM     29  O   UNL     1       0.256  15.940  20.879  0.00  0.00    +0.000 OA
ATOM     30  C   UNL     1       1.404  16.629  21.347  0.00  0.00    +0.000 C 
ENDBRANCH   6  29
TORSDOF 5
ENDMDL
MODEL 5
REMARK VINA RESULT:      -6.2      3.819      7.453
REMARK  Name = 
REMARK  8 active torsions:
REMARK  status: ('A' for Active; 'I' for Inactive)
REMARK    1  A    between atoms: C_1  and  O_2
REMARK    2  A    between atoms: O_2  and  C_3
REMARK    3  A    between atoms: C_7  and  O_8
REMARK    4  A    between atoms: O_8  and  C_9
REMARK    5  A    between atoms: C_10  and  O_11
REMARK    6  A    between atoms: O_11  and  C_12
REMARK    7  A    between atoms: C_13  and  C_14
REMARK    8  A    between atoms: C_16  and  C_17
REMARK                            x       y       z     vdW  Elec       q    Type
REMARK                         _______ _______ _______ _____ _____    ______ ____
ROOT
ATOM      1  C   UNL     1      -5.859  12.512  22.187  0.00  0.00    +0.000 A 
ATOM      2  C   UNL     1      -4.719  13.033  22.791  0.00  0.00    +0.000 A 
ATOM      3  C   UNL     1      -3.597  13.363  22.034  0.00  0.00    +0.000 A 
ATOM      4  C   UNL     1      -3.536  13.145  20.639  0.00  0.00    +0.000 A 
ATOM      5  C   UNL     1      -4.685  12.614  20.012  0.00  0.00    +0.000 A 
ATOM      6  C   UNL     1      -5.850  12.301  20.796  0.00  0.00    +0.000 A 
ATOM      7  C   UNL     1      -2.151  13.335  20.011  0.00  0.00    +0.000 C 
ATOM      8  C   UNL     1      -1.470  14.556  20.650  0.00  0.00    +0.000 C 
ATOM      9  C   UNL     1      -1.396  14.416  22.142  0.00  0.00    +0.000 C 
ATOM     10  O   UNL     1      -0.465  14.858  22.810  0.00  0.00    +0.000 OA
ATOM     11  N   UNL     1      -2.497  13.873  22.732  0.00  0.00    +0.000 N 
ATOM     12  H   UNL     1      -2.495  13.903  23.744  0.00  0.00    +0.000 HD
ENDROOT
BRANCH   7  13
ATOM     13  C   UNL     1      -1.271  12.075  20.037  0.00  0.00    +0.000 A 
ATOM     14  C   UNL     1      -0.889  11.439  21.235  0.00  0.00    +0.000 A 
ATOM     15  C   UNL     1      -0.073  10.297  21.236  0.00  0.00    +0.000 A 
ATOM     16  C   UNL     1       0.352   9.761  20.015  0.00  0.00    +0.000 A 
ATOM     17  C   UNL     1      -0.033  10.360  18.816  0.00  0.00    +0.000 A 
ATOM     18  C   UNL     1      -0.838  11.496  18.835  0.00  0.00    +0.000 A 
ATOM     19  F   UNL     1      -1.211  12.024  17.662  0.00  0.00    +0.000 F 
BRANCH  15  20
ATOM     20  C   UNL     1       0.378   9.625  22.492  0.00  0.00    +0.000 C 
ATOM     21  N   UNL     1      -0.553   9.286  23.433  0.00  0.00    +0.000 N 
ATOM     22  O   UNL     1       1.562   9.382  22.693  0.00  0.00    +0.000 OA
ATOM     23  H   UNL     1      -1.548   9.430  23.364  0.00  0.00    +0.000 HD
ATOM     24  H   UNL     1      -0.206   8.838  24.271  0.00  0.00    +0.000 HD
ENDBRANCH  15  20
ENDBRANCH   7  13
BRANCH   1  26
ATOM     25  C   UNL     1      -7.266  12.941  24.065  0.00  0.00    +0.000 C 
ATOM     26  O   UNL     1      -6.952  12.145  22.926  0.00  0.00    +0.000 OA
ENDBRANCH   1  26
BRANCH   5  27
ATOM     27  O   UNL     1      -4.860  12.264  18.697  0.00  0.00    +0.000 OA
ATOM     28  C   UNL     1      -4.330  11.096  18.111  0.00  0.00    +0.000 C 
ENDBRANCH   5  27
BRANCH   6  29
ATOM     29  O   UNL     1      -6.887  11.777  20.051  0.00  0.00    +0.000 OA
ATOM     30  C   UNL     1      -7.296  10.431  20.229  0.00  0.00    +0.000 C 
ENDBRANCH   6  29
TORSDOF 5
ENDMDL
MODEL 6
REMARK VINA RESULT:      -6.1      3.622      6.718
REMARK  Name = 
REMARK  8 active torsions:
REMARK  status: ('A' for Active; 'I' for Inactive)
REMARK    1  A    between atoms: C_1  and  O_2
REMARK    2  A    between atoms: O_2  and  C_3
REMARK    3  A    between atoms: C_7  and  O_8
REMARK    4  A    between atoms: O_8  and  C_9
REMARK    5  A    between atoms: C_10  and  O_11
REMARK    6  A    between atoms: O_11  and  C_12
REMARK    7  A    between atoms: C_13  and  C_14
REMARK    8  A    between atoms: C_16  and  C_17
REMARK                            x       y       z     vdW  Elec       q    Type
REMARK                         _______ _______ _______ _____ _____    ______ ____
ROOT
ATOM      1  C   UNL     1      -4.313  13.255  21.518  0.00  0.00    +0.000 A 
ATOM      2  C   UNL     1      -4.244  13.006  20.150  0.00  0.00    +0.000 A 
ATOM      3  C   UNL     1      -3.173  12.301  19.606  0.00  0.00    +0.000 A 
ATOM      4  C   UNL     1      -2.088  11.848  20.392  0.00  0.00    +0.000 A 
ATOM      5  C   UNL     1      -2.143  12.095  21.782  0.00  0.00    +0.000 A 
ATOM      6  C   UNL     1      -3.266  12.801  22.341  0.00  0.00    +0.000 A 
ATOM      7  C   UNL     1      -0.891  11.312  19.600  0.00  0.00    +0.000 C 
ATOM      8  C   UNL     1      -1.402  10.486  18.408  0.00  0.00    +0.000 C 
ATOM      9  C   UNL     1      -2.329  11.293  17.548  0.00  0.00    +0.000 C 
ATOM     10  O   UNL     1      -2.400  11.156  16.329  0.00  0.00    +0.000 OA
ATOM     11  N   UNL     1      -3.188  12.109  18.221  0.00  0.00    +0.000 N 
ATOM     12  H   UNL     1      -3.895  12.548  17.645  0.00  0.00    +0.000 HD
ENDROOT
BRANCH   7  13
ATOM     13  C   UNL     1       0.126  12.390  19.191  0.00  0.00    +0.000 A 
ATOM     14  C   UNL     1      -0.166  13.769  19.241  0.00  0.00    +0.000 A 
ATOM     15  C   UNL     1       0.773  14.736  18.849  0.00  0.00    +0.000 A 
ATOM     16  C   UNL     1       2.040  14.322  18.421  0.00  0.00    +0.000 A 
ATOM     17  C   UNL     1       2.359  12.966  18.385  0.00  0.00    +0.000 A 
ATOM     18  C   UNL     1       1.412  12.020  18.772  0.00  0.00    +0.000 A 
ATOM     19  F   UNL     1       1.766  10.729  18.753  0.00  0.00    +0.000 F 
BRANCH  15  20
ATOM     20  C   UNL     1       0.478  16.200  18.856  0.00  0.00    +0.000 C 
ATOM     21  N   UNL     1       1.203  17.017  19.678  0.00  0.00    +0.000 N 
ATOM     22  O   UNL     1      -0.402  16.675  18.149  0.00  0.00    +0.000 OA
ATOM     23  H   UNL     1       1.952  16.734  20.288  0.00  0.00    +0.000 HD
ATOM     24  H   UNL     1       0.968  18.001  19.656  0.00  0.00    +0.000 HD
ENDBRANCH  15  20
ENDBRANCH   7  13
BRANCH   1  26
ATOM     25  C   UNL     1      -6.666  13.584  21.727  0.00  0.00    +0.000 C 
ATOM     26  O   UNL     1      -5.339  13.983  22.058  0.00  0.00    +0.000 OA
ENDBRANCH   1  26
BRANCH   5  27
ATOM     27  O   UNL     1      -1.205  11.810  22.740  0.00  0.00    +0.000 OA
ATOM     28  C   UNL     1      -0.856  10.506  23.144  0.00  0.00    +0.000 C 
ENDBRANCH   5  27
BRANCH   6  29
ATOM     29  O   UNL     1      -3.175  12.980  23.707  0.00  0.00    +0.000 OA
ATOM     30  C   UNL     1      -4.140  12.409  24.575  0.00  0.00    +0.000 C 
ENDBRANCH   6  29
TORSDOF 5
ENDMDL
MODEL 7
REMARK VINA RESULT:      -6.1      2.865      6.100
REMARK  Name = 
REMARK  8 active torsions:
REMARK  status: ('A' for Active; 'I' for Inactive)
REMARK    1  A    between atoms: C_1  and  O_2
REMARK    2  A    between atoms: O_2  and  C_3
REMARK    3  A    between atoms: C_7  and  O_8
REMARK    4  A    between atoms: O_8  and  C_9
REMARK    5  A    between atoms: C_10  and  O_11
REMARK    6  A    between atoms: O_11  and  C_12
REMARK    7  A    between atoms: C_13  and  C_14
REMARK    8  A    between atoms: C_16  and  C_17
REMARK                            x       y       z     vdW  Elec       q    Type
REMARK                         _______ _______ _______ _____ _____    ______ ____
ROOT
ATOM      1  C   UNL     1       1.148  15.488  19.599  0.00  0.00    +0.000 A 
ATOM      2  C   UNL     1       0.544  14.719  18.609  0.00  0.00    +0.000 A 
ATOM      3  C   UNL     1      -0.299  13.662  18.942  0.00  0.00    +0.000 A 
ATOM      4  C   UNL     1      -0.547  13.285  20.282  0.00  0.00    +0.000 A 
ATOM      5  C   UNL     1       0.061  14.055  21.298  0.00  0.00    +0.000 A 
ATOM      6  C   UNL     1       0.910  15.162  20.947  0.00  0.00    +0.000 A 
ATOM      7  C   UNL     1      -1.296  11.959  20.457  0.00  0.00    +0.000 C 
ATOM      8  C   UNL     1      -2.399  11.858  19.390  0.00  0.00    +0.000 C 
ATOM      9  C   UNL     1      -1.832  12.005  18.009  0.00  0.00    +0.000 C 
ATOM     10  O   UNL     1      -2.287  11.414  17.033  0.00  0.00    +0.000 OA
ATOM     11  N   UNL     1      -0.852  12.942  17.877  0.00  0.00    +0.000 N 
ATOM     12  H   UNL     1      -0.569  13.129  16.923  0.00  0.00    +0.000 HD
ENDROOT
BRANCH   7  13
ATOM     13  C   UNL     1      -0.383  10.722  20.495  0.00  0.00    +0.000 A 
ATOM     14  C   UNL     1       0.378  10.304  19.385  0.00  0.00    +0.000 A 
ATOM     15  C   UNL     1       1.194   9.163  19.438  0.00  0.00    +0.000 A 
ATOM     16  C   UNL     1       1.272   8.436  20.632  0.00  0.00    +0.000 A 
ATOM     17  C   UNL     1       0.546   8.844  21.750  0.00  0.00    +0.000 A 
ATOM     18  C   UNL     1      -0.263   9.975  21.676  0.00  0.00    +0.000 A 
ATOM     19  F   UNL     1      -0.921  10.353  22.780  0.00  0.00    +0.000 F 
BRANCH  15  20
ATOM     20  C   UNL     1       1.982   8.676  18.267  0.00  0.00    +0.000 C 
ATOM     21  N   UNL     1       2.527   7.423  18.309  0.00  0.00    +0.000 N 
ATOM     22  O   UNL     1       2.153   9.380  17.279  0.00  0.00    +0.000 OA
ATOM     23  H   UNL     1       2.437   6.761  19.064  0.00  0.00    +0.000 HD
ATOM     24  H   UNL     1       3.057   7.134  17.498  0.00  0.00    +0.000 HD
ENDBRANCH  15  20
ENDBRANCH   7  13
BRANCH   1  26
ATOM     25  C   UNL     1       3.345  16.140  18.935  0.00  0.00    +0.000 C 
ATOM     26  O   UNL     1       2.012  16.503  19.285  0.00  0.00    +0.000 OA
ENDBRANCH   1  26
BRANCH   5  27
ATOM     27  O   UNL     1       0.024  13.864  22.655  0.00  0.00    +0.000 OA
ATOM     28  C   UNL     1      -1.147  13.950  23.436  0.00  0.00    +0.000 C 
ENDBRANCH   5  27
BRANCH   6  29
ATOM     29  O   UNL     1       1.444  15.811  22.043  0.00  0.00    +0.000 OA
ATOM     30  C   UNL     1       0.955  17.083  22.437  0.00  0.00    +0.000 C 
ENDBRANCH   6  29
TORSDOF 5
ENDMDL
MODEL 8
REMARK VINA RESULT:      -6.1      3.287      6.317
REMARK  Name = 
REMARK  8 active torsions:
REMARK  status: ('A' for Active; 'I' for Inactive)
REMARK    1  A    between atoms: C_1  and  O_2
REMARK    2  A    between atoms: O_2  and  C_3
REMARK    3  A    between atoms: C_7  and  O_8
REMARK    4  A    between atoms: O_8  and  C_9
REMARK    5  A    between atoms: C_10  and  O_11
REMARK    6  A    between atoms: O_11  and  C_12
REMARK    7  A    between atoms: C_13  and  C_14
REMARK    8  A    between atoms: C_16  and  C_17
REMARK                            x       y       z     vdW  Elec       q    Type
REMARK                         _______ _______ _______ _____ _____    ______ ____
ROOT
ATOM      1  C   UNL     1      -2.446  13.180  23.313  0.00  0.00    +0.000 A 
ATOM      2  C   UNL     1      -1.948  11.888  23.182  0.00  0.00    +0.000 A 
ATOM      3  C   UNL     1      -1.210  11.518  22.060  0.00  0.00    +0.000 A 
ATOM      4  C   UNL     1      -0.970  12.405  20.987  0.00  0.00    +0.000 A 
ATOM      5  C   UNL     1      -1.471  13.721  21.105  0.00  0.00    +0.000 A 
ATOM      6  C   UNL     1      -2.210  14.104  22.278  0.00  0.00    +0.000 A 
ATOM      7  C   UNL     1      -0.357  11.764  19.737  0.00  0.00    +0.000 C 
ATOM      8  C   UNL     1       0.704  10.736  20.166  0.00  0.00    +0.000 C 
ATOM      9  C   UNL     1       0.123   9.712  21.095  0.00  0.00    +0.000 C 
ATOM     10  O   UNL     1       0.490   8.541  21.114  0.00  0.00    +0.000 OA
ATOM     11  N   UNL     1      -0.760  10.194  22.015  0.00  0.00    +0.000 N 
ATOM     12  H   UNL     1      -1.045   9.525  22.720  0.00  0.00    +0.000 HD
ENDROOT
BRANCH   7  13
ATOM     13  C   UNL     1      -1.390  11.186  18.756  0.00  0.00    +0.000 A 
ATOM     14  C   UNL     1      -2.744  11.579  18.758  0.00  0.00    +0.000 A 
ATOM     15  C   UNL     1      -3.673  11.028  17.863  0.00  0.00    +0.000 A 
ATOM     16  C   UNL     1      -3.239  10.082  16.927  0.00  0.00    +0.000 A 
ATOM     17  C   UNL     1      -1.900   9.695  16.891  0.00  0.00    +0.000 A 
ATOM     18  C   UNL     1      -0.994  10.248  17.792  0.00  0.00    +0.000 A 
ATOM     19  F   UNL     1       0.289   9.874  17.706  0.00  0.00    +0.000 F 
BRANCH  15  20
ATOM     20  C   UNL     1      -5.120  11.399  17.867  0.00  0.00    +0.000 C 
ATOM     21  N   UNL     1      -5.490  12.629  17.401  0.00  0.00    +0.000 N 
ATOM     22  O   UNL     1      -5.973  10.625  18.285  0.00  0.00    +0.000 OA
ATOM     23  H   UNL     1      -4.874  13.333  17.026  0.00  0.00    +0.000 HD
ATOM     24  H   UNL     1      -6.478  12.843  17.427  0.00  0.00    +0.000 HD
ENDBRANCH  15  20
ENDBRANCH   7  13
BRANCH   1  26
ATOM     25  C   UNL     1      -4.281  12.678  24.753  0.00  0.00    +0.000 C 
ATOM     26  O   UNL     1      -3.209  13.544  24.391  0.00  0.00    +0.000 OA
ENDBRANCH   1  26
BRANCH   5  27
ATOM     27  O   UNL     1      -1.420  14.742  20.191  0.00  0.00    +0.000 OA
ATOM     28  C   UNL     1      -0.233  15.386  19.786  0.00  0.00    +0.000 C 
ENDBRANCH   5  27
BRANCH   6  29
ATOM     29  O   UNL     1      -2.647  15.413  22.246  0.00  0.00    +0.000 OA
ATOM     30  C   UNL     1      -4.015  15.710  22.017  0.00  0.00    +0.000 C 
ENDBRANCH   6  29
TORSDOF 5
ENDMDL
MODEL 9
REMARK VINA RESULT:      -6.0      2.796      6.024
REMARK  Name = 
REMARK  8 active torsions:
REMARK  status: ('A' for Active; 'I' for Inactive)
REMARK    1  A    between atoms: C_1  and  O_2
REMARK    2  A    between atoms: O_2  and  C_3
REMARK    3  A    between atoms: C_7  and  O_8
REMARK    4  A    between atoms: O_8  and  C_9
REMARK    5  A    between atoms: C_10  and  O_11
REMARK    6  A    between atoms: O_11  and  C_12
REMARK    7  A    between atoms: C_13  and  C_14
REMARK    8  A    between atoms: C_16  and  C_17
REMARK                            x       y       z     vdW  Elec       q    Type
REMARK                         _______ _______ _______ _____ _____    ______ ____
ROOT
ATOM      1  C   UNL     1       1.998  15.213  19.481  0.00  0.00    +0.000 A 
ATOM      2  C   UNL     1       1.313  14.352  18.629  0.00  0.00    +0.000 A 
ATOM      3  C   UNL     1       0.241  13.594  19.093  0.00  0.00    +0.000 A 
ATOM      4  C   UNL     1      -0.174  13.617  20.444  0.00  0.00    +0.000 A 
ATOM      5  C   UNL     1       0.514  14.485  21.321  0.00  0.00    +0.000 A 
ATOM      6  C   UNL     1       1.603  15.286  20.829  0.00  0.00    +0.000 A 
ATOM      7  C   UNL     1      -1.201  12.547  20.828  0.00  0.00    +0.000 C 
ATOM      8  C   UNL     1      -2.224  12.396  19.690  0.00  0.00    +0.000 C 
ATOM      9  C   UNL     1      -1.545  12.083  18.389  0.00  0.00    +0.000 C 
ATOM     10  O   UNL     1      -2.048  11.366  17.528  0.00  0.00    +0.000 OA
ATOM     11  N   UNL     1      -0.379  12.751  18.164  0.00  0.00    +0.000 N 
ATOM     12  H   UNL     1       0.003  12.636  17.233  0.00  0.00    +0.000 HD
ENDROOT
BRANCH   7  13
ATOM     13  C   UNL     1      -0.581  11.207  21.258  0.00  0.00    +0.000 A 
ATOM     14  C   UNL     1       0.233  10.436  20.403  0.00  0.00    +0.000 A 
ATOM     15  C   UNL     1       0.777   9.209  20.812  0.00  0.00    +0.000 A 
ATOM     16  C   UNL     1       0.525   8.750  22.111  0.00  0.00    +0.000 A 
ATOM     17  C   UNL     1      -0.257   9.507  22.982  0.00  0.00    +0.000 A 
ATOM     18  C   UNL     1      -0.793  10.719  22.556  0.00  0.00    +0.000 A 
ATOM     19  F   UNL     1      -1.515  11.432  23.431  0.00  0.00    +0.000 F 
BRANCH  15  20
ATOM     20  C   UNL     1       1.611   8.354  19.915  0.00  0.00    +0.000 C 
ATOM     21  N   UNL     1       2.136   7.192  20.407  0.00  0.00    +0.000 N 
ATOM     22  O   UNL     1       1.837   8.680  18.756  0.00  0.00    +0.000 OA
ATOM     23  H   UNL     1       2.004   6.827  21.337  0.00  0.00    +0.000 HD
ATOM     24  H   UNL     1       2.699   6.645  19.769  0.00  0.00    +0.000 HD
ENDBRANCH  15  20
ENDBRANCH   7  13
BRANCH   1  26
ATOM     25  C   UNL     1       3.612  15.601  17.767  0.00  0.00    +0.000 C 
ATOM     26  O   UNL     1       3.080  15.933  19.047  0.00  0.00    +0.000 OA
ENDBRANCH   1  26
BRANCH   5  27
ATOM     27  O   UNL     1       0.343  14.650  22.672  0.00  0.00    +0.000 OA
ATOM     28  C   UNL     1      -0.844  15.119  23.269  0.00  0.00    +0.000 C 
ENDBRANCH   5  27
BRANCH   6  29
ATOM     29  O   UNL     1       2.187  16.072  21.802  0.00  0.00    +0.000 OA
ATOM     30  C   UNL     1       3.427  15.700  22.382  0.00  0.00    +0.000 C 
ENDBRANCH   6  29
TORSDOF 5
ENDMDL
