MODEL 1
REMARK VINA RESULT:      -8.3      0.000      0.000
REMARK  Name = 
REMARK  6 active torsions:
REMARK  status: ('A' for Active; 'I' for Inactive)
REMARK    1  A    between atoms: C_1  and  C_2
REMARK    2  A    between atoms: C_2  and  N_3
REMARK    3  A    between atoms: C_9  and  N_10
REMARK    4  A    between atoms: N_13  and  C_14
REMARK    5  A    between atoms: C_16  and  C_17
REMARK    6  A    between atoms: C_16  and  C_19
REMARK                            x       y       z     vdW  Elec       q    Type
REMARK                         _______ _______ _______ _____ _____    ______ ____
ROOT
ATOM      1  N   UNL     1       2.402   5.690  19.627  0.00  0.00    +0.000 N 
ATOM      2  C   UNL     1       3.498   4.906  19.362  0.00  0.00    +0.000 C 
ATOM      3  O   UNL     1       3.611   3.801  19.885  0.00  0.00    +0.000 OA
ATOM      4  N   UNL     1       4.461   5.452  18.573  0.00  0.00    +0.000 N 
ATOM      5  H   UNL     1       1.994   5.400  20.509  0.00  0.00    +0.000 HD
ATOM      6  H   UNL     1       4.344   6.414  18.307  0.00  0.00    +0.000 HD
ENDROOT
BRANCH   1  13
ATOM      7  N   UNL     1       0.716  10.225  20.471  0.00  0.00    +0.000 N 
ATOM      8  C   UNL     1       0.711  10.052  21.849  0.00  0.00    +0.000 C 
ATOM      9  O   UNL     1       0.198  10.827  22.654  0.00  0.00    +0.000 OA
ATOM     10  N   UNL     1       1.354   8.944  22.321  0.00  0.00    +0.000 N 
ATOM     11  C   UNL     1       1.369   7.742  21.544  0.00  0.00    +0.000 C 
ATOM     12  C   UNL     1       1.669   8.013  20.103  0.00  0.00    +0.000 A 
ATOM     13  C   UNL     1       2.211   7.035  19.243  0.00  0.00    +0.000 A 
ATOM     14  C   UNL     1       2.580   7.377  17.941  0.00  0.00    +0.000 A 
ATOM     15  C   UNL     1       2.297   8.648  17.450  0.00  0.00    +0.000 A 
ATOM     16  C   UNL     1       1.660   9.588  18.263  0.00  0.00    +0.000 A 
ATOM     17  C   UNL     1       1.347   9.288  19.598  0.00  0.00    +0.000 A 
ATOM     18  H   UNL     1       1.262   8.862  23.326  0.00  0.00    +0.000 HD
BRANCH   7  20
ATOM     19  C   UNL     1      -1.427  10.866  19.450  0.00  0.00    +0.000 C 
ATOM     20  C   UNL     1      -0.063  11.340  19.938  0.00  0.00    +0.000 C 
ENDBRANCH   7  20
ENDBRANCH   1  13
BRANCH   4  21
ATOM     21  C   UNL     1       5.773   4.865  18.374  0.00  0.00    +0.000 C 
ATOM     22  C   UNL     1       6.902   5.765  18.878  0.00  0.00    +0.000 C 
ATOM     23  C   UNL     1       7.264   6.880  17.878  0.00  0.00    +0.000 C 
ATOM     24  O   UNL     1       7.643   6.312  16.605  0.00  0.00    +0.000 OA
ATOM     25  C   UNL     1       6.866   5.292  16.129  0.00  0.00    +0.000 A 
ATOM     26  C   UNL     1       7.034   4.985  14.777  0.00  0.00    +0.000 A 
ATOM     27  C   UNL     1       6.276   3.971  14.195  0.00  0.00    +0.000 A 
ATOM     28 CL   UNL     1       6.473   3.603  12.526  0.00  0.00    +0.000 Cl
ATOM     29  C   UNL     1       5.357   3.253  14.954  0.00  0.00    +0.000 A 
ATOM     30  C   UNL     1       5.208   3.543  16.310  0.00  0.00    +0.000 A 
ATOM     31  C   UNL     1       5.964   4.563  16.910  0.00  0.00    +0.000 A 
BRANCH  23  32
ATOM     32  C   UNL     1       6.168   7.932  17.664  0.00  0.00    +0.000 C 
ATOM     33  F   UNL     1       5.503   7.678  16.505  0.00  0.00    +0.000 F 
ENDBRANCH  23  32
BRANCH  23  34
ATOM     34  C   UNL     1       8.494   7.624  18.428  0.00  0.00    +0.000 C 
ATOM     35  F   UNL     1       8.450   8.934  18.053  0.00  0.00    +0.000 F 
ENDBRANCH  23  34
ENDBRANCH   4  21
TORSDOF 5
ENDMDL
MODEL 2
REMARK VINA RESULT:      -8.1      4.173      8.445
REMARK  Name = 
REMARK  6 active torsions:
REMARK  status: ('A' for Active; 'I' for Inactive)
REMARK    1  A    between atoms: C_1  and  C_2
REMARK    2  A    between atoms: C_2  and  N_3
REMARK    3  A    between atoms: C_9  and  N_10
REMARK    4  A    between atoms: N_13  and  C_14
REMARK    5  A    between atoms: C_16  and  C_17
REMARK    6  A    between atoms: C_16  and  C_19
REMARK                            x       y       z     vdW  Elec       q    Type
REMARK                         _______ _______ _______ _____ _____    ______ ____
ROOT
ATOM      1  N   UNL     1       1.724   8.051  21.488  0.00  0.00    +0.000 N 
ATOM      2  C   UNL     1       1.189   9.276  21.805  0.00  0.00    +0.000 C 
ATOM      3  O   UNL     1       0.916   9.551  22.970  0.00  0.00    +0.000 OA
ATOM      4  N   UNL     1       0.914  10.107  20.765  0.00  0.00    +0.000 N 
ATOM      5  H   UNL     1       1.491   7.390  22.222  0.00  0.00    +0.000 HD
ATOM      6  H   UNL     1       1.042   9.740  19.839  0.00  0.00    +0.000 HD
ENDROOT
BRANCH   1  13
ATOM      7  N   UNL     1       2.447   4.287  18.418  0.00  0.00    +0.000 N 
ATOM      8  C   UNL     1       1.881   3.365  19.287  0.00  0.00    +0.000 C 
ATOM      9  O   UNL     1       1.924   2.145  19.146  0.00  0.00    +0.000 OA
ATOM     10  N   UNL     1       1.207   3.880  20.357  0.00  0.00    +0.000 N 
ATOM     11  C   UNL     1       1.639   5.109  20.950  0.00  0.00    +0.000 C 
ATOM     12  C   UNL     1       1.959   6.144  19.917  0.00  0.00    +0.000 A 
ATOM     13  C   UNL     1       1.932   7.527  20.195  0.00  0.00    +0.000 A 
ATOM     14  C   UNL     1       2.123   8.449  19.164  0.00  0.00    +0.000 A 
ATOM     15  C   UNL     1       2.465   8.007  17.890  0.00  0.00    +0.000 A 
ATOM     16  C   UNL     1       2.601   6.641  17.635  0.00  0.00    +0.000 A 
ATOM     17  C   UNL     1       2.342   5.694  18.640  0.00  0.00    +0.000 A 
ATOM     18  H   UNL     1       0.868   3.148  20.970  0.00  0.00    +0.000 HD
BRANCH   7  20
ATOM     19  C   UNL     1       4.748   3.805  17.696  0.00  0.00    +0.000 C 
ATOM     20  C   UNL     1       3.270   3.758  17.331  0.00  0.00    +0.000 C 
ENDBRANCH   7  20
ENDBRANCH   1  13
BRANCH   4  21
ATOM     21  C   UNL     1       0.148  11.334  20.891  0.00  0.00    +0.000 C 
ATOM     22  C   UNL     1      -1.278  11.193  20.358  0.00  0.00    +0.000 C 
ATOM     23  C   UNL     1      -1.354  11.319  18.824  0.00  0.00    +0.000 C 
ATOM     24  O   UNL     1      -0.810  12.586  18.394  0.00  0.00    +0.000 OA
ATOM     25  C   UNL     1       0.357  12.988  18.984  0.00  0.00    +0.000 A 
ATOM     26  C   UNL     1       1.036  14.023  18.337  0.00  0.00    +0.000 A 
ATOM     27  C   UNL     1       2.242  14.492  18.853  0.00  0.00    +0.000 A 
ATOM     28 CL   UNL     1       3.084  15.758  18.048  0.00  0.00    +0.000 Cl
ATOM     29  C   UNL     1       2.774  13.943  20.015  0.00  0.00    +0.000 A 
ATOM     30  C   UNL     1       2.083  12.926  20.674  0.00  0.00    +0.000 A 
ATOM     31  C   UNL     1       0.866  12.442  20.166  0.00  0.00    +0.000 A 
BRANCH  23  32
ATOM     32  C   UNL     1      -0.674  10.181  18.051  0.00  0.00    +0.000 C 
ATOM     33  F   UNL     1      -1.545   9.644  17.156  0.00  0.00    +0.000 F 
ENDBRANCH  23  32
BRANCH  23  34
ATOM     34  C   UNL     1      -2.840  11.303  18.423  0.00  0.00    +0.000 C 
ATOM     35  F   UNL     1      -3.522  12.244  19.136  0.00  0.00    +0.000 F 
ENDBRANCH  23  34
ENDBRANCH   4  21
TORSDOF 5
ENDMDL
MODEL 3
REMARK VINA RESULT:      -7.8      3.129      4.923
REMARK  Name = 
REMARK  6 active torsions:
REMARK  status: ('A' for Active; 'I' for Inactive)
REMARK    1  A    between atoms: C_1  and  C_2
REMARK    2  A    between atoms: C_2  and  N_3
REMARK    3  A    between atoms: C_9  and  N_10
REMARK    4  A    between atoms: N_13  and  C_14
REMARK    5  A    between atoms: C_16  and  C_17
REMARK    6  A    between atoms: C_16  and  C_19
REMARK                            x       y       z     vdW  Elec       q    Type
REMARK                         _______ _______ _______ _____ _____    ______ ____
ROOT
ATOM      1  N   UNL     1       1.849   9.523  18.566  0.00  0.00    +0.000 N 
ATOM      2  C   UNL     1       2.315   8.424  17.887  0.00  0.00    +0.000 C 
ATOM      3  O   UNL     1       2.855   8.555  16.792  0.00  0.00    +0.000 OA
ATOM      4  N   UNL     1       2.071   7.211  18.451  0.00  0.00    +0.000 N 
ATOM      5  H   UNL     1       1.690  10.277  17.905  0.00  0.00    +0.000 HD
ATOM      6  H   UNL     1       1.500   7.198  19.277  0.00  0.00    +0.000 HD
ENDROOT
BRANCH   1  13
ATOM      7  N   UNL     1      -1.619  11.477  21.443  0.00  0.00    +0.000 N 
ATOM      8  C   UNL     1      -2.223  12.153  20.391  0.00  0.00    +0.000 C 
ATOM      9  O   UNL     1      -3.100  13.006  20.513  0.00  0.00    +0.000 OA
ATOM     10  N   UNL     1      -1.814  11.806  19.136  0.00  0.00    +0.000 N 
ATOM     11  C   UNL     1      -0.461  11.394  18.915  0.00  0.00    +0.000 C 
ATOM     12  C   UNL     1       0.008  10.432  19.961  0.00  0.00    +0.000 A 
ATOM     13  C   UNL     1       1.064   9.524  19.739  0.00  0.00    +0.000 A 
ATOM     14  C   UNL     1       1.380   8.570  20.708  0.00  0.00    +0.000 A 
ATOM     15  C   UNL     1       0.739   8.596  21.943  0.00  0.00    +0.000 A 
ATOM     16  C   UNL     1      -0.232   9.563  22.210  0.00  0.00    +0.000 A 
ATOM     17  C   UNL     1      -0.616  10.486  21.222  0.00  0.00    +0.000 A 
ATOM     18  H   UNL     1      -2.261  12.377  18.429  0.00  0.00    +0.000 HD
BRANCH   7  20
ATOM     19  C   UNL     1      -1.141  13.136  23.194  0.00  0.00    +0.000 C 
ATOM     20  C   UNL     1      -1.958  11.913  22.796  0.00  0.00    +0.000 C 
ENDBRANCH   7  20
ENDBRANCH   1  13
BRANCH   4  21
ATOM     21  C   UNL     1       2.289   5.946  17.774  0.00  0.00    +0.000 C 
ATOM     22  C   UNL     1       1.407   4.826  18.327  0.00  0.00    +0.000 C 
ATOM     23  C   UNL     1       1.969   4.213  19.625  0.00  0.00    +0.000 C 
ATOM     24  O   UNL     1       3.303   3.703  19.404  0.00  0.00    +0.000 OA
ATOM     25  C   UNL     1       4.154   4.494  18.682  0.00  0.00    +0.000 A 
ATOM     26  C   UNL     1       5.507   4.154  18.761  0.00  0.00    +0.000 A 
ATOM     27  C   UNL     1       6.454   4.910  18.073  0.00  0.00    +0.000 A 
ATOM     28 CL   UNL     1       8.121   4.499  18.181  0.00  0.00    +0.000 Cl
ATOM     29  C   UNL     1       6.062   5.996  17.297  0.00  0.00    +0.000 A 
ATOM     30  C   UNL     1       4.709   6.319  17.198  0.00  0.00    +0.000 A 
ATOM     31  C   UNL     1       3.742   5.567  17.888  0.00  0.00    +0.000 A 
BRANCH  23  32
ATOM     32  C   UNL     1       1.976   5.160  20.832  0.00  0.00    +0.000 C 
ATOM     33  F   UNL     1       2.491   4.522  21.917  0.00  0.00    +0.000 F 
ENDBRANCH  23  32
BRANCH  23  34
ATOM     34  C   UNL     1       1.081   3.014  20.002  0.00  0.00    +0.000 C 
ATOM     35  F   UNL     1       0.436   2.549  18.895  0.00  0.00    +0.000 F 
ENDBRANCH  23  34
ENDBRANCH   4  21
TORSDOF 5
ENDMDL
MODEL 4
REMARK VINA RESULT:      -7.5      3.962      8.755
REMARK  Name = 
REMARK  6 active torsions:
REMARK  status: ('A' for Active; 'I' for Inactive)
REMARK    1  A    between atoms: C_1  and  C_2
REMARK    2  A    between atoms: C_2  and  N_3
REMARK    3  A    between atoms: C_9  and  N_10
REMARK    4  A    between atoms: N_13  and  C_14
REMARK    5  A    between atoms: C_16  and  C_17
REMARK    6  A    between atoms: C_16  and  C_19
REMARK                            x       y       z     vdW  Elec       q    Type
REMARK                         _______ _______ _______ _____ _____    ______ ____
ROOT
ATOM      1  N   UNL     1       1.113   8.571  21.467  0.00  0.00    +0.000 N 
ATOM      2  C   UNL     1       0.749   9.782  22.003  0.00  0.00    +0.000 C 
ATOM      3  O   UNL     1       0.232   9.837  23.115  0.00  0.00    +0.000 OA
ATOM      4  N   UNL     1       0.917  10.873  21.210  0.00  0.00    +0.000 N 
ATOM      5  H   UNL     1       0.576   7.836  21.916  0.00  0.00    +0.000 HD
ATOM      6  H   UNL     1       1.217  10.710  20.265  0.00  0.00    +0.000 HD
ENDROOT
BRANCH   1  13
ATOM      7  N   UNL     1       3.350   5.766  18.113  0.00  0.00    +0.000 N 
ATOM      8  C   UNL     1       3.150   4.600  18.839  0.00  0.00    +0.000 C 
ATOM      9  O   UNL     1       3.666   3.514  18.583  0.00  0.00    +0.000 OA
ATOM     10  N   UNL     1       2.289   4.686  19.894  0.00  0.00    +0.000 N 
ATOM     11  C   UNL     1       2.191   5.905  20.638  0.00  0.00    +0.000 C 
ATOM     12  C   UNL     1       2.126   7.102  19.742  0.00  0.00    +0.000 A 
ATOM     13  C   UNL     1       1.557   8.326  20.150  0.00  0.00    +0.000 A 
ATOM     14  C   UNL     1       1.417   9.370  19.234  0.00  0.00    +0.000 A 
ATOM     15  C   UNL     1       1.952   9.249  17.956  0.00  0.00    +0.000 A 
ATOM     16  C   UNL     1       2.615   8.079  17.580  0.00  0.00    +0.000 A 
ATOM     17  C   UNL     1       2.702   6.990  18.462  0.00  0.00    +0.000 A 
ATOM     18  H   UNL     1       2.236   3.811  20.402  0.00  0.00    +0.000 HD
BRANCH   7  20
ATOM     19  C   UNL     1       5.713   6.180  17.570  0.00  0.00    +0.000 C 
ATOM     20  C   UNL     1       4.354   5.725  17.051  0.00  0.00    +0.000 C 
ENDBRANCH   7  20
ENDBRANCH   1  13
BRANCH   4  21
ATOM     21  C   UNL     1       0.386  12.188  21.520  0.00  0.00    +0.000 C 
ATOM     22  C   UNL     1      -1.141  12.236  21.444  0.00  0.00    +0.000 C 
ATOM     23  C   UNL     1      -1.659  12.381  19.999  0.00  0.00    +0.000 C 
ATOM     24  O   UNL     1      -1.115  13.570  19.386  0.00  0.00    +0.000 OA
ATOM     25  C   UNL     1       0.216  13.814  19.585  0.00  0.00    +0.000 A 
ATOM     26  C   UNL     1       0.792  14.757  18.732  0.00  0.00    +0.000 A 
ATOM     27  C   UNL     1       2.147  15.063  18.847  0.00  0.00    +0.000 A 
ATOM     28 CL   UNL     1       2.859  16.215  17.786  0.00  0.00    +0.000 Cl
ATOM     29  C   UNL     1       2.931  14.441  19.813  0.00  0.00    +0.000 A 
ATOM     30  C   UNL     1       2.349  13.517  20.682  0.00  0.00    +0.000 A 
ATOM     31  C   UNL     1       0.985  13.199  20.577  0.00  0.00    +0.000 A 
BRANCH  23  32
ATOM     32  C   UNL     1      -1.392  11.170  19.096  0.00  0.00    +0.000 C 
ATOM     33  F   UNL     1      -1.176  11.585  17.819  0.00  0.00    +0.000 F 
ENDBRANCH  23  32
BRANCH  23  34
ATOM     34  C   UNL     1      -3.186  12.561  20.064  0.00  0.00    +0.000 C 
ATOM     35  F   UNL     1      -3.786  11.773  19.126  0.00  0.00    +0.000 F 
ENDBRANCH  23  34
ENDBRANCH   4  21
TORSDOF 5
ENDMDL
MODEL 5
REMARK VINA RESULT:      -7.2      6.231      9.289
REMARK  Name = 
REMARK  6 active torsions:
REMARK  status: ('A' for Active; 'I' for Inactive)
REMARK    1  A    between atoms: C_1  and  C_2
REMARK    2  A    between atoms: C_2  and  N_3
REMARK    3  A    between atoms: C_9  and  N_10
REMARK    4  A    between atoms: N_13  and  C_14
REMARK    5  A    between atoms: C_16  and  C_17
REMARK    6  A    between atoms: C_16  and  C_19
REMARK                            x       y       z     vdW  Elec       q    Type
REMARK                         _______ _______ _______ _____ _____    ______ ____
ROOT
ATOM      1  N   UNL     1      -1.719  14.994  21.023  0.00  0.00    +0.000 N 
ATOM      2  C   UNL     1      -2.267  13.761  20.766  0.00  0.00    +0.000 C 
ATOM      3  O   UNL     1      -3.444  13.538  21.034  0.00  0.00    +0.000 OA
ATOM      4  N   UNL     1      -1.425  12.807  20.288  0.00  0.00    +0.000 N 
ATOM      5  H   UNL     1      -2.269  15.458  21.738  0.00  0.00    +0.000 HD
ATOM      6  H   UNL     1      -0.450  13.044  20.234  0.00  0.00    +0.000 HD
ENDROOT
BRANCH   1  13
ATOM      7  N   UNL     1       2.088  16.919  18.589  0.00  0.00    +0.000 N 
ATOM      8  C   UNL     1       1.275  17.681  17.760  0.00  0.00    +0.000 C 
ATOM      9  O   UNL     1       1.659  18.289  16.763  0.00  0.00    +0.000 OA
ATOM     10  N   UNL     1      -0.040  17.766  18.117  0.00  0.00    +0.000 N 
ATOM     11  C   UNL     1      -0.677  16.661  18.766  0.00  0.00    +0.000 C 
ATOM     12  C   UNL     1       0.179  16.083  19.851  0.00  0.00    +0.000 A 
ATOM     13  C   UNL     1      -0.357  15.350  20.931  0.00  0.00    +0.000 A 
ATOM     14  C   UNL     1       0.474  14.937  21.973  0.00  0.00    +0.000 A 
ATOM     15  C   UNL     1       1.849  15.135  21.887  0.00  0.00    +0.000 A 
ATOM     16  C   UNL     1       2.398  15.763  20.767  0.00  0.00    +0.000 A 
ATOM     17  C   UNL     1       1.572  16.252  19.741  0.00  0.00    +0.000 A 
ATOM     18  H   UNL     1      -0.575  18.293  17.438  0.00  0.00    +0.000 HD
BRANCH   7  20
ATOM     19  C   UNL     1       3.612  15.439  17.350  0.00  0.00    +0.000 C 
ATOM     20  C   UNL     1       3.472  16.720  18.163  0.00  0.00    +0.000 C 
ENDBRANCH   7  20
ENDBRANCH   1  13
BRANCH   4  21
ATOM     21  C   UNL     1      -1.773  11.403  20.175  0.00  0.00    +0.000 C 
ATOM     22  C   UNL     1      -0.615  10.478  20.552  0.00  0.00    +0.000 C 
ATOM     23  C   UNL     1       0.403  10.305  19.408  0.00  0.00    +0.000 C 
ATOM     24  O   UNL     1      -0.249   9.790  18.227  0.00  0.00    +0.000 OA
ATOM     25  C   UNL     1      -1.453  10.348  17.894  0.00  0.00    +0.000 A 
ATOM     26  C   UNL     1      -1.902  10.088  16.598  0.00  0.00    +0.000 A 
ATOM     27  C   UNL     1      -3.111  10.625  16.160  0.00  0.00    +0.000 A 
ATOM     28 CL   UNL     1      -3.657  10.315  14.558  0.00  0.00    +0.000 Cl
ATOM     29  C   UNL     1      -3.881  11.414  17.009  0.00  0.00    +0.000 A 
ATOM     30  C   UNL     1      -3.444  11.652  18.312  0.00  0.00    +0.000 A 
ATOM     31  C   UNL     1      -2.227  11.118  18.767  0.00  0.00    +0.000 A 
BRANCH  23  32
ATOM     32  C   UNL     1       1.189  11.573  19.049  0.00  0.00    +0.000 C 
ATOM     33  F   UNL     1       1.686  12.144  20.179  0.00  0.00    +0.000 F 
ENDBRANCH  23  32
BRANCH  23  34
ATOM     34  C   UNL     1       1.434   9.252  19.853  0.00  0.00    +0.000 C 
ATOM     35  F   UNL     1       1.587   8.312  18.877  0.00  0.00    +0.000 F 
ENDBRANCH  23  34
ENDBRANCH   4  21
TORSDOF 5
ENDMDL
MODEL 6
REMARK VINA RESULT:      -7.1      7.603      9.422
REMARK  Name = 
REMARK  6 active torsions:
REMARK  status: ('A' for Active; 'I' for Inactive)
REMARK    1  A    between atoms: C_1  and  C_2
REMARK    2  A    between atoms: C_2  and  N_3
REMARK    3  A    between atoms: C_9  and  N_10
REMARK    4  A    between atoms: N_13  and  C_14
REMARK    5  A    between atoms: C_16  and  C_17
REMARK    6  A    between atoms: C_16  and  C_19
REMARK                            x       y       z     vdW  Elec       q    Type
REMARK                         _______ _______ _______ _____ _____    ______ ____
ROOT
ATOM      1  N   UNL     1      -3.937  12.163  18.140  0.00  0.00    +0.000 N 
ATOM      2  C   UNL     1      -2.626  11.757  18.094  0.00  0.00    +0.000 C 
ATOM      3  O   UNL     1      -2.078  11.551  17.015  0.00  0.00    +0.000 OA
ATOM      4  N   UNL     1      -2.018  11.524  19.288  0.00  0.00    +0.000 N 
ATOM      5  H   UNL     1      -4.397  11.895  17.276  0.00  0.00    +0.000 HD
ATOM      6  H   UNL     1      -2.590  11.585  20.112  0.00  0.00    +0.000 HD
ENDROOT
BRANCH   1  13
ATOM      7  N   UNL     1      -4.812  13.875  22.659  0.00  0.00    +0.000 N 
ATOM      8  C   UNL     1      -3.939  14.945  22.510  0.00  0.00    +0.000 C 
ATOM      9  O   UNL     1      -3.574  15.688  23.418  0.00  0.00    +0.000 OA
ATOM     10  N   UNL     1      -3.488  15.183  21.244  0.00  0.00    +0.000 N 
ATOM     11  C   UNL     1      -3.296  14.092  20.337  0.00  0.00    +0.000 C 
ATOM     12  C   UNL     1      -4.443  13.130  20.370  0.00  0.00    +0.000 A 
ATOM     13  C   UNL     1      -4.749  12.276  19.289  0.00  0.00    +0.000 A 
ATOM     14  C   UNL     1      -5.899  11.486  19.328  0.00  0.00    +0.000 A 
ATOM     15  C   UNL     1      -6.674  11.445  20.483  0.00  0.00    +0.000 A 
ATOM     16  C   UNL     1      -6.315  12.206  21.597  0.00  0.00    +0.000 A 
ATOM     17  C   UNL     1      -5.203  13.063  21.553  0.00  0.00    +0.000 A 
ATOM     18  H   UNL     1      -2.819  15.943  21.225  0.00  0.00    +0.000 HD
BRANCH   7  20
ATOM     19  C   UNL     1      -4.288  12.478  24.614  0.00  0.00    +0.000 C 
ATOM     20  C   UNL     1      -5.216  13.532  24.022  0.00  0.00    +0.000 C 
ENDBRANCH   7  20
ENDBRANCH   1  13
BRANCH   4  21
ATOM     21  C   UNL     1      -0.725  10.881  19.425  0.00  0.00    +0.000 C 
ATOM     22  C   UNL     1      -0.662   9.939  20.629  0.00  0.00    +0.000 C 
ATOM     23  C   UNL     1      -0.417  10.686  21.955  0.00  0.00    +0.000 C 
ATOM     24  O   UNL     1       0.807  11.449  21.885  0.00  0.00    +0.000 OA
ATOM     25  C   UNL     1       1.029  12.157  20.735  0.00  0.00    +0.000 A 
ATOM     26  C   UNL     1       2.023  13.134  20.810  0.00  0.00    +0.000 A 
ATOM     27  C   UNL     1       2.312  13.918  19.694  0.00  0.00    +0.000 A 
ATOM     28 CL   UNL     1       3.528  15.131  19.790  0.00  0.00    +0.000 Cl
ATOM     29  C   UNL     1       1.622  13.729  18.501  0.00  0.00    +0.000 A 
ATOM     30  C   UNL     1       0.646  12.735  18.420  0.00  0.00    +0.000 A 
ATOM     31  C   UNL     1       0.344  11.938  19.537  0.00  0.00    +0.000 A 
BRANCH  23  32
ATOM     32  C   UNL     1      -1.567  11.600  22.399  0.00  0.00    +0.000 C 
ATOM     33  F   UNL     1      -1.115  12.500  23.313  0.00  0.00    +0.000 F 
ENDBRANCH  23  32
BRANCH  23  34
ATOM     34  C   UNL     1      -0.233   9.632  23.061  0.00  0.00    +0.000 C 
ATOM     35  F   UNL     1      -0.796   8.452  22.675  0.00  0.00    +0.000 F 
ENDBRANCH  23  34
ENDBRANCH   4  21
TORSDOF 5
ENDMDL
MODEL 7
REMARK VINA RESULT:      -7.0      5.417     10.387
REMARK  Name = 
REMARK  6 active torsions:
REMARK  status: ('A' for Active; 'I' for Inactive)
REMARK    1  A    between atoms: C_1  and  C_2
REMARK    2  A    between atoms: C_2  and  N_3
REMARK    3  A    between atoms: C_9  and  N_10
REMARK    4  A    between atoms: N_13  and  C_14
REMARK    5  A    between atoms: C_16  and  C_17
REMARK    6  A    between atoms: C_16  and  C_19
REMARK                            x       y       z     vdW  Elec       q    Type
REMARK                         _______ _______ _______ _____ _____    ______ ____
ROOT
ATOM      1  N   UNL     1       0.080  10.913  18.372  0.00  0.00    +0.000 N 
ATOM      2  C   UNL     1      -0.780  11.972  18.528  0.00  0.00    +0.000 C 
ATOM      3  O   UNL     1      -0.970  12.757  17.603  0.00  0.00    +0.000 OA
ATOM      4  N   UNL     1      -1.326  12.136  19.762  0.00  0.00    +0.000 N 
ATOM      5  H   UNL     1       0.728  11.121  17.620  0.00  0.00    +0.000 HD
ATOM      6  H   UNL     1      -1.002  11.526  20.490  0.00  0.00    +0.000 HD
ENDROOT
BRANCH   1  13
ATOM      7  N   UNL     1       2.367   6.815  19.821  0.00  0.00    +0.000 N 
ATOM      8  C   UNL     1       3.114   6.724  18.654  0.00  0.00    +0.000 C 
ATOM      9  O   UNL     1       3.794   5.754  18.327  0.00  0.00    +0.000 OA
ATOM     10  N   UNL     1       3.095   7.819  17.839  0.00  0.00    +0.000 N 
ATOM     11  C   UNL     1       1.920   8.633  17.763  0.00  0.00    +0.000 C 
ATOM     12  C   UNL     1       1.347   8.912  19.117  0.00  0.00    +0.000 A 
ATOM     13  C   UNL     1       0.529  10.031  19.379  0.00  0.00    +0.000 A 
ATOM     14  C   UNL     1       0.120  10.306  20.685  0.00  0.00    +0.000 A 
ATOM     15  C   UNL     1       0.412   9.409  21.708  0.00  0.00    +0.000 A 
ATOM     16  C   UNL     1       1.128   8.242  21.434  0.00  0.00    +0.000 A 
ATOM     17  C   UNL     1       1.612   7.983  20.141  0.00  0.00    +0.000 A 
ATOM     18  H   UNL     1       3.619   7.656  16.987  0.00  0.00    +0.000 HD
BRANCH   7  20
ATOM     19  C   UNL     1       1.131   4.723  20.198  0.00  0.00    +0.000 C 
ATOM     20  C   UNL     1       2.281   5.615  20.650  0.00  0.00    +0.000 C 
ENDBRANCH   7  20
ENDBRANCH   1  13
BRANCH   4  21
ATOM     21  C   UNL     1      -2.070  13.315  20.166  0.00  0.00    +0.000 C 
ATOM     22  C   UNL     1      -1.443  14.020  21.370  0.00  0.00    +0.000 C 
ATOM     23  C   UNL     1      -1.806  13.348  22.708  0.00  0.00    +0.000 C 
ATOM     24  O   UNL     1      -3.240  13.304  22.878  0.00  0.00    +0.000 OA
ATOM     25  C   UNL     1      -3.979  12.935  21.787  0.00  0.00    +0.000 A 
ATOM     26  C   UNL     1      -5.304  12.577  22.049  0.00  0.00    +0.000 A 
ATOM     27  C   UNL     1      -6.133  12.172  21.005  0.00  0.00    +0.000 A 
ATOM     28 CL   UNL     1      -7.760  11.718  21.329  0.00  0.00    +0.000 Cl
ATOM     29  C   UNL     1      -5.654  12.129  19.699  0.00  0.00    +0.000 A 
ATOM     30  C   UNL     1      -4.339  12.511  19.436  0.00  0.00    +0.000 A 
ATOM     31  C   UNL     1      -3.491  12.921  20.478  0.00  0.00    +0.000 A 
BRANCH  23  32
ATOM     32  C   UNL     1      -1.224  11.941  22.899  0.00  0.00    +0.000 C 
ATOM     33  F   UNL     1      -2.136  11.143  23.517  0.00  0.00    +0.000 F 
ENDBRANCH  23  32
BRANCH  23  34
ATOM     34  C   UNL     1      -1.241  14.221  23.842  0.00  0.00    +0.000 C 
ATOM     35  F   UNL     1      -2.124  15.214  24.146  0.00  0.00    +0.000 F 
ENDBRANCH  23  34
ENDBRANCH   4  21
TORSDOF 5
ENDMDL
MODEL 8
REMARK VINA RESULT:      -7.0      6.924      9.584
REMARK  Name = 
REMARK  6 active torsions:
REMARK  status: ('A' for Active; 'I' for Inactive)
REMARK    1  A    between atoms: C_1  and  C_2
REMARK    2  A    between atoms: C_2  and  N_3
REMARK    3  A    between atoms: C_9  and  N_10
REMARK    4  A    between atoms: N_13  and  C_14
REMARK    5  A    between atoms: C_16  and  C_17
REMARK    6  A    between atoms: C_16  and  C_19
REMARK                            x       y       z     vdW  Elec       q    Type
REMARK                         _______ _______ _______ _____ _____    ______ ____
ROOT
ATOM      1  N   UNL     1      -1.772  15.665  21.040  0.00  0.00    +0.000 N 
ATOM      2  C   UNL     1      -2.375  14.436  20.930  0.00  0.00    +0.000 C 
ATOM      3  O   UNL     1      -3.579  14.316  21.133  0.00  0.00    +0.000 OA
ATOM      4  N   UNL     1      -1.559  13.379  20.672  0.00  0.00    +0.000 N 
ATOM      5  H   UNL     1      -2.343  16.262  21.629  0.00  0.00    +0.000 HD
ATOM      6  H   UNL     1      -0.571  13.556  20.661  0.00  0.00    +0.000 HD
ENDROOT
BRANCH   1  13
ATOM      7  N   UNL     1       2.324  16.927  18.641  0.00  0.00    +0.000 N 
ATOM      8  C   UNL     1       1.627  17.557  17.619  0.00  0.00    +0.000 C 
ATOM      9  O   UNL     1       2.123  17.950  16.566  0.00  0.00    +0.000 OA
ATOM     10  N   UNL     1       0.296  17.766  17.837  0.00  0.00    +0.000 N 
ATOM     11  C   UNL     1      -0.456  16.832  18.618  0.00  0.00    +0.000 C 
ATOM     12  C   UNL     1       0.275  16.428  19.861  0.00  0.00    +0.000 A 
ATOM     13  C   UNL     1      -0.388  15.935  21.005  0.00  0.00    +0.000 A 
ATOM     14  C   UNL     1       0.333  15.686  22.174  0.00  0.00    +0.000 A 
ATOM     15  C   UNL     1       1.719  15.802  22.174  0.00  0.00    +0.000 A 
ATOM     16  C   UNL     1       2.392  16.184  21.012  0.00  0.00    +0.000 A 
ATOM     17  C   UNL     1       1.680  16.510  19.845  0.00  0.00    +0.000 A 
ATOM     18  H   UNL     1      -0.152  18.182  17.029  0.00  0.00    +0.000 HD
BRANCH   7  20
ATOM     19  C   UNL     1       3.838  15.216  17.732  0.00  0.00    +0.000 C 
ATOM     20  C   UNL     1       3.722  16.589  18.382  0.00  0.00    +0.000 C 
ENDBRANCH   7  20
ENDBRANCH   1  13
BRANCH   4  21
ATOM     21  C   UNL     1      -1.984  11.993  20.746  0.00  0.00    +0.000 C 
ATOM     22  C   UNL     1      -1.000  11.118  21.525  0.00  0.00    +0.000 C 
ATOM     23  C   UNL     1       0.213  10.688  20.677  0.00  0.00    +0.000 C 
ATOM     24  O   UNL     1      -0.223   9.977  19.498  0.00  0.00    +0.000 OA
ATOM     25  C   UNL     1      -1.289  10.503  18.819  0.00  0.00    +0.000 A 
ATOM     26  C   UNL     1      -1.483  10.010  17.527  0.00  0.00    +0.000 A 
ATOM     27  C   UNL     1      -2.533  10.496  16.750  0.00  0.00    +0.000 A 
ATOM     28 CL   UNL     1      -2.764   9.899  15.153  0.00  0.00    +0.000 Cl
ATOM     29  C   UNL     1      -3.398  11.462  17.255  0.00  0.00    +0.000 A 
ATOM     30  C   UNL     1      -3.217  11.934  18.555  0.00  0.00    +0.000 A 
ATOM     31  C   UNL     1      -2.163  11.455  19.350  0.00  0.00    +0.000 A 
BRANCH  23  32
ATOM     32  C   UNL     1       1.150  11.833  20.269  0.00  0.00    +0.000 C 
ATOM     33  F   UNL     1       1.761  11.532  19.092  0.00  0.00    +0.000 F 
ENDBRANCH  23  32
BRANCH  23  34
ATOM     34  C   UNL     1       1.049   9.706  21.517  0.00  0.00    +0.000 C 
ATOM     35  F   UNL     1       0.246   9.059  22.409  0.00  0.00    +0.000 F 
ENDBRANCH  23  34
ENDBRANCH   4  21
TORSDOF 5
ENDMDL
MODEL 9
REMARK VINA RESULT:      -7.0      6.545      9.163
REMARK  Name = 
REMARK  6 active torsions:
REMARK  status: ('A' for Active; 'I' for Inactive)
REMARK    1  A    between atoms: C_1  and  C_2
REMARK    2  A    between atoms: C_2  and  N_3
REMARK    3  A    between atoms: C_9  and  N_10
REMARK    4  A    between atoms: N_13  and  C_14
REMARK    5  A    between atoms: C_16  and  C_17
REMARK    6  A    between atoms: C_16  and  C_19
REMARK                            x       y       z     vdW  Elec       q    Type
REMARK                         _______ _______ _______ _____ _____    ______ ____
ROOT
ATOM      1  N   UNL     1      -1.610  15.464  20.679  0.00  0.00    +0.000 N 
ATOM      2  C   UNL     1      -2.212  14.231  20.726  0.00  0.00    +0.000 C 
ATOM      3  O   UNL     1      -3.075  13.994  21.566  0.00  0.00    +0.000 OA
ATOM      4  N   UNL     1      -1.746  13.292  19.860  0.00  0.00    +0.000 N 
ATOM      5  H   UNL     1      -1.704  15.912  21.585  0.00  0.00    +0.000 HD
ATOM      6  H   UNL     1      -0.944  13.538  19.307  0.00  0.00    +0.000 HD
ENDROOT
BRANCH   1  13
ATOM      7  N   UNL     1       3.233  15.826  19.948  0.00  0.00    +0.000 N 
ATOM      8  C   UNL     1       3.526  14.815  20.854  0.00  0.00    +0.000 C 
ATOM      9  O   UNL     1       4.652  14.538  21.261  0.00  0.00    +0.000 OA
ATOM     10  N   UNL     1       2.468  14.069  21.289  0.00  0.00    +0.000 N 
ATOM     11  C   UNL     1       1.178  14.673  21.427  0.00  0.00    +0.000 C 
ATOM     12  C   UNL     1       0.834  15.530  20.248  0.00  0.00    +0.000 A 
ATOM     13  C   UNL     1      -0.497  15.834  19.894  0.00  0.00    +0.000 A 
ATOM     14  C   UNL     1      -0.762  16.539  18.718  0.00  0.00    +0.000 A 
ATOM     15  C   UNL     1       0.288  17.051  17.964  0.00  0.00    +0.000 A 
ATOM     16  C   UNL     1       1.609  16.848  18.369  0.00  0.00    +0.000 A 
ATOM     17  C   UNL     1       1.899  16.079  19.509  0.00  0.00    +0.000 A 
ATOM     18  H   UNL     1       2.754  13.389  21.983  0.00  0.00    +0.000 HD
BRANCH   7  20
ATOM     19  C   UNL     1       5.130  16.107  18.409  0.00  0.00    +0.000 C 
ATOM     20  C   UNL     1       4.331  16.708  19.559  0.00  0.00    +0.000 C 
ENDBRANCH   7  20
ENDBRANCH   1  13
BRANCH   4  21
ATOM     21  C   UNL     1      -2.103  11.887  19.921  0.00  0.00    +0.000 C 
ATOM     22  C   UNL     1      -0.966  11.015  20.456  0.00  0.00    +0.000 C 
ATOM     23  C   UNL     1       0.087  10.687  19.380  0.00  0.00    +0.000 C 
ATOM     24  O   UNL     1      -0.531  10.024  18.255  0.00  0.00    +0.000 OA
ATOM     25  C   UNL     1      -1.718  10.539  17.811  0.00  0.00    +0.000 A 
ATOM     26  C   UNL     1      -2.126  10.111  16.546  0.00  0.00    +0.000 A 
ATOM     27  C   UNL     1      -3.315  10.592  16.000  0.00  0.00    +0.000 A 
ATOM     28 CL   UNL     1      -3.810  10.076  14.436  0.00  0.00    +0.000 Cl
ATOM     29  C   UNL     1      -4.106  11.490  16.711  0.00  0.00    +0.000 A 
ATOM     30  C   UNL     1      -3.710  11.896  17.986  0.00  0.00    +0.000 A 
ATOM     31  C   UNL     1      -2.513  11.421  18.548  0.00  0.00    +0.000 A 
BRANCH  23  32
ATOM     32  C   UNL     1       0.896  11.892  18.884  0.00  0.00    +0.000 C 
ATOM     33  F   UNL     1       1.958  11.466  18.149  0.00  0.00    +0.000 F 
ENDBRANCH  23  32
BRANCH  23  34
ATOM     34  C   UNL     1       1.093   9.697  19.994  0.00  0.00    +0.000 C 
ATOM     35  F   UNL     1       1.421   8.742  19.078  0.00  0.00    +0.000 F 
ENDBRANCH  23  34
ENDBRANCH   4  21
TORSDOF 5
ENDMDL
