MODEL 1
REMARK VINA RESULT:      -8.9      0.000      0.000
REMARK  Name = 
REMARK  7 active torsions:
REMARK  status: ('A' for Active; 'I' for Inactive)
REMARK    1  A    between atoms: C_2  and  C_13
REMARK    2  A    between atoms: N_3  and  C_4
REMARK    3  A    between atoms: C_9  and  C_10
REMARK    4  A    between atoms: C_10  and  O_12
REMARK    5  A    between atoms: C_15  and  S_16
REMARK    6  A    between atoms: S_16  and  N_19
REMARK    7  A    between atoms: N_19  and  C_20
REMARK                            x       y       z     vdW  Elec       q    Type
REMARK                         _______ _______ _______ _____ _____    ______ ____
ROOT
ATOM      1  C   UNL     1       2.947   5.590  18.977  0.00  0.00    +0.000 A 
ATOM      2  C   UNL     1       3.936   6.249  18.219  0.00  0.00    +0.000 A 
ATOM      3  C   UNL     1       4.721   5.526  17.312  0.00  0.00    +0.000 A 
ATOM      4  C   UNL     1       4.517   4.156  17.138  0.00  0.00    +0.000 A 
ATOM      5  C   UNL     1       3.531   3.503  17.887  0.00  0.00    +0.000 A 
ATOM      6  C   UNL     1       2.741   4.215  18.798  0.00  0.00    +0.000 A 
ATOM      7 CL   UNL     1       1.494   3.331  19.600  0.00  0.00    +0.000 Cl
ENDROOT
BRANCH   1   9
ATOM      8  O   UNL     1       1.558   5.903  20.833  0.00  0.00    +0.000 OA
ATOM      9  C   UNL     1       2.115   6.435  19.877  0.00  0.00    +0.000 C 
ATOM     10  N   UNL     1       1.898   7.749  19.494  0.00  0.00    +0.000 N 
ATOM     11  H   UNL     1       2.141   8.030  18.546  0.00  0.00    +0.000 HD
BRANCH  10  12
ATOM     12  C   UNL     1       1.226   8.701  20.304  0.00  0.00    +0.000 A 
ATOM     13  C   UNL     1       1.289   8.601  21.699  0.00  0.00    +0.000 A 
ATOM     14  C   UNL     1       0.674   9.558  22.511  0.00  0.00    +0.000 A 
ATOM     15  C   UNL     1      -0.028  10.615  21.938  0.00  0.00    +0.000 A 
ATOM     16  C   UNL     1      -0.100  10.729  20.550  0.00  0.00    +0.000 A 
ATOM     17  C   UNL     1       0.531   9.780  19.730  0.00  0.00    +0.000 A 
BRANCH  17  18
ATOM     18  C   UNL     1       0.346   9.932  18.266  0.00  0.00    +0.000 C 
ATOM     19  O   UNL     1      -0.744   9.955  17.723  0.00  0.00    +0.000 OA
BRANCH  18  20
ATOM     20  O   UNL     1       1.514   9.999  17.586  0.00  0.00    +0.000 OA
ATOM     21  H   UNL     1       2.255  10.328  18.137  0.00  0.00    +0.000 HD
ENDBRANCH  18  20
ENDBRANCH  17  18
ENDBRANCH  10  12
ENDBRANCH   1   9
BRANCH   3  22
ATOM     22  S   UNL     1       5.909   6.378  16.282  0.00  0.00    +0.000 S 
ATOM     23  O   UNL     1       5.193   6.919  15.147  0.00  0.00    +0.000 OA
ATOM     24  O   UNL     1       6.694   7.227  17.155  0.00  0.00    +0.000 OA
BRANCH  22  25
ATOM     25  N   UNL     1       6.935   5.155  15.769  0.00  0.00    +0.000 N 
ATOM     26  H   UNL     1       7.298   4.535  16.488  0.00  0.00    +0.000 HD
BRANCH  25  27
ATOM     27  C   UNL     1       6.946   4.755  14.413  0.00  0.00    +0.000 A 
ATOM     28  C   UNL     1       7.810   5.386  13.518  0.00  0.00    +0.000 A 
ATOM     29  C   UNL     1       7.799   5.021  12.171  0.00  0.00    +0.000 A 
ATOM     30  C   UNL     1       6.916   4.038  11.723  0.00  0.00    +0.000 A 
ATOM     31  C   UNL     1       6.059   3.404  12.624  0.00  0.00    +0.000 A 
ATOM     32  C   UNL     1       6.085   3.750  13.975  0.00  0.00    +0.000 A 
ENDBRANCH  25  27
ENDBRANCH  22  25
ENDBRANCH   3  22
TORSDOF 7
ENDMDL
MODEL 2
REMARK VINA RESULT:      -8.9      0.715      1.264
REMARK  Name = 
REMARK  7 active torsions:
REMARK  status: ('A' for Active; 'I' for Inactive)
REMARK    1  A    between atoms: C_2  and  C_13
REMARK    2  A    between atoms: N_3  and  C_4
REMARK    3  A    between atoms: C_9  and  C_10
REMARK    4  A    between atoms: C_10  and  O_12
REMARK    5  A    between atoms: C_15  and  S_16
REMARK    6  A    between atoms: S_16  and  N_19
REMARK    7  A    between atoms: N_19  and  C_20
REMARK                            x       y       z     vdW  Elec       q    Type
REMARK                         _______ _______ _______ _____ _____    ______ ____
ROOT
ATOM      1  C   UNL     1       3.254   5.552  19.559  0.00  0.00    +0.000 A 
ATOM      2  C   UNL     1       4.060   6.169  18.581  0.00  0.00    +0.000 A 
ATOM      3  C   UNL     1       5.091   5.448  17.965  0.00  0.00    +0.000 A 
ATOM      4  C   UNL     1       5.314   4.112  18.301  0.00  0.00    +0.000 A 
ATOM      5  C   UNL     1       4.510   3.497  19.269  0.00  0.00    +0.000 A 
ATOM      6  C   UNL     1       3.478   4.209  19.892  0.00  0.00    +0.000 A 
ATOM      7 CL   UNL     1       2.489   3.331  21.001  0.00  0.00    +0.000 Cl
ENDROOT
BRANCH   1   9
ATOM      8  O   UNL     1       1.145   5.785  20.543  0.00  0.00    +0.000 OA
ATOM      9  C   UNL     1       2.143   6.366  20.126  0.00  0.00    +0.000 C 
ATOM     10  N   UNL     1       2.241   7.743  20.010  0.00  0.00    +0.000 N 
ATOM     11  H   UNL     1       2.947   8.134  19.390  0.00  0.00    +0.000 HD
BRANCH  10  12
ATOM     12  C   UNL     1       1.321   8.647  20.602  0.00  0.00    +0.000 A 
ATOM     13  C   UNL     1       1.116   8.629  21.987  0.00  0.00    +0.000 A 
ATOM     14  C   UNL     1       0.250   9.545  22.592  0.00  0.00    +0.000 A 
ATOM     15  C   UNL     1      -0.437  10.476  21.817  0.00  0.00    +0.000 A 
ATOM     16  C   UNL     1      -0.244  10.505  20.436  0.00  0.00    +0.000 A 
ATOM     17  C   UNL     1       0.638   9.599  19.826  0.00  0.00    +0.000 A 
BRANCH  17  18
ATOM     18  C   UNL     1       0.732   9.650  18.346  0.00  0.00    +0.000 C 
ATOM     19  O   UNL     1       1.600   9.084  17.706  0.00  0.00    +0.000 OA
BRANCH  18  20
ATOM     20  O   UNL     1      -0.220  10.427  17.778  0.00  0.00    +0.000 OA
ATOM     21  H   UNL     1       0.037  10.753  16.890  0.00  0.00    +0.000 HD
ENDBRANCH  18  20
ENDBRANCH  17  18
ENDBRANCH  10  12
ENDBRANCH   1   9
BRANCH   3  22
ATOM     22  S   UNL     1       6.050   6.201  16.658  0.00  0.00    +0.000 S 
ATOM     23  O   UNL     1       5.119   6.717  15.677  0.00  0.00    +0.000 OA
ATOM     24  O   UNL     1       7.031   7.057  17.292  0.00  0.00    +0.000 OA
BRANCH  22  25
ATOM     25  N   UNL     1       6.902   4.914  16.002  0.00  0.00    +0.000 N 
ATOM     26  H   UNL     1       7.166   4.170  16.643  0.00  0.00    +0.000 HD
BRANCH  25  27
ATOM     27  C   UNL     1       6.873   4.675  14.609  0.00  0.00    +0.000 A 
ATOM     28  C   UNL     1       5.999   3.718  14.094  0.00  0.00    +0.000 A 
ATOM     29  C   UNL     1       5.992   3.452  12.724  0.00  0.00    +0.000 A 
ATOM     30  C   UNL     1       6.868   4.133  11.878  0.00  0.00    +0.000 A 
ATOM     31  C   UNL     1       7.734   5.096  12.397  0.00  0.00    +0.000 A 
ATOM     32  C   UNL     1       7.726   5.380  13.762  0.00  0.00    +0.000 A 
ENDBRANCH  25  27
ENDBRANCH  22  25
ENDBRANCH   3  22
TORSDOF 7
ENDMDL
MODEL 3
REMARK VINA RESULT:      -8.7      0.896      1.035
REMARK  Name = 
REMARK  7 active torsions:
REMARK  status: ('A' for Active; 'I' for Inactive)
REMARK    1  A    between atoms: C_2  and  C_13
REMARK    2  A    between atoms: N_3  and  C_4
REMARK    3  A    between atoms: C_9  and  C_10
REMARK    4  A    between atoms: C_10  and  O_12
REMARK    5  A    between atoms: C_15  and  S_16
REMARK    6  A    between atoms: S_16  and  N_19
REMARK    7  A    between atoms: N_19  and  C_20
REMARK                            x       y       z     vdW  Elec       q    Type
REMARK                         _______ _______ _______ _____ _____    ______ ____
ROOT
ATOM      1  C   UNL     1       3.123   5.182  19.002  0.00  0.00    +0.000 A 
ATOM      2  C   UNL     1       4.369   5.667  18.558  0.00  0.00    +0.000 A 
ATOM      3  C   UNL     1       5.167   4.881  17.717  0.00  0.00    +0.000 A 
ATOM      4  C   UNL     1       4.726   3.624  17.300  0.00  0.00    +0.000 A 
ATOM      5  C   UNL     1       3.485   3.145  17.737  0.00  0.00    +0.000 A 
ATOM      6  C   UNL     1       2.680   3.922  18.579  0.00  0.00    +0.000 A 
ATOM      7 CL   UNL     1       1.131   3.276  18.984  0.00  0.00    +0.000 Cl
ENDROOT
BRANCH   1   9
ATOM      8  O   UNL     1       1.684   5.626  20.793  0.00  0.00    +0.000 OA
ATOM      9  C   UNL     1       2.307   6.099  19.846  0.00  0.00    +0.000 C 
ATOM     10  N   UNL     1       2.181   7.411  19.420  0.00  0.00    +0.000 N 
ATOM     11  H   UNL     1       2.475   7.650  18.476  0.00  0.00    +0.000 HD
BRANCH  10  12
ATOM     12  C   UNL     1       1.534   8.423  20.177  0.00  0.00    +0.000 A 
ATOM     13  C   UNL     1       1.554   8.370  21.576  0.00  0.00    +0.000 A 
ATOM     14  C   UNL     1       0.965   9.383  22.336  0.00  0.00    +0.000 A 
ATOM     15  C   UNL     1       0.331  10.452  21.708  0.00  0.00    +0.000 A 
ATOM     16  C   UNL     1       0.301  10.519  20.315  0.00  0.00    +0.000 A 
ATOM     17  C   UNL     1       0.908   9.512  19.546  0.00  0.00    +0.000 A 
BRANCH  17  18
ATOM     18  C   UNL     1       0.770   9.620  18.073  0.00  0.00    +0.000 C 
ATOM     19  O   UNL     1      -0.302   9.641  17.496  0.00  0.00    +0.000 OA
BRANCH  18  20
ATOM     20  O   UNL     1       1.960   9.649  17.428  0.00  0.00    +0.000 OA
ATOM     21  H   UNL     1       2.645  10.150  17.919  0.00  0.00    +0.000 HD
ENDBRANCH  18  20
ENDBRANCH  17  18
ENDBRANCH  10  12
ENDBRANCH   1   9
BRANCH   3  22
ATOM     22  S   UNL     1       6.704   5.534  17.077  0.00  0.00    +0.000 S 
ATOM     23  O   UNL     1       7.080   6.656  17.910  0.00  0.00    +0.000 OA
ATOM     24  O   UNL     1       7.592   4.407  16.878  0.00  0.00    +0.000 OA
BRANCH  22  25
ATOM     25  N   UNL     1       6.291   6.083  15.547  0.00  0.00    +0.000 N 
ATOM     26  H   UNL     1       6.229   7.091  15.427  0.00  0.00    +0.000 HD
BRANCH  25  27
ATOM     27  C   UNL     1       6.443   5.240  14.422  0.00  0.00    +0.000 A 
ATOM     28  C   UNL     1       7.559   5.389  13.599  0.00  0.00    +0.000 A 
ATOM     29  C   UNL     1       7.696   4.585  12.466  0.00  0.00    +0.000 A 
ATOM     30  C   UNL     1       6.712   3.647  12.154  0.00  0.00    +0.000 A 
ATOM     31  C   UNL     1       5.601   3.496  12.986  0.00  0.00    +0.000 A 
ATOM     32  C   UNL     1       5.474   4.282  14.131  0.00  0.00    +0.000 A 
ENDBRANCH  25  27
ENDBRANCH  22  25
ENDBRANCH   3  22
TORSDOF 7
ENDMDL
MODEL 4
REMARK VINA RESULT:      -8.5      1.006      1.125
REMARK  Name = 
REMARK  7 active torsions:
REMARK  status: ('A' for Active; 'I' for Inactive)
REMARK    1  A    between atoms: C_2  and  C_13
REMARK    2  A    between atoms: N_3  and  C_4
REMARK    3  A    between atoms: C_9  and  C_10
REMARK    4  A    between atoms: C_10  and  O_12
REMARK    5  A    between atoms: C_15  and  S_16
REMARK    6  A    between atoms: S_16  and  N_19
REMARK    7  A    between atoms: N_19  and  C_20
REMARK                            x       y       z     vdW  Elec       q    Type
REMARK                         _______ _______ _______ _____ _____    ______ ____
ROOT
ATOM      1  C   UNL     1       3.023   5.307  19.774  0.00  0.00    +0.000 A 
ATOM      2  C   UNL     1       3.802   5.774  18.697  0.00  0.00    +0.000 A 
ATOM      3  C   UNL     1       4.783   4.949  18.132  0.00  0.00    +0.000 A 
ATOM      4  C   UNL     1       4.980   3.655  18.617  0.00  0.00    +0.000 A 
ATOM      5  C   UNL     1       4.202   3.189  19.685  0.00  0.00    +0.000 A 
ATOM      6  C   UNL     1       3.221   4.007  20.258  0.00  0.00    +0.000 A 
ATOM      7 CL   UNL     1       2.257   3.302  21.505  0.00  0.00    +0.000 Cl
ENDROOT
BRANCH   1   9
ATOM      8  O   UNL     1       0.915   5.732  20.695  0.00  0.00    +0.000 OA
ATOM      9  C   UNL     1       1.963   6.221  20.283  0.00  0.00    +0.000 C 
ATOM     10  N   UNL     1       2.165   7.582  20.120  0.00  0.00    +0.000 N 
ATOM     11  H   UNL     1       2.913   7.896  19.505  0.00  0.00    +0.000 HD
BRANCH  10  12
ATOM     12  C   UNL     1       1.302   8.573  20.656  0.00  0.00    +0.000 A 
ATOM     13  C   UNL     1       1.037   8.601  22.031  0.00  0.00    +0.000 A 
ATOM     14  C   UNL     1       0.229   9.599  22.581  0.00  0.00    +0.000 A 
ATOM     15  C   UNL     1      -0.342  10.569  21.761  0.00  0.00    +0.000 A 
ATOM     16  C   UNL     1      -0.088  10.555  20.390  0.00  0.00    +0.000 A 
ATOM     17  C   UNL     1       0.738   9.564  19.834  0.00  0.00    +0.000 A 
BRANCH  17  18
ATOM     18  C   UNL     1       0.899   9.577  18.359  0.00  0.00    +0.000 C 
ATOM     19  O   UNL     1       1.667   8.846  17.760  0.00  0.00    +0.000 OA
BRANCH  18  20
ATOM     20  O   UNL     1       0.139  10.515  17.748  0.00  0.00    +0.000 OA
ATOM     21  H   UNL     1      -0.009  11.307  18.308  0.00  0.00    +0.000 HD
ENDBRANCH  18  20
ENDBRANCH  17  18
ENDBRANCH  10  12
ENDBRANCH   1   9
BRANCH   3  22
ATOM     22  S   UNL     1       5.704   5.505  16.704  0.00  0.00    +0.000 S 
ATOM     23  O   UNL     1       4.915   6.525  16.047  0.00  0.00    +0.000 OA
ATOM     24  O   UNL     1       7.058   5.766  17.150  0.00  0.00    +0.000 OA
BRANCH  22  25
ATOM     25  N   UNL     1       5.784   4.142  15.731  0.00  0.00    +0.000 N 
ATOM     26  H   UNL     1       5.177   3.367  15.984  0.00  0.00    +0.000 HD
BRANCH  25  27
ATOM     27  C   UNL     1       6.321   4.228  14.426  0.00  0.00    +0.000 A 
ATOM     28  C   UNL     1       7.361   5.121  14.169  0.00  0.00    +0.000 A 
ATOM     29  C   UNL     1       7.871   5.237  12.875  0.00  0.00    +0.000 A 
ATOM     30  C   UNL     1       7.331   4.471  11.842  0.00  0.00    +0.000 A 
ATOM     31  C   UNL     1       6.296   3.573  12.106  0.00  0.00    +0.000 A 
ATOM     32  C   UNL     1       5.801   3.438  13.403  0.00  0.00    +0.000 A 
ENDBRANCH  25  27
ENDBRANCH  22  25
ENDBRANCH   3  22
TORSDOF 7
ENDMDL
MODEL 5
REMARK VINA RESULT:      -8.5      1.124      1.627
REMARK  Name = 
REMARK  7 active torsions:
REMARK  status: ('A' for Active; 'I' for Inactive)
REMARK    1  A    between atoms: C_2  and  C_13
REMARK    2  A    between atoms: N_3  and  C_4
REMARK    3  A    between atoms: C_9  and  C_10
REMARK    4  A    between atoms: C_10  and  O_12
REMARK    5  A    between atoms: C_15  and  S_16
REMARK    6  A    between atoms: S_16  and  N_19
REMARK    7  A    between atoms: N_19  and  C_20
REMARK                            x       y       z     vdW  Elec       q    Type
REMARK                         _______ _______ _______ _____ _____    ______ ____
ROOT
ATOM      1  C   UNL     1       3.289   5.061  19.426  0.00  0.00    +0.000 A 
ATOM      2  C   UNL     1       4.443   5.635  18.857  0.00  0.00    +0.000 A 
ATOM      3  C   UNL     1       5.392   4.821  18.225  0.00  0.00    +0.000 A 
ATOM      4  C   UNL     1       5.192   3.442  18.138  0.00  0.00    +0.000 A 
ATOM      5  C   UNL     1       4.042   2.872  18.699  0.00  0.00    +0.000 A 
ATOM      6  C   UNL     1       3.088   3.677  19.334  0.00  0.00    +0.000 A 
ATOM      7 CL   UNL     1       1.665   2.885  19.909  0.00  0.00    +0.000 Cl
ENDROOT
BRANCH   1   9
ATOM      8  O   UNL     1       1.341   5.527  20.635  0.00  0.00    +0.000 OA
ATOM      9  C   UNL     1       2.300   5.997  20.029  0.00  0.00    +0.000 C 
ATOM     10  N   UNL     1       2.442   7.344  19.739  0.00  0.00    +0.000 N 
ATOM     11  H   UNL     1       3.076   7.621  18.993  0.00  0.00    +0.000 HD
BRANCH  10  12
ATOM     12  C   UNL     1       1.649   8.361  20.331  0.00  0.00    +0.000 A 
ATOM     13  C   UNL     1       1.469   8.388  21.720  0.00  0.00    +0.000 A 
ATOM     14  C   UNL     1       0.733   9.411  22.324  0.00  0.00    +0.000 A 
ATOM     15  C   UNL     1       0.149  10.407  21.545  0.00  0.00    +0.000 A 
ATOM     16  C   UNL     1       0.319  10.394  20.161  0.00  0.00    +0.000 A 
ATOM     17  C   UNL     1       1.073   9.379  19.551  0.00  0.00    +0.000 A 
BRANCH  17  18
ATOM     18  C   UNL     1       1.146   9.397  18.069  0.00  0.00    +0.000 C 
ATOM     19  O   UNL     1       2.149   9.113  17.440  0.00  0.00    +0.000 OA
BRANCH  18  20
ATOM     20  O   UNL     1      -0.005   9.806  17.485  0.00  0.00    +0.000 OA
ATOM     21  H   UNL     1      -0.172   9.364  16.626  0.00  0.00    +0.000 HD
ENDBRANCH  18  20
ENDBRANCH  17  18
ENDBRANCH  10  12
ENDBRANCH   1   9
BRANCH   3  22
ATOM     22  S   UNL     1       6.808   5.558  17.420  0.00  0.00    +0.000 S 
ATOM     23  O   UNL     1       7.227   6.686  18.224  0.00  0.00    +0.000 OA
ATOM     24  O   UNL     1       7.720   4.480  17.096  0.00  0.00    +0.000 OA
BRANCH  22  25
ATOM     25  N   UNL     1       6.190   6.107  15.961  0.00  0.00    +0.000 N 
ATOM     26  H   UNL     1       6.013   7.106  15.889  0.00  0.00    +0.000 HD
BRANCH  25  27
ATOM     27  C   UNL     1       6.315   5.321  14.792  0.00  0.00    +0.000 A 
ATOM     28  C   UNL     1       5.338   4.371  14.496  0.00  0.00    +0.000 A 
ATOM     29  C   UNL     1       5.474   3.566  13.364  0.00  0.00    +0.000 A 
ATOM     30  C   UNL     1       6.593   3.705  12.542  0.00  0.00    +0.000 A 
ATOM     31  C   UNL     1       7.564   4.663  12.838  0.00  0.00    +0.000 A 
ATOM     32  C   UNL     1       7.417   5.484  13.955  0.00  0.00    +0.000 A 
ENDBRANCH  25  27
ENDBRANCH  22  25
ENDBRANCH   3  22
TORSDOF 7
ENDMDL
MODEL 6
REMARK VINA RESULT:      -8.4      1.603      2.430
REMARK  Name = 
REMARK  7 active torsions:
REMARK  status: ('A' for Active; 'I' for Inactive)
REMARK    1  A    between atoms: C_2  and  C_13
REMARK    2  A    between atoms: N_3  and  C_4
REMARK    3  A    between atoms: C_9  and  C_10
REMARK    4  A    between atoms: C_10  and  O_12
REMARK    5  A    between atoms: C_15  and  S_16
REMARK    6  A    between atoms: S_16  and  N_19
REMARK    7  A    between atoms: N_19  and  C_20
REMARK                            x       y       z     vdW  Elec       q    Type
REMARK                         _______ _______ _______ _____ _____    ______ ____
ROOT
ATOM      1  C   UNL     1       3.373   5.649  18.515  0.00  0.00    +0.000 A 
ATOM      2  C   UNL     1       4.631   6.000  17.985  0.00  0.00    +0.000 A 
ATOM      3  C   UNL     1       5.687   5.080  18.020  0.00  0.00    +0.000 A 
ATOM      4  C   UNL     1       5.496   3.807  18.559  0.00  0.00    +0.000 A 
ATOM      5  C   UNL     1       4.244   3.457  19.081  0.00  0.00    +0.000 A 
ATOM      6  C   UNL     1       3.182   4.369  19.053  0.00  0.00    +0.000 A 
ATOM      7 CL   UNL     1       1.659   3.803  19.637  0.00  0.00    +0.000 Cl
ENDROOT
BRANCH   1   9
ATOM      8  O   UNL     1       1.372   6.441  17.599  0.00  0.00    +0.000 OA
ATOM      9  C   UNL     1       2.285   6.658  18.390  0.00  0.00    +0.000 C 
ATOM     10  N   UNL     1       2.449   7.856  19.067  0.00  0.00    +0.000 N 
ATOM     11  H   UNL     1       3.363   8.078  19.455  0.00  0.00    +0.000 HD
BRANCH  10  12
ATOM     12  C   UNL     1       1.450   8.861  19.135  0.00  0.00    +0.000 A 
ATOM     13  C   UNL     1       0.983   9.464  17.961  0.00  0.00    +0.000 A 
ATOM     14  C   UNL     1      -0.036  10.420  18.007  0.00  0.00    +0.000 A 
ATOM     15  C   UNL     1      -0.586  10.800  19.228  0.00  0.00    +0.000 A 
ATOM     16  C   UNL     1      -0.131  10.209  20.407  0.00  0.00    +0.000 A 
ATOM     17  C   UNL     1       0.880   9.235  20.365  0.00  0.00    +0.000 A 
BRANCH  17  18
ATOM     18  C   UNL     1       1.357   8.708  21.667  0.00  0.00    +0.000 C 
ATOM     19  O   UNL     1       1.596   9.412  22.632  0.00  0.00    +0.000 OA
BRANCH  18  20
ATOM     20  O   UNL     1       1.543   7.367  21.664  0.00  0.00    +0.000 OA
ATOM     21  H   UNL     1       2.484   7.116  21.557  0.00  0.00    +0.000 HD
ENDBRANCH  18  20
ENDBRANCH  17  18
ENDBRANCH  10  12
ENDBRANCH   1   9
BRANCH   3  22
ATOM     22  S   UNL     1       7.254   5.491  17.262  0.00  0.00    +0.000 S 
ATOM     23  O   UNL     1       7.857   6.543  18.052  0.00  0.00    +0.000 OA
ATOM     24  O   UNL     1       7.944   4.241  17.015  0.00  0.00    +0.000 OA
BRANCH  22  25
ATOM     25  N   UNL     1       6.819   6.094  15.759  0.00  0.00    +0.000 N 
ATOM     26  H   UNL     1       6.981   7.086  15.604  0.00  0.00    +0.000 HD
BRANCH  25  27
ATOM     27  C   UNL     1       6.650   5.220  14.661  0.00  0.00    +0.000 A 
ATOM     28  C   UNL     1       7.593   5.217  13.635  0.00  0.00    +0.000 A 
ATOM     29  C   UNL     1       7.413   4.383  12.530  0.00  0.00    +0.000 A 
ATOM     30  C   UNL     1       6.284   3.567  12.452  0.00  0.00    +0.000 A 
ATOM     31  C   UNL     1       5.347   3.567  13.486  0.00  0.00    +0.000 A 
ATOM     32  C   UNL     1       5.538   4.382  14.601  0.00  0.00    +0.000 A 
ENDBRANCH  25  27
ENDBRANCH  22  25
ENDBRANCH   3  22
TORSDOF 7
ENDMDL
MODEL 7
REMARK VINA RESULT:      -8.4      1.560      1.823
REMARK  Name = 
REMARK  7 active torsions:
REMARK  status: ('A' for Active; 'I' for Inactive)
REMARK    1  A    between atoms: C_2  and  C_13
REMARK    2  A    between atoms: N_3  and  C_4
REMARK    3  A    between atoms: C_9  and  C_10
REMARK    4  A    between atoms: C_10  and  O_12
REMARK    5  A    between atoms: C_15  and  S_16
REMARK    6  A    between atoms: S_16  and  N_19
REMARK    7  A    between atoms: N_19  and  C_20
REMARK                            x       y       z     vdW  Elec       q    Type
REMARK                         _______ _______ _______ _____ _____    ______ ____
ROOT
ATOM      1  C   UNL     1       2.849   5.190  20.053  0.00  0.00    +0.000 A 
ATOM      2  C   UNL     1       4.115   5.682  19.677  0.00  0.00    +0.000 A 
ATOM      3  C   UNL     1       5.143   4.791  19.343  0.00  0.00    +0.000 A 
ATOM      4  C   UNL     1       4.914   3.414  19.361  0.00  0.00    +0.000 A 
ATOM      5  C   UNL     1       3.655   2.925  19.730  0.00  0.00    +0.000 A 
ATOM      6  C   UNL     1       2.622   3.808  20.067  0.00  0.00    +0.000 A 
ATOM      7 CL   UNL     1       1.084   3.103  20.416  0.00  0.00    +0.000 Cl
ENDROOT
BRANCH   1   9
ATOM      8  O   UNL     1       0.677   5.806  20.664  0.00  0.00    +0.000 OA
ATOM      9  C   UNL     1       1.792   6.200  20.338  0.00  0.00    +0.000 C 
ATOM     10  N   UNL     1       2.092   7.526  20.069  0.00  0.00    +0.000 N 
ATOM     11  H   UNL     1       2.923   7.740  19.522  0.00  0.00    +0.000 HD
BRANCH  10  12
ATOM     12  C   UNL     1       1.231   8.606  20.397  0.00  0.00    +0.000 A 
ATOM     13  C   UNL     1       0.575   8.627  21.634  0.00  0.00    +0.000 A 
ATOM     14  C   UNL     1      -0.237   9.707  21.992  0.00  0.00    +0.000 A 
ATOM     15  C   UNL     1      -0.419  10.769  21.110  0.00  0.00    +0.000 A 
ATOM     16  C   UNL     1       0.226  10.762  19.873  0.00  0.00    +0.000 A 
ATOM     17  C   UNL     1       1.058   9.688  19.516  0.00  0.00    +0.000 A 
BRANCH  17  18
ATOM     18  C   UNL     1       1.650   9.724  18.157  0.00  0.00    +0.000 C 
ATOM     19  O   UNL     1       1.842   8.730  17.479  0.00  0.00    +0.000 OA
BRANCH  18  20
ATOM     20  O   UNL     1       2.000  10.970  17.760  0.00  0.00    +0.000 OA
ATOM     21  H   UNL     1       1.302  11.409  17.230  0.00  0.00    +0.000 HD
ENDBRANCH  18  20
ENDBRANCH  17  18
ENDBRANCH  10  12
ENDBRANCH   1   9
BRANCH   3  22
ATOM     22  S   UNL     1       6.718   5.417  18.774  0.00  0.00    +0.000 S 
ATOM     23  O   UNL     1       6.464   6.650  18.060  0.00  0.00    +0.000 OA
ATOM     24  O   UNL     1       7.625   5.370  19.902  0.00  0.00    +0.000 OA
BRANCH  22  25
ATOM     25  N   UNL     1       7.243   4.242  17.698  0.00  0.00    +0.000 N 
ATOM     26  H   UNL     1       7.566   3.367  18.103  0.00  0.00    +0.000 HD
BRANCH  25  27
ATOM     27  C   UNL     1       6.862   4.299  16.338  0.00  0.00    +0.000 A 
ATOM     28  C   UNL     1       7.673   4.972  15.425  0.00  0.00    +0.000 A 
ATOM     29  C   UNL     1       7.285   5.063  14.088  0.00  0.00    +0.000 A 
ATOM     30  C   UNL     1       6.081   4.494  13.673  0.00  0.00    +0.000 A 
ATOM     31  C   UNL     1       5.276   3.813  14.588  0.00  0.00    +0.000 A 
ATOM     32  C   UNL     1       5.675   3.701  15.920  0.00  0.00    +0.000 A 
ENDBRANCH  25  27
ENDBRANCH  22  25
ENDBRANCH   3  22
TORSDOF 7
ENDMDL
MODEL 8
REMARK VINA RESULT:      -8.3      0.691      1.251
REMARK  Name = 
REMARK  7 active torsions:
REMARK  status: ('A' for Active; 'I' for Inactive)
REMARK    1  A    between atoms: C_2  and  C_13
REMARK    2  A    between atoms: N_3  and  C_4
REMARK    3  A    between atoms: C_9  and  C_10
REMARK    4  A    between atoms: C_10  and  O_12
REMARK    5  A    between atoms: C_15  and  S_16
REMARK    6  A    between atoms: S_16  and  N_19
REMARK    7  A    between atoms: N_19  and  C_20
REMARK                            x       y       z     vdW  Elec       q    Type
REMARK                         _______ _______ _______ _____ _____    ______ ____
ROOT
ATOM      1  C   UNL     1       2.734   5.968  19.123  0.00  0.00    +0.000 A 
ATOM      2  C   UNL     1       3.794   6.513  18.373  0.00  0.00    +0.000 A 
ATOM      3  C   UNL     1       4.458   5.726  17.423  0.00  0.00    +0.000 A 
ATOM      4  C   UNL     1       4.063   4.406  17.202  0.00  0.00    +0.000 A 
ATOM      5  C   UNL     1       3.006   3.865  17.944  0.00  0.00    +0.000 A 
ATOM      6  C   UNL     1       2.336   4.643  18.897  0.00  0.00    +0.000 A 
ATOM      7 CL   UNL     1       0.990   3.908  19.690  0.00  0.00    +0.000 Cl
ENDROOT
BRANCH   1   9
ATOM      8  O   UNL     1       1.883   6.516  21.232  0.00  0.00    +0.000 OA
ATOM      9  C   UNL     1       2.040   6.883  20.072  0.00  0.00    +0.000 C 
ATOM     10  N   UNL     1       1.479   8.036  19.546  0.00  0.00    +0.000 N 
ATOM     11  H   UNL     1       1.391   8.122  18.536  0.00  0.00    +0.000 HD
BRANCH  10  12
ATOM     12  C   UNL     1       0.891   9.054  20.340  0.00  0.00    +0.000 A 
ATOM     13  C   UNL     1       0.330   8.736  21.583  0.00  0.00    +0.000 A 
ATOM     14  C   UNL     1      -0.209   9.734  22.399  0.00  0.00    +0.000 A 
ATOM     15  C   UNL     1      -0.213  11.060  21.974  0.00  0.00    +0.000 A 
ATOM     16  C   UNL     1       0.341  11.393  20.738  0.00  0.00    +0.000 A 
ATOM     17  C   UNL     1       0.900  10.397  19.922  0.00  0.00    +0.000 A 
BRANCH  17  18
ATOM     18  C   UNL     1       1.404  10.824  18.594  0.00  0.00    +0.000 C 
ATOM     19  O   UNL     1       2.213  11.720  18.436  0.00  0.00    +0.000 OA
BRANCH  18  20
ATOM     20  O   UNL     1       0.839  10.147  17.567  0.00  0.00    +0.000 OA
ATOM     21  H   UNL     1       1.497   9.835  16.911  0.00  0.00    +0.000 HD
ENDBRANCH  18  20
ENDBRANCH  17  18
ENDBRANCH  10  12
ENDBRANCH   1   9
BRANCH   3  22
ATOM     22  S   UNL     1       5.738   6.447  16.404  0.00  0.00    +0.000 S 
ATOM     23  O   UNL     1       5.094   7.044  15.254  0.00  0.00    +0.000 OA
ATOM     24  O   UNL     1       6.591   7.223  17.281  0.00  0.00    +0.000 OA
BRANCH  22  25
ATOM     25  N   UNL     1       6.645   5.123  15.916  0.00  0.00    +0.000 N 
ATOM     26  H   UNL     1       6.852   4.427  16.627  0.00  0.00    +0.000 HD
BRANCH  25  27
ATOM     27  C   UNL     1       6.739   4.789  14.545  0.00  0.00    +0.000 A 
ATOM     28  C   UNL     1       5.914   3.794  14.023  0.00  0.00    +0.000 A 
ATOM     29  C   UNL     1       6.027   3.434  12.679  0.00  0.00    +0.000 A 
ATOM     30  C   UNL     1       6.974   4.061  11.868  0.00  0.00    +0.000 A 
ATOM     31  C   UNL     1       7.792   5.062  12.393  0.00  0.00    +0.000 A 
ATOM     32  C   UNL     1       7.663   5.440  13.730  0.00  0.00    +0.000 A 
ENDBRANCH  25  27
ENDBRANCH  22  25
ENDBRANCH   3  22
TORSDOF 7
ENDMDL
MODEL 9
REMARK VINA RESULT:      -8.3      1.438      1.602
REMARK  Name = 
REMARK  7 active torsions:
REMARK  status: ('A' for Active; 'I' for Inactive)
REMARK    1  A    between atoms: C_2  and  C_13
REMARK    2  A    between atoms: N_3  and  C_4
REMARK    3  A    between atoms: C_9  and  C_10
REMARK    4  A    between atoms: C_10  and  O_12
REMARK    5  A    between atoms: C_15  and  S_16
REMARK    6  A    between atoms: S_16  and  N_19
REMARK    7  A    between atoms: N_19  and  C_20
REMARK                            x       y       z     vdW  Elec       q    Type
REMARK                         _______ _______ _______ _____ _____    ______ ____
ROOT
ATOM      1  C   UNL     1       3.549   5.372  19.097  0.00  0.00    +0.000 A 
ATOM      2  C   UNL     1       4.680   5.842  18.401  0.00  0.00    +0.000 A 
ATOM      3  C   UNL     1       5.789   5.005  18.220  0.00  0.00    +0.000 A 
ATOM      4  C   UNL     1       5.773   3.698  18.709  0.00  0.00    +0.000 A 
ATOM      5  C   UNL     1       4.647   3.230  19.396  0.00  0.00    +0.000 A 
ATOM      6  C   UNL     1       3.534   4.058  19.585  0.00  0.00    +0.000 A 
ATOM      7 CL   UNL     1       2.164   3.352  20.363  0.00  0.00    +0.000 Cl
ENDROOT
BRANCH   1   9
ATOM      8  O   UNL     1       1.378   6.048  18.549  0.00  0.00    +0.000 OA
ATOM      9  C   UNL     1       2.389   6.300  19.199  0.00  0.00    +0.000 C 
ATOM     10  N   UNL     1       2.576   7.476  19.907  0.00  0.00    +0.000 N 
ATOM     11  H   UNL     1       3.523   7.751  20.159  0.00  0.00    +0.000 HD
BRANCH  10  12
ATOM     12  C   UNL     1       1.533   8.398  20.186  0.00  0.00    +0.000 A 
ATOM     13  C   UNL     1       0.767   8.256  21.349  0.00  0.00    +0.000 A 
ATOM     14  C   UNL     1      -0.230   9.183  21.663  0.00  0.00    +0.000 A 
ATOM     15  C   UNL     1      -0.488  10.252  20.807  0.00  0.00    +0.000 A 
ATOM     16  C   UNL     1       0.266  10.406  19.644  0.00  0.00    +0.000 A 
ATOM     17  C   UNL     1       1.282   9.487  19.334  0.00  0.00    +0.000 A 
BRANCH  17  18
ATOM     18  C   UNL     1       1.989   9.682  18.044  0.00  0.00    +0.000 C 
ATOM     19  O   UNL     1       2.480  10.742  17.698  0.00  0.00    +0.000 OA
BRANCH  18  20
ATOM     20  O   UNL     1       1.996   8.574  17.267  0.00  0.00    +0.000 OA
ATOM     21  H   UNL     1       1.847   8.775  16.319  0.00  0.00    +0.000 HD
ENDBRANCH  18  20
ENDBRANCH  17  18
ENDBRANCH  10  12
ENDBRANCH   1   9
BRANCH   3  22
ATOM     22  S   UNL     1       7.185   5.569  17.254  0.00  0.00    +0.000 S 
ATOM     23  O   UNL     1       7.760   6.705  17.942  0.00  0.00    +0.000 OA
ATOM     24  O   UNL     1       7.977   4.399  16.933  0.00  0.00    +0.000 OA
BRANCH  22  25
ATOM     25  N   UNL     1       6.489   6.076  15.815  0.00  0.00    +0.000 N 
ATOM     26  H   UNL     1       6.355   7.077  15.703  0.00  0.00    +0.000 HD
BRANCH  25  27
ATOM     27  C   UNL     1       6.492   5.228  14.684  0.00  0.00    +0.000 A 
ATOM     28  C   UNL     1       7.507   5.352  13.735  0.00  0.00    +0.000 A 
ATOM     29  C   UNL     1       7.495   4.543  12.598  0.00  0.00    +0.000 A 
ATOM     30  C   UNL     1       6.463   3.624  12.408  0.00  0.00    +0.000 A 
ATOM     31  C   UNL     1       5.455   3.497  13.365  0.00  0.00    +0.000 A 
ATOM     32  C   UNL     1       5.477   4.287  14.513  0.00  0.00    +0.000 A 
ENDBRANCH  25  27
ENDBRANCH  22  25
ENDBRANCH   3  22
TORSDOF 7
ENDMDL
