MODEL 1
REMARK VINA RESULT:      -5.3      0.000      0.000
REMARK  Name = 
REMARK  26 active torsions:
REMARK  status: ('A' for Active; 'I' for Inactive)
REMARK    1  A    between atoms: C_1  and  C_2
REMARK    2  A    between atoms: C_2  and  C_3
REMARK    3  A    between atoms: C_3  and  C_4
REMARK    4  A    between atoms: C_4  and  C_5
REMARK    5  A    between atoms: C_5  and  C_6
REMARK    6  A    between atoms: C_6  and  C_7
REMARK    7  A    between atoms: C_7  and  C_8
REMARK    8  A    between atoms: C_8  and  C_9
REMARK    9  A    between atoms: C_9  and  C_10
REMARK   10  A    between atoms: C_10  and  C_11
REMARK   11  A    between atoms: C_11  and  C_12
REMARK   12  A    between atoms: C_12  and  C_13
REMARK   13  A    between atoms: C_13  and  C_14
REMARK   14  A    between atoms: C_14  and  C_15
REMARK   15  A    between atoms: C_16  and  O_17
REMARK   16  A    between atoms: O_17  and  C_18
REMARK   17  A    between atoms: C_18  and  C_19
REMARK   18  A    between atoms: C_19  and  O_20
REMARK   19  A    between atoms: C_19  and  C_21
REMARK   20  A    between atoms: C_21  and  O_22
REMARK   21  A    between atoms: O_22  and  P_23
REMARK   22  A    between atoms: P_23  and  O_25
REMARK   23  A    between atoms: P_23  and  O_26
REMARK   24  A    between atoms: O_26  and  C_27
REMARK   25  A    between atoms: C_27  and  C_28
REMARK   26  A    between atoms: C_28  and  N_29
REMARK                            x       y       z     vdW  Elec       q    Type
REMARK                         _______ _______ _______ _____ _____    ______ ____
ROOT
ATOM      1  O   UNL     1       1.814   8.596  17.727  0.00  0.00    +0.000 OA
ENDROOT
BRANCH   1   3
ATOM      2  C   UNL     1       3.157   6.777  18.288  0.00  0.00    +0.000 C 
ATOM      3  C   UNL     1       3.038   8.002  17.771  0.00  0.00    +0.000 C 
BRANCH   2   4
ATOM      4  C   UNL     1       1.964   6.039  18.822  0.00  0.00    +0.000 C 
BRANCH   4   5
ATOM      5  C   UNL     1       2.052   5.731  20.320  0.00  0.00    +0.000 C 
BRANCH   5   6
ATOM      6  C   UNL     1       1.388   4.408  20.668  0.00  0.00    +0.000 C 
BRANCH   6   7
ATOM      7  C   UNL     1       2.346   3.247  20.439  0.00  0.00    +0.000 C 
BRANCH   7   8
ATOM      8  C   UNL     1       1.700   2.207  19.537  0.00  0.00    +0.000 C 
BRANCH   8   9
ATOM      9  C   UNL     1       2.156   2.404  18.100  0.00  0.00    +0.000 C 
BRANCH   9  10
ATOM     10  C   UNL     1       3.578   2.941  18.062  0.00  0.00    +0.000 C 
BRANCH  10  11
ATOM     11  C   UNL     1       4.036   3.107  16.621  0.00  0.00    +0.000 C 
BRANCH  11  12
ATOM     12  C   UNL     1       4.857   4.377  16.464  0.00  0.00    +0.000 C 
BRANCH  12  13
ATOM     13  C   UNL     1       6.194   4.069  15.802  0.00  0.00    +0.000 C 
BRANCH  13  14
ATOM     14  C   UNL     1       7.317   4.857  16.463  0.00  0.00    +0.000 C 
BRANCH  14  15
ATOM     15  C   UNL     1       7.169   4.840  17.981  0.00  0.00    +0.000 C 
BRANCH  15  17
ATOM     16  C   UNL     1       7.555   7.293  17.627  0.00  0.00    +0.000 C 
ATOM     17  C   UNL     1       7.692   6.133  18.597  0.00  0.00    +0.000 C 
ENDBRANCH  15  17
ENDBRANCH  14  15
ENDBRANCH  13  14
ENDBRANCH  12  13
ENDBRANCH  11  12
ENDBRANCH  10  11
ENDBRANCH   9  10
ENDBRANCH   8   9
ENDBRANCH   7   8
ENDBRANCH   6   7
ENDBRANCH   5   6
ENDBRANCH   4   5
ENDBRANCH   2   4
ENDBRANCH   1   3
BRANCH   1  18
ATOM     18  C   UNL     1       1.718   9.788  18.500  0.00  0.00    +0.000 C 
BRANCH  18  19
ATOM     19  C   UNL     1       0.274  10.293  18.343  0.00  0.00    +0.000 C 
BRANCH  19  20
ATOM     20  O   UNL     1      -0.325   9.593  17.228  0.00  0.00    +0.000 OA
ATOM     21  H   UNL     1      -0.615  10.262  16.575  0.00  0.00    +0.000 HD
ENDBRANCH  19  20
BRANCH  19  22
ATOM     22  C   UNL     1      -0.644  10.119  19.610  0.00  0.00    +0.000 C 
BRANCH  22  23
ATOM     23  O   UNL     1      -1.161  11.339  20.112  0.00  0.00    +0.000 OA
BRANCH  23  24
ATOM     24  P   UNL     1      -2.110  12.486  19.516  0.00  0.00    +0.000 P 
ATOM     25  O   UNL     1      -2.203  13.596  20.531  0.00  0.00    +0.000 OA
BRANCH  24  26
ATOM     26  O   UNL     1      -1.425  12.993  18.169  0.00  0.00    +0.000 OA
ATOM     27  H   UNL     1      -2.052  13.240  17.471  0.00  0.00    +0.000 HD
ENDBRANCH  24  26
BRANCH  24  28
ATOM     28  O   UNL     1      -3.562  11.927  19.041  0.00  0.00    +0.000 OA
BRANCH  28  29
ATOM     29  C   UNL     1      -3.514  10.809  18.118  0.00  0.00    +0.000 C 
BRANCH  29  30
ATOM     30  C   UNL     1      -3.658  11.039  16.584  0.00  0.00    +0.000 C 
BRANCH  30  31
ATOM     31  N   UNL     1      -2.442  11.311  15.823  0.00  0.00    +0.000 NA
ATOM     32  H   UNL     1      -1.803  10.520  15.902  0.00  0.00    +0.000 HD
ATOM     33  H   UNL     1      -1.947  12.093  16.256  0.00  0.00    +0.000 HD
ENDBRANCH  30  31
ENDBRANCH  29  30
ENDBRANCH  28  29
ENDBRANCH  24  28
ENDBRANCH  23  24
ENDBRANCH  22  23
ENDBRANCH  19  22
ENDBRANCH  18  19
ENDBRANCH   1  18
TORSDOF 25
ENDMDL
MODEL 2
REMARK VINA RESULT:      -5.1      1.201      1.684
REMARK  Name = 
REMARK  26 active torsions:
REMARK  status: ('A' for Active; 'I' for Inactive)
REMARK    1  A    between atoms: C_1  and  C_2
REMARK    2  A    between atoms: C_2  and  C_3
REMARK    3  A    between atoms: C_3  and  C_4
REMARK    4  A    between atoms: C_4  and  C_5
REMARK    5  A    between atoms: C_5  and  C_6
REMARK    6  A    between atoms: C_6  and  C_7
REMARK    7  A    between atoms: C_7  and  C_8
REMARK    8  A    between atoms: C_8  and  C_9
REMARK    9  A    between atoms: C_9  and  C_10
REMARK   10  A    between atoms: C_10  and  C_11
REMARK   11  A    between atoms: C_11  and  C_12
REMARK   12  A    between atoms: C_12  and  C_13
REMARK   13  A    between atoms: C_13  and  C_14
REMARK   14  A    between atoms: C_14  and  C_15
REMARK   15  A    between atoms: C_16  and  O_17
REMARK   16  A    between atoms: O_17  and  C_18
REMARK   17  A    between atoms: C_18  and  C_19
REMARK   18  A    between atoms: C_19  and  O_20
REMARK   19  A    between atoms: C_19  and  C_21
REMARK   20  A    between atoms: C_21  and  O_22
REMARK   21  A    between atoms: O_22  and  P_23
REMARK   22  A    between atoms: P_23  and  O_25
REMARK   23  A    between atoms: P_23  and  O_26
REMARK   24  A    between atoms: O_26  and  C_27
REMARK   25  A    between atoms: C_27  and  C_28
REMARK   26  A    between atoms: C_28  and  N_29
REMARK                            x       y       z     vdW  Elec       q    Type
REMARK                         _______ _______ _______ _____ _____    ______ ____
ROOT
ATOM      1  O   UNL     1       1.242   8.926  18.571  0.00  0.00    +0.000 OA
ENDROOT
BRANCH   1   3
ATOM      2  C   UNL     1       3.023   7.532  18.010  0.00  0.00    +0.000 C 
ATOM      3  C   UNL     1       2.280   8.610  17.747  0.00  0.00    +0.000 C 
BRANCH   2   4
ATOM      4  C   UNL     1       2.738   6.661  19.199  0.00  0.00    +0.000 C 
BRANCH   4   5
ATOM      5  C   UNL     1       1.794   5.494  18.892  0.00  0.00    +0.000 C 
BRANCH   5   6
ATOM      6  C   UNL     1       1.242   4.861  20.161  0.00  0.00    +0.000 C 
BRANCH   6   7
ATOM      7  C   UNL     1       2.371   4.480  21.108  0.00  0.00    +0.000 C 
BRANCH   7   8
ATOM      8  C   UNL     1       2.523   2.967  21.157  0.00  0.00    +0.000 C 
BRANCH   8   9
ATOM      9  C   UNL     1       3.551   2.511  20.134  0.00  0.00    +0.000 C 
BRANCH   9  10
ATOM     10  C   UNL     1       2.869   1.804  18.974  0.00  0.00    +0.000 C 
BRANCH  10  11
ATOM     11  C   UNL     1       3.285   2.439  17.656  0.00  0.00    +0.000 C 
BRANCH  11  12
ATOM     12  C   UNL     1       4.454   3.391  17.867  0.00  0.00    +0.000 C 
BRANCH  12  13
ATOM     13  C   UNL     1       4.583   4.346  16.688  0.00  0.00    +0.000 C 
BRANCH  13  14
ATOM     14  C   UNL     1       5.812   4.009  15.854  0.00  0.00    +0.000 C 
BRANCH  14  15
ATOM     15  C   UNL     1       6.837   5.136  15.921  0.00  0.00    +0.000 C 
BRANCH  15  17
ATOM     16  C   UNL     1       7.365   6.895  17.629  0.00  0.00    +0.000 C 
ATOM     17  C   UNL     1       6.297   6.320  16.715  0.00  0.00    +0.000 C 
ENDBRANCH  15  17
ENDBRANCH  14  15
ENDBRANCH  13  14
ENDBRANCH  12  13
ENDBRANCH  11  12
ENDBRANCH  10  11
ENDBRANCH   9  10
ENDBRANCH   8   9
ENDBRANCH   7   8
ENDBRANCH   6   7
ENDBRANCH   5   6
ENDBRANCH   4   5
ENDBRANCH   2   4
ENDBRANCH   1   3
BRANCH   1  18
ATOM     18  C   UNL     1       1.407  10.159  19.264  0.00  0.00    +0.000 C 
BRANCH  18  19
ATOM     19  C   UNL     1       0.476  10.097  20.487  0.00  0.00    +0.000 C 
BRANCH  19  20
ATOM     20  O   UNL     1       1.204   9.474  21.571  0.00  0.00    +0.000 OA
ATOM     21  H   UNL     1       0.835   8.577  21.702  0.00  0.00    +0.000 HD
ENDBRANCH  19  20
BRANCH  19  22
ATOM     22  C   UNL     1      -0.087  11.483  20.978  0.00  0.00    +0.000 C 
BRANCH  22  23
ATOM     23  O   UNL     1      -1.478  11.641  20.764  0.00  0.00    +0.000 OA
BRANCH  23  24
ATOM     24  P   UNL     1      -2.368  12.490  19.735  0.00  0.00    +0.000 P 
ATOM     25  O   UNL     1      -2.883  13.711  20.452  0.00  0.00    +0.000 OA
BRANCH  24  26
ATOM     26  O   UNL     1      -1.409  12.894  18.526  0.00  0.00    +0.000 OA
ATOM     27  H   UNL     1      -0.556  12.433  18.524  0.00  0.00    +0.000 HD
ENDBRANCH  24  26
BRANCH  24  28
ATOM     28  O   UNL     1      -3.546  11.611  19.037  0.00  0.00    +0.000 OA
BRANCH  28  29
ATOM     29  C   UNL     1      -3.451  11.501  17.594  0.00  0.00    +0.000 C 
BRANCH  29  30
ATOM     30  C   UNL     1      -2.795  10.252  16.933  0.00  0.00    +0.000 C 
BRANCH  30  31
ATOM     31  N   UNL     1      -1.364  10.050  17.142  0.00  0.00    +0.000 NA
ATOM     32  H   UNL     1      -0.939   9.688  16.289  0.00  0.00    +0.000 HD
ATOM     33  H   UNL     1      -1.230   9.312  17.835  0.00  0.00    +0.000 HD
ENDBRANCH  30  31
ENDBRANCH  29  30
ENDBRANCH  28  29
ENDBRANCH  24  28
ENDBRANCH  23  24
ENDBRANCH  22  23
ENDBRANCH  19  22
ENDBRANCH  18  19
ENDBRANCH   1  18
TORSDOF 25
ENDMDL
MODEL 3
REMARK VINA RESULT:      -5.1      5.083      9.763
REMARK  Name = 
REMARK  26 active torsions:
REMARK  status: ('A' for Active; 'I' for Inactive)
REMARK    1  A    between atoms: C_1  and  C_2
REMARK    2  A    between atoms: C_2  and  C_3
REMARK    3  A    between atoms: C_3  and  C_4
REMARK    4  A    between atoms: C_4  and  C_5
REMARK    5  A    between atoms: C_5  and  C_6
REMARK    6  A    between atoms: C_6  and  C_7
REMARK    7  A    between atoms: C_7  and  C_8
REMARK    8  A    between atoms: C_8  and  C_9
REMARK    9  A    between atoms: C_9  and  C_10
REMARK   10  A    between atoms: C_10  and  C_11
REMARK   11  A    between atoms: C_11  and  C_12
REMARK   12  A    between atoms: C_12  and  C_13
REMARK   13  A    between atoms: C_13  and  C_14
REMARK   14  A    between atoms: C_14  and  C_15
REMARK   15  A    between atoms: C_16  and  O_17
REMARK   16  A    between atoms: O_17  and  C_18
REMARK   17  A    between atoms: C_18  and  C_19
REMARK   18  A    between atoms: C_19  and  O_20
REMARK   19  A    between atoms: C_19  and  C_21
REMARK   20  A    between atoms: C_21  and  O_22
REMARK   21  A    between atoms: O_22  and  P_23
REMARK   22  A    between atoms: P_23  and  O_25
REMARK   23  A    between atoms: P_23  and  O_26
REMARK   24  A    between atoms: O_26  and  C_27
REMARK   25  A    between atoms: C_27  and  C_28
REMARK   26  A    between atoms: C_28  and  N_29
REMARK                            x       y       z     vdW  Elec       q    Type
REMARK                         _______ _______ _______ _____ _____    ______ ____
ROOT
ATOM      1  O   UNL     1       3.939   5.117  19.305  0.00  0.00    +0.000 OA
ENDROOT
BRANCH   1   3
ATOM      2  C   UNL     1       2.082   6.284  20.092  0.00  0.00    +0.000 C 
ATOM      3  C   UNL     1       2.906   5.237  20.184  0.00  0.00    +0.000 C 
BRANCH   2   4
ATOM      4  C   UNL     1       2.272   7.333  19.036  0.00  0.00    +0.000 C 
BRANCH   4   5
ATOM      5  C   UNL     1       1.631   8.680  19.385  0.00  0.00    +0.000 C 
BRANCH   5   6
ATOM      6  C   UNL     1       1.441   8.845  20.886  0.00  0.00    +0.000 C 
BRANCH   6   7
ATOM      7  C   UNL     1       0.317   9.829  21.182  0.00  0.00    +0.000 C 
BRANCH   7   8
ATOM      8  C   UNL     1      -0.084   9.738  22.646  0.00  0.00    +0.000 C 
BRANCH   8   9
ATOM      9  C   UNL     1      -1.185  10.741  22.950  0.00  0.00    +0.000 C 
BRANCH   9  10
ATOM     10  C   UNL     1      -0.776  12.134  22.500  0.00  0.00    +0.000 C 
BRANCH  10  11
ATOM     11  C   UNL     1      -1.922  12.800  21.753  0.00  0.00    +0.000 C 
BRANCH  11  12
ATOM     12  C   UNL     1      -1.604  12.903  20.269  0.00  0.00    +0.000 C 
BRANCH  12  13
ATOM     13  C   UNL     1      -2.623  12.122  19.449  0.00  0.00    +0.000 C 
BRANCH  13  14
ATOM     14  C   UNL     1      -1.965  10.928  18.769  0.00  0.00    +0.000 C 
BRANCH  14  15
ATOM     15  C   UNL     1      -1.891  11.138  17.260  0.00  0.00    +0.000 C 
BRANCH  15  17
ATOM     16  C   UNL     1      -3.052  10.336  15.187  0.00  0.00    +0.000 C 
ATOM     17  C   UNL     1      -2.434   9.926  16.512  0.00  0.00    +0.000 C 
ENDBRANCH  15  17
ENDBRANCH  14  15
ENDBRANCH  13  14
ENDBRANCH  12  13
ENDBRANCH  11  12
ENDBRANCH  10  11
ENDBRANCH   9  10
ENDBRANCH   8   9
ENDBRANCH   7   8
ENDBRANCH   6   7
ENDBRANCH   5   6
ENDBRANCH   4   5
ENDBRANCH   2   4
ENDBRANCH   1   3
BRANCH   1  18
ATOM     18  C   UNL     1       4.578   3.845  19.331  0.00  0.00    +0.000 C 
BRANCH  18  19
ATOM     19  C   UNL     1       4.156   3.121  18.041  0.00  0.00    +0.000 C 
BRANCH  19  20
ATOM     20  O   UNL     1       2.836   2.568  18.251  0.00  0.00    +0.000 OA
ATOM     21  H   UNL     1       2.717   1.829  17.620  0.00  0.00    +0.000 HD
ENDBRANCH  19  20
BRANCH  19  22
ATOM     22  C   UNL     1       4.138   4.012  16.742  0.00  0.00    +0.000 C 
BRANCH  22  23
ATOM     23  O   UNL     1       5.268   3.829  15.909  0.00  0.00    +0.000 OA
BRANCH  23  24
ATOM     24  P   UNL     1       6.302   4.818  15.183  0.00  0.00    +0.000 P 
ATOM     25  O   UNL     1       6.528   4.316  13.781  0.00  0.00    +0.000 OA
BRANCH  24  26
ATOM     26  O   UNL     1       5.625   6.261  15.176  0.00  0.00    +0.000 OA
ATOM     27  H   UNL     1       5.068   6.443  15.949  0.00  0.00    +0.000 HD
ENDBRANCH  24  26
BRANCH  24  28
ATOM     28  O   UNL     1       7.680   5.024  16.022  0.00  0.00    +0.000 OA
BRANCH  28  29
ATOM     29  C   UNL     1       7.502   5.234  17.446  0.00  0.00    +0.000 C 
BRANCH  29  30
ATOM     30  C   UNL     1       7.474   6.674  18.040  0.00  0.00    +0.000 C 
BRANCH  30  31
ATOM     31  N   UNL     1       7.577   7.793  17.107  0.00  0.00    +0.000 NA
ATOM     32  H   UNL     1       7.862   8.633  17.607  0.00  0.00    +0.000 HD
ATOM     33  H   UNL     1       6.647   8.006  16.741  0.00  0.00    +0.000 HD
ENDBRANCH  30  31
ENDBRANCH  29  30
ENDBRANCH  28  29
ENDBRANCH  24  28
ENDBRANCH  23  24
ENDBRANCH  22  23
ENDBRANCH  19  22
ENDBRANCH  18  19
ENDBRANCH   1  18
TORSDOF 25
ENDMDL
MODEL 4
REMARK VINA RESULT:      -5.1      5.385      8.774
REMARK  Name = 
REMARK  26 active torsions:
REMARK  status: ('A' for Active; 'I' for Inactive)
REMARK    1  A    between atoms: C_1  and  C_2
REMARK    2  A    between atoms: C_2  and  C_3
REMARK    3  A    between atoms: C_3  and  C_4
REMARK    4  A    between atoms: C_4  and  C_5
REMARK    5  A    between atoms: C_5  and  C_6
REMARK    6  A    between atoms: C_6  and  C_7
REMARK    7  A    between atoms: C_7  and  C_8
REMARK    8  A    between atoms: C_8  and  C_9
REMARK    9  A    between atoms: C_9  and  C_10
REMARK   10  A    between atoms: C_10  and  C_11
REMARK   11  A    between atoms: C_11  and  C_12
REMARK   12  A    between atoms: C_12  and  C_13
REMARK   13  A    between atoms: C_13  and  C_14
REMARK   14  A    between atoms: C_14  and  C_15
REMARK   15  A    between atoms: C_16  and  O_17
REMARK   16  A    between atoms: O_17  and  C_18
REMARK   17  A    between atoms: C_18  and  C_19
REMARK   18  A    between atoms: C_19  and  O_20
REMARK   19  A    between atoms: C_19  and  C_21
REMARK   20  A    between atoms: C_21  and  O_22
REMARK   21  A    between atoms: O_22  and  P_23
REMARK   22  A    between atoms: P_23  and  O_25
REMARK   23  A    between atoms: P_23  and  O_26
REMARK   24  A    between atoms: O_26  and  C_27
REMARK   25  A    between atoms: C_27  and  C_28
REMARK   26  A    between atoms: C_28  and  N_29
REMARK                            x       y       z     vdW  Elec       q    Type
REMARK                         _______ _______ _______ _____ _____    ______ ____
ROOT
ATOM      1  O   UNL     1       5.125   4.346  18.979  0.00  0.00    +0.000 OA
ENDROOT
BRANCH   1   3
ATOM      2  C   UNL     1       4.251   2.211  19.303  0.00  0.00    +0.000 C 
ATOM      3  C   UNL     1       4.923   3.262  19.778  0.00  0.00    +0.000 C 
BRANCH   2   4
ATOM      4  C   UNL     1       3.711   2.201  17.902  0.00  0.00    +0.000 C 
BRANCH   4   5
ATOM      5  C   UNL     1       2.182   2.255  17.832  0.00  0.00    +0.000 C 
BRANCH   5   6
ATOM      6  C   UNL     1       1.568   2.676  19.159  0.00  0.00    +0.000 C 
BRANCH   6   7
ATOM      7  C   UNL     1       1.321   4.178  19.186  0.00  0.00    +0.000 C 
BRANCH   7   8
ATOM      8  C   UNL     1       1.649   4.786  17.831  0.00  0.00    +0.000 C 
BRANCH   8   9
ATOM      9  C   UNL     1       2.399   6.095  18.013  0.00  0.00    +0.000 C 
BRANCH   9  10
ATOM     10  C   UNL     1       2.381   6.521  19.472  0.00  0.00    +0.000 C 
BRANCH  10  11
ATOM     11  C   UNL     1       1.949   7.975  19.587  0.00  0.00    +0.000 C 
BRANCH  11  12
ATOM     12  C   UNL     1       1.941   8.640  18.218  0.00  0.00    +0.000 C 
BRANCH  12  13
ATOM     13  C   UNL     1       1.307  10.022  18.301  0.00  0.00    +0.000 C 
BRANCH  13  14
ATOM     14  C   UNL     1       0.180  10.037  19.325  0.00  0.00    +0.000 C 
BRANCH  14  15
ATOM     15  C   UNL     1      -0.708  11.262  19.135  0.00  0.00    +0.000 C 
BRANCH  15  17
ATOM     16  C   UNL     1      -2.459   9.980  17.878  0.00  0.00    +0.000 C 
ATOM     17  C   UNL     1      -1.508  11.163  17.841  0.00  0.00    +0.000 C 
ENDBRANCH  15  17
ENDBRANCH  14  15
ENDBRANCH  13  14
ENDBRANCH  12  13
ENDBRANCH  11  12
ENDBRANCH  10  11
ENDBRANCH   9  10
ENDBRANCH   8   9
ENDBRANCH   7   8
ENDBRANCH   6   7
ENDBRANCH   5   6
ENDBRANCH   4   5
ENDBRANCH   2   4
ENDBRANCH   1   3
BRANCH   1  18
ATOM     18  C   UNL     1       5.960   5.346  19.556  0.00  0.00    +0.000 C 
BRANCH  18  19
ATOM     19  C   UNL     1       7.227   5.407  18.687  0.00  0.00    +0.000 C 
BRANCH  19  20
ATOM     20  O   UNL     1       8.375   5.329  19.564  0.00  0.00    +0.000 OA
ATOM     21  H   UNL     1       8.718   6.237  19.690  0.00  0.00    +0.000 HD
ENDBRANCH  19  20
BRANCH  19  22
ATOM     22  C   UNL     1       7.345   4.287  17.587  0.00  0.00    +0.000 C 
BRANCH  22  23
ATOM     23  O   UNL     1       6.360   4.376  16.573  0.00  0.00    +0.000 OA
BRANCH  23  24
ATOM     24  P   UNL     1       6.171   5.288  15.267  0.00  0.00    +0.000 P 
ATOM     25  O   UNL     1       5.488   6.567  15.679  0.00  0.00    +0.000 OA
BRANCH  24  26
ATOM     26  O   UNL     1       7.631   5.575  14.694  0.00  0.00    +0.000 OA
ATOM     27  H   UNL     1       8.134   4.776  14.468  0.00  0.00    +0.000 HD
ENDBRANCH  24  26
BRANCH  24  28
ATOM     28  O   UNL     1       5.409   4.514  14.056  0.00  0.00    +0.000 OA
BRANCH  28  29
ATOM     29  C   UNL     1       6.160   3.428  13.458  0.00  0.00    +0.000 C 
BRANCH  29  30
ATOM     30  C   UNL     1       6.754   3.567  12.024  0.00  0.00    +0.000 C 
BRANCH  30  31
ATOM     31  N   UNL     1       7.480   4.794  11.709  0.00  0.00    +0.000 NA
ATOM     32  H   UNL     1       8.126   4.624  10.939  0.00  0.00    +0.000 HD
ATOM     33  H   UNL     1       8.074   5.041  12.502  0.00  0.00    +0.000 HD
ENDBRANCH  30  31
ENDBRANCH  29  30
ENDBRANCH  28  29
ENDBRANCH  24  28
ENDBRANCH  23  24
ENDBRANCH  22  23
ENDBRANCH  19  22
ENDBRANCH  18  19
ENDBRANCH   1  18
TORSDOF 25
ENDMDL
MODEL 5
REMARK VINA RESULT:      -5.1      5.420      9.232
REMARK  Name = 
REMARK  26 active torsions:
REMARK  status: ('A' for Active; 'I' for Inactive)
REMARK    1  A    between atoms: C_1  and  C_2
REMARK    2  A    between atoms: C_2  and  C_3
REMARK    3  A    between atoms: C_3  and  C_4
REMARK    4  A    between atoms: C_4  and  C_5
REMARK    5  A    between atoms: C_5  and  C_6
REMARK    6  A    between atoms: C_6  and  C_7
REMARK    7  A    between atoms: C_7  and  C_8
REMARK    8  A    between atoms: C_8  and  C_9
REMARK    9  A    between atoms: C_9  and  C_10
REMARK   10  A    between atoms: C_10  and  C_11
REMARK   11  A    between atoms: C_11  and  C_12
REMARK   12  A    between atoms: C_12  and  C_13
REMARK   13  A    between atoms: C_13  and  C_14
REMARK   14  A    between atoms: C_14  and  C_15
REMARK   15  A    between atoms: C_16  and  O_17
REMARK   16  A    between atoms: O_17  and  C_18
REMARK   17  A    between atoms: C_18  and  C_19
REMARK   18  A    between atoms: C_19  and  O_20
REMARK   19  A    between atoms: C_19  and  C_21
REMARK   20  A    between atoms: C_21  and  O_22
REMARK   21  A    between atoms: O_22  and  P_23
REMARK   22  A    between atoms: P_23  and  O_25
REMARK   23  A    between atoms: P_23  and  O_26
REMARK   24  A    between atoms: O_26  and  C_27
REMARK   25  A    between atoms: C_27  and  C_28
REMARK   26  A    between atoms: C_28  and  N_29
REMARK                            x       y       z     vdW  Elec       q    Type
REMARK                         _______ _______ _______ _____ _____    ______ ____
ROOT
ATOM      1  O   UNL     1       2.941   3.933  17.679  0.00  0.00    +0.000 OA
ENDROOT
BRANCH   1   3
ATOM      2  C   UNL     1       1.657   2.334  18.786  0.00  0.00    +0.000 C 
ATOM      3  C   UNL     1       2.016   2.934  17.648  0.00  0.00    +0.000 C 
BRANCH   2   4
ATOM      4  C   UNL     1       2.256   2.740  20.101  0.00  0.00    +0.000 C 
BRANCH   4   5
ATOM      5  C   UNL     1       1.471   3.844  20.818  0.00  0.00    +0.000 C 
BRANCH   5   6
ATOM      6  C   UNL     1       2.214   5.172  20.799  0.00  0.00    +0.000 C 
BRANCH   6   7
ATOM      7  C   UNL     1       1.283   6.304  20.388  0.00  0.00    +0.000 C 
BRANCH   7   8
ATOM      8  C   UNL     1       2.094   7.532  20.003  0.00  0.00    +0.000 C 
BRANCH   8   9
ATOM      9  C   UNL     1       2.035   7.747  18.499  0.00  0.00    +0.000 C 
BRANCH   9  10
ATOM     10  C   UNL     1       1.899   9.226  18.177  0.00  0.00    +0.000 C 
BRANCH  10  11
ATOM     11  C   UNL     1       0.950   9.890  19.164  0.00  0.00    +0.000 C 
BRANCH  11  12
ATOM     12  C   UNL     1       0.152  10.990  18.480  0.00  0.00    +0.000 C 
BRANCH  12  13
ATOM     13  C   UNL     1      -1.330  10.642  18.465  0.00  0.00    +0.000 C 
BRANCH  13  14
ATOM     14  C   UNL     1      -1.656   9.723  17.295  0.00  0.00    +0.000 C 
BRANCH  14  15
ATOM     15  C   UNL     1      -3.087   9.943  16.816  0.00  0.00    +0.000 C 
BRANCH  15  17
ATOM     16  C   UNL     1      -4.967  11.158  17.946  0.00  0.00    +0.000 C 
ATOM     17  C   UNL     1      -3.614  11.299  17.271  0.00  0.00    +0.000 C 
ENDBRANCH  15  17
ENDBRANCH  14  15
ENDBRANCH  13  14
ENDBRANCH  12  13
ENDBRANCH  11  12
ENDBRANCH  10  11
ENDBRANCH   9  10
ENDBRANCH   8   9
ENDBRANCH   7   8
ENDBRANCH   6   7
ENDBRANCH   5   6
ENDBRANCH   4   5
ENDBRANCH   2   4
ENDBRANCH   1   3
BRANCH   1  18
ATOM     18  C   UNL     1       4.221   3.524  18.150  0.00  0.00    +0.000 C 
BRANCH  18  19
ATOM     19  C   UNL     1       4.950   4.804  18.592  0.00  0.00    +0.000 C 
BRANCH  19  20
ATOM     20  O   UNL     1       6.284   4.436  19.014  0.00  0.00    +0.000 OA
ATOM     21  H   UNL     1       6.759   5.257  19.255  0.00  0.00    +0.000 HD
ENDBRANCH  19  20
BRANCH  19  22
ATOM     22  C   UNL     1       5.051   5.934  17.500  0.00  0.00    +0.000 C 
BRANCH  22  23
ATOM     23  O   UNL     1       6.279   5.937  16.794  0.00  0.00    +0.000 OA
BRANCH  23  24
ATOM     24  P   UNL     1       7.055   4.867  15.886  0.00  0.00    +0.000 P 
ATOM     25  O   UNL     1       7.830   5.616  14.832  0.00  0.00    +0.000 OA
BRANCH  24  26
ATOM     26  O   UNL     1       8.033   4.066  16.857  0.00  0.00    +0.000 OA
ATOM     27  H   UNL     1       7.828   4.168  17.800  0.00  0.00    +0.000 HD
ENDBRANCH  24  26
BRANCH  24  28
ATOM     28  O   UNL     1       6.074   3.724  15.271  0.00  0.00    +0.000 OA
BRANCH  28  29
ATOM     29  C   UNL     1       5.202   4.178  14.205  0.00  0.00    +0.000 C 
BRANCH  29  30
ATOM     30  C   UNL     1       5.551   3.889  12.714  0.00  0.00    +0.000 C 
BRANCH  30  31
ATOM     31  N   UNL     1       6.302   2.673  12.419  0.00  0.00    +0.000 NA
ATOM     32  H   UNL     1       7.256   2.765  12.767  0.00  0.00    +0.000 HD
ATOM     33  H   UNL     1       6.399   2.579  11.407  0.00  0.00    +0.000 HD
ENDBRANCH  30  31
ENDBRANCH  29  30
ENDBRANCH  28  29
ENDBRANCH  24  28
ENDBRANCH  23  24
ENDBRANCH  22  23
ENDBRANCH  19  22
ENDBRANCH  18  19
ENDBRANCH   1  18
TORSDOF 25
ENDMDL
MODEL 6
REMARK VINA RESULT:      -5.0      2.458      4.496
REMARK  Name = 
REMARK  26 active torsions:
REMARK  status: ('A' for Active; 'I' for Inactive)
REMARK    1  A    between atoms: C_1  and  C_2
REMARK    2  A    between atoms: C_2  and  C_3
REMARK    3  A    between atoms: C_3  and  C_4
REMARK    4  A    between atoms: C_4  and  C_5
REMARK    5  A    between atoms: C_5  and  C_6
REMARK    6  A    between atoms: C_6  and  C_7
REMARK    7  A    between atoms: C_7  and  C_8
REMARK    8  A    between atoms: C_8  and  C_9
REMARK    9  A    between atoms: C_9  and  C_10
REMARK   10  A    between atoms: C_10  and  C_11
REMARK   11  A    between atoms: C_11  and  C_12
REMARK   12  A    between atoms: C_12  and  C_13
REMARK   13  A    between atoms: C_13  and  C_14
REMARK   14  A    between atoms: C_14  and  C_15
REMARK   15  A    between atoms: C_16  and  O_17
REMARK   16  A    between atoms: O_17  and  C_18
REMARK   17  A    between atoms: C_18  and  C_19
REMARK   18  A    between atoms: C_19  and  O_20
REMARK   19  A    between atoms: C_19  and  C_21
REMARK   20  A    between atoms: C_21  and  O_22
REMARK   21  A    between atoms: O_22  and  P_23
REMARK   22  A    between atoms: P_23  and  O_25
REMARK   23  A    between atoms: P_23  and  O_26
REMARK   24  A    between atoms: O_26  and  C_27
REMARK   25  A    between atoms: C_27  and  C_28
REMARK   26  A    between atoms: C_28  and  N_29
REMARK                            x       y       z     vdW  Elec       q    Type
REMARK                         _______ _______ _______ _____ _____    ______ ____
ROOT
ATOM      1  O   UNL     1       1.195   8.705  20.542  0.00  0.00    +0.000 OA
ENDROOT
BRANCH   1   3
ATOM      2  C   UNL     1       2.011   8.404  18.380  0.00  0.00    +0.000 C 
ATOM      3  C   UNL     1       1.429   9.189  19.290  0.00  0.00    +0.000 C 
BRANCH   2   4
ATOM      4  C   UNL     1       2.414   6.996  18.711  0.00  0.00    +0.000 C 
BRANCH   4   5
ATOM      5  C   UNL     1       3.897   6.706  18.458  0.00  0.00    +0.000 C 
BRANCH   5   6
ATOM      6  C   UNL     1       4.358   7.242  17.111  0.00  0.00    +0.000 C 
BRANCH   6   7
ATOM      7  C   UNL     1       5.534   6.432  16.582  0.00  0.00    +0.000 C 
BRANCH   7   8
ATOM      8  C   UNL     1       5.030   5.221  15.812  0.00  0.00    +0.000 C 
BRANCH   8   9
ATOM      9  C   UNL     1       5.562   3.943  16.440  0.00  0.00    +0.000 C 
BRANCH   9  10
ATOM     10  C   UNL     1       4.685   3.518  17.606  0.00  0.00    +0.000 C 
BRANCH  10  11
ATOM     11  C   UNL     1       3.228   3.464  17.173  0.00  0.00    +0.000 C 
BRANCH  11  12
ATOM     12  C   UNL     1       2.629   2.100  17.482  0.00  0.00    +0.000 C 
BRANCH  12  13
ATOM     13  C   UNL     1       1.557   2.220  18.557  0.00  0.00    +0.000 C 
BRANCH  13  14
ATOM     14  C   UNL     1       1.115   3.668  18.717  0.00  0.00    +0.000 C 
BRANCH  14  15
ATOM     15  C   UNL     1       0.916   4.014  20.189  0.00  0.00    +0.000 C 
BRANCH  15  17
ATOM     16  C   UNL     1       2.386   2.758  21.788  0.00  0.00    +0.000 C 
ATOM     17  C   UNL     1       2.246   4.008  20.937  0.00  0.00    +0.000 C 
ENDBRANCH  15  17
ENDBRANCH  14  15
ENDBRANCH  13  14
ENDBRANCH  12  13
ENDBRANCH  11  12
ENDBRANCH  10  11
ENDBRANCH   9  10
ENDBRANCH   8   9
ENDBRANCH   7   8
ENDBRANCH   6   7
ENDBRANCH   5   6
ENDBRANCH   4   5
ENDBRANCH   2   4
ENDBRANCH   1   3
BRANCH   1  18
ATOM     18  C   UNL     1      -0.105   9.001  21.044  0.00  0.00    +0.000 C 
BRANCH  18  19
ATOM     19  C   UNL     1       0.064   9.279  22.547  0.00  0.00    +0.000 C 
BRANCH  19  20
ATOM     20  O   UNL     1       1.423   9.724  22.769  0.00  0.00    +0.000 OA
ATOM     21  H   UNL     1       1.963   9.428  22.008  0.00  0.00    +0.000 HD
ENDBRANCH  19  20
BRANCH  19  22
ATOM     22  C   UNL     1      -0.928  10.341  23.153  0.00  0.00    +0.000 C 
BRANCH  22  23
ATOM     23  O   UNL     1      -0.437  11.669  23.113  0.00  0.00    +0.000 OA
BRANCH  23  24
ATOM     24  P   UNL     1      -0.725  12.947  22.188  0.00  0.00    +0.000 P 
ATOM     25  O   UNL     1       0.374  13.951  22.415  0.00  0.00    +0.000 OA
BRANCH  24  26
ATOM     26  O   UNL     1      -0.728  12.428  20.680  0.00  0.00    +0.000 OA
ATOM     27  H   UNL     1      -0.568  11.476  20.587  0.00  0.00    +0.000 HD
ENDBRANCH  24  26
BRANCH  24  28
ATOM     28  O   UNL     1      -2.215  13.565  22.403  0.00  0.00    +0.000 OA
BRANCH  28  29
ATOM     29  C   UNL     1      -3.290  12.781  21.824  0.00  0.00    +0.000 C 
BRANCH  29  30
ATOM     30  C   UNL     1      -4.171  13.365  20.680  0.00  0.00    +0.000 C 
BRANCH  30  31
ATOM     31  N   UNL     1      -4.007  14.779  20.353  0.00  0.00    +0.000 NA
ATOM     32  H   UNL     1      -3.032  15.048  20.472  0.00  0.00    +0.000 HD
ATOM     33  H   UNL     1      -4.520  15.338  21.036  0.00  0.00    +0.000 HD
ENDBRANCH  30  31
ENDBRANCH  29  30
ENDBRANCH  28  29
ENDBRANCH  24  28
ENDBRANCH  23  24
ENDBRANCH  22  23
ENDBRANCH  19  22
ENDBRANCH  18  19
ENDBRANCH   1  18
TORSDOF 25
ENDMDL
MODEL 7
REMARK VINA RESULT:      -5.0      5.223      9.595
REMARK  Name = 
REMARK  26 active torsions:
REMARK  status: ('A' for Active; 'I' for Inactive)
REMARK    1  A    between atoms: C_1  and  C_2
REMARK    2  A    between atoms: C_2  and  C_3
REMARK    3  A    between atoms: C_3  and  C_4
REMARK    4  A    between atoms: C_4  and  C_5
REMARK    5  A    between atoms: C_5  and  C_6
REMARK    6  A    between atoms: C_6  and  C_7
REMARK    7  A    between atoms: C_7  and  C_8
REMARK    8  A    between atoms: C_8  and  C_9
REMARK    9  A    between atoms: C_9  and  C_10
REMARK   10  A    between atoms: C_10  and  C_11
REMARK   11  A    between atoms: C_11  and  C_12
REMARK   12  A    between atoms: C_12  and  C_13
REMARK   13  A    between atoms: C_13  and  C_14
REMARK   14  A    between atoms: C_14  and  C_15
REMARK   15  A    between atoms: C_16  and  O_17
REMARK   16  A    between atoms: O_17  and  C_18
REMARK   17  A    between atoms: C_18  and  C_19
REMARK   18  A    between atoms: C_19  and  O_20
REMARK   19  A    between atoms: C_19  and  C_21
REMARK   20  A    between atoms: C_21  and  O_22
REMARK   21  A    between atoms: O_22  and  P_23
REMARK   22  A    between atoms: P_23  and  O_25
REMARK   23  A    between atoms: P_23  and  O_26
REMARK   24  A    between atoms: O_26  and  C_27
REMARK   25  A    between atoms: C_27  and  C_28
REMARK   26  A    between atoms: C_28  and  N_29
REMARK                            x       y       z     vdW  Elec       q    Type
REMARK                         _______ _______ _______ _____ _____    ______ ____
ROOT
ATOM      1  O   UNL     1       2.236   3.826  20.851  0.00  0.00    +0.000 OA
ENDROOT
BRANCH   1   3
ATOM      2  C   UNL     1       0.774   5.574  20.364  0.00  0.00    +0.000 C 
ATOM      3  C   UNL     1       1.017   4.262  20.427  0.00  0.00    +0.000 C 
BRANCH   2   4
ATOM      4  C   UNL     1       1.819   6.579  20.751  0.00  0.00    +0.000 C 
BRANCH   4   5
ATOM      5  C   UNL     1       1.342   8.031  20.649  0.00  0.00    +0.000 C 
BRANCH   5   6
ATOM      6  C   UNL     1       0.014   8.243  21.360  0.00  0.00    +0.000 C 
BRANCH   6   7
ATOM      7  C   UNL     1       0.142   9.314  22.434  0.00  0.00    +0.000 C 
BRANCH   7   8
ATOM      8  C   UNL     1       0.249  10.689  21.791  0.00  0.00    +0.000 C 
BRANCH   8   9
ATOM      9  C   UNL     1      -0.742  11.645  22.434  0.00  0.00    +0.000 C 
BRANCH   9  10
ATOM     10  C   UNL     1      -1.431  12.490  21.375  0.00  0.00    +0.000 C 
BRANCH  10  11
ATOM     11  C   UNL     1      -0.959  12.078  19.989  0.00  0.00    +0.000 C 
BRANCH  11  12
ATOM     12  C   UNL     1      -2.087  11.409  19.217  0.00  0.00    +0.000 C 
BRANCH  12  13
ATOM     13  C   UNL     1      -1.580  10.158  18.511  0.00  0.00    +0.000 C 
BRANCH  13  14
ATOM     14  C   UNL     1      -1.863  10.233  17.016  0.00  0.00    +0.000 C 
BRANCH  14  15
ATOM     15  C   UNL     1      -2.985  11.224  16.726  0.00  0.00    +0.000 C 
BRANCH  15  17
ATOM     16  C   UNL     1      -3.019  10.074  14.498  0.00  0.00    +0.000 C 
ATOM     17  C   UNL     1      -3.858  10.740  15.573  0.00  0.00    +0.000 C 
ENDBRANCH  15  17
ENDBRANCH  14  15
ENDBRANCH  13  14
ENDBRANCH  12  13
ENDBRANCH  11  12
ENDBRANCH  10  11
ENDBRANCH   9  10
ENDBRANCH   8   9
ENDBRANCH   7   8
ENDBRANCH   6   7
ENDBRANCH   5   6
ENDBRANCH   4   5
ENDBRANCH   2   4
ENDBRANCH   1   3
BRANCH   1  18
ATOM     18  C   UNL     1       2.778   2.767  20.068  0.00  0.00    +0.000 C 
BRANCH  18  19
ATOM     19  C   UNL     1       4.287   3.040  19.953  0.00  0.00    +0.000 C 
BRANCH  19  20
ATOM     20  O   UNL     1       4.975   1.768  19.987  0.00  0.00    +0.000 OA
ATOM     21  H   UNL     1       4.693   1.254  19.203  0.00  0.00    +0.000 HD
ENDBRANCH  19  20
BRANCH  19  22
ATOM     22  C   UNL     1       4.734   3.831  18.667  0.00  0.00    +0.000 C 
BRANCH  22  23
ATOM     23  O   UNL     1       6.106   4.183  18.662  0.00  0.00    +0.000 OA
BRANCH  23  24
ATOM     24  P   UNL     1       7.142   4.649  17.529  0.00  0.00    +0.000 P 
ATOM     25  O   UNL     1       8.488   4.053  17.848  0.00  0.00    +0.000 OA
BRANCH  24  26
ATOM     26  O   UNL     1       6.582   4.097  16.142  0.00  0.00    +0.000 OA
ATOM     27  H   UNL     1       5.991   3.333  16.227  0.00  0.00    +0.000 HD
ENDBRANCH  24  26
BRANCH  24  28
ATOM     28  O   UNL     1       7.184   6.263  17.332  0.00  0.00    +0.000 OA
BRANCH  28  29
ATOM     29  C   UNL     1       5.929   6.942  17.587  0.00  0.00    +0.000 C 
BRANCH  29  30
ATOM     30  C   UNL     1       4.771   6.890  16.546  0.00  0.00    +0.000 C 
BRANCH  30  31
ATOM     31  N   UNL     1       5.125   6.627  15.154  0.00  0.00    +0.000 NA
ATOM     32  H   UNL     1       6.115   6.818  15.009  0.00  0.00    +0.000 HD
ATOM     33  H   UNL     1       4.637   7.294  14.555  0.00  0.00    +0.000 HD
ENDBRANCH  30  31
ENDBRANCH  29  30
ENDBRANCH  28  29
ENDBRANCH  24  28
ENDBRANCH  23  24
ENDBRANCH  22  23
ENDBRANCH  19  22
ENDBRANCH  18  19
ENDBRANCH   1  18
TORSDOF 25
ENDMDL
MODEL 8
REMARK VINA RESULT:      -5.0      4.920      8.739
REMARK  Name = 
REMARK  26 active torsions:
REMARK  status: ('A' for Active; 'I' for Inactive)
REMARK    1  A    between atoms: C_1  and  C_2
REMARK    2  A    between atoms: C_2  and  C_3
REMARK    3  A    between atoms: C_3  and  C_4
REMARK    4  A    between atoms: C_4  and  C_5
REMARK    5  A    between atoms: C_5  and  C_6
REMARK    6  A    between atoms: C_6  and  C_7
REMARK    7  A    between atoms: C_7  and  C_8
REMARK    8  A    between atoms: C_8  and  C_9
REMARK    9  A    between atoms: C_9  and  C_10
REMARK   10  A    between atoms: C_10  and  C_11
REMARK   11  A    between atoms: C_11  and  C_12
REMARK   12  A    between atoms: C_12  and  C_13
REMARK   13  A    between atoms: C_13  and  C_14
REMARK   14  A    between atoms: C_14  and  C_15
REMARK   15  A    between atoms: C_16  and  O_17
REMARK   16  A    between atoms: O_17  and  C_18
REMARK   17  A    between atoms: C_18  and  C_19
REMARK   18  A    between atoms: C_19  and  O_20
REMARK   19  A    between atoms: C_19  and  C_21
REMARK   20  A    between atoms: C_21  and  O_22
REMARK   21  A    between atoms: O_22  and  P_23
REMARK   22  A    between atoms: P_23  and  O_25
REMARK   23  A    between atoms: P_23  and  O_26
REMARK   24  A    between atoms: O_26  and  C_27
REMARK   25  A    between atoms: C_27  and  C_28
REMARK   26  A    between atoms: C_28  and  N_29
REMARK                            x       y       z     vdW  Elec       q    Type
REMARK                         _______ _______ _______ _____ _____    ______ ____
ROOT
ATOM      1  O   UNL     1       6.904   4.577  18.531  0.00  0.00    +0.000 OA
ENDROOT
BRANCH   1   3
ATOM      2  C   UNL     1       7.924   6.672  18.518  0.00  0.00    +0.000 C 
ATOM      3  C   UNL     1       7.898   5.408  18.950  0.00  0.00    +0.000 C 
BRANCH   2   4
ATOM      4  C   UNL     1       6.877   7.194  17.577  0.00  0.00    +0.000 C 
BRANCH   4   5
ATOM      5  C   UNL     1       6.534   6.225  16.441  0.00  0.00    +0.000 C 
BRANCH   5   6
ATOM      6  C   UNL     1       5.148   6.488  15.870  0.00  0.00    +0.000 C 
BRANCH   6   7
ATOM      7  C   UNL     1       4.334   7.365  16.812  0.00  0.00    +0.000 C 
BRANCH   7   8
ATOM      8  C   UNL     1       3.421   6.503  17.670  0.00  0.00    +0.000 C 
BRANCH   8   9
ATOM      9  C   UNL     1       2.468   7.381  18.465  0.00  0.00    +0.000 C 
BRANCH   9  10
ATOM     10  C   UNL     1       2.189   8.675  17.719  0.00  0.00    +0.000 C 
BRANCH  10  11
ATOM     11  C   UNL     1       1.645   9.724  18.677  0.00  0.00    +0.000 C 
BRANCH  11  12
ATOM     12  C   UNL     1       0.208  10.079  18.322  0.00  0.00    +0.000 C 
BRANCH  12  13
ATOM     13  C   UNL     1      -0.653  10.131  19.577  0.00  0.00    +0.000 C 
BRANCH  13  14
ATOM     14  C   UNL     1      -0.331  11.373  20.399  0.00  0.00    +0.000 C 
BRANCH  14  15
ATOM     15  C   UNL     1      -1.576  11.885  21.116  0.00  0.00    +0.000 C 
BRANCH  15  17
ATOM     16  C   UNL     1      -2.687  12.212  23.340  0.00  0.00    +0.000 C 
ATOM     17  C   UNL     1      -1.498  11.609  22.614  0.00  0.00    +0.000 C 
ENDBRANCH  15  17
ENDBRANCH  14  15
ENDBRANCH  13  14
ENDBRANCH  12  13
ENDBRANCH  11  12
ENDBRANCH  10  11
ENDBRANCH   9  10
ENDBRANCH   8   9
ENDBRANCH   7   8
ENDBRANCH   6   7
ENDBRANCH   5   6
ENDBRANCH   4   5
ENDBRANCH   2   4
ENDBRANCH   1   3
BRANCH   1  18
ATOM     18  C   UNL     1       5.844   4.421  19.469  0.00  0.00    +0.000 C 
BRANCH  18  19
ATOM     19  C   UNL     1       4.725   3.662  18.736  0.00  0.00    +0.000 C 
BRANCH  19  20
ATOM     20  O   UNL     1       5.221   3.286  17.430  0.00  0.00    +0.000 OA
ATOM     21  H   UNL     1       4.592   3.627  16.762  0.00  0.00    +0.000 HD
ENDBRANCH  19  20
BRANCH  19  22
ATOM     22  C   UNL     1       4.189   2.376  19.471  0.00  0.00    +0.000 C 
BRANCH  22  23
ATOM     23  O   UNL     1       2.853   2.043  19.137  0.00  0.00    +0.000 OA
BRANCH  23  24
ATOM     24  P   UNL     1       1.685   2.774  18.316  0.00  0.00    +0.000 P 
ATOM     25  O   UNL     1       2.131   2.915  16.884  0.00  0.00    +0.000 OA
BRANCH  24  26
ATOM     26  O   UNL     1       0.396   1.843  18.429  0.00  0.00    +0.000 OA
ATOM     27  H   UNL     1       0.395   1.255  19.200  0.00  0.00    +0.000 HD
ENDBRANCH  24  26
BRANCH  24  28
ATOM     28  O   UNL     1       1.223   4.183  18.987  0.00  0.00    +0.000 OA
BRANCH  28  29
ATOM     29  C   UNL     1       0.905   4.110  20.400  0.00  0.00    +0.000 C 
BRANCH  29  30
ATOM     30  C   UNL     1       2.032   4.183  21.473  0.00  0.00    +0.000 C 
BRANCH  30  31
ATOM     31  N   UNL     1       2.282   2.988  22.273  0.00  0.00    +0.000 NA
ATOM     32  H   UNL     1       1.754   2.203  21.894  0.00  0.00    +0.000 HD
ATOM     33  H   UNL     1       1.904   3.131  23.211  0.00  0.00    +0.000 HD
ENDBRANCH  30  31
ENDBRANCH  29  30
ENDBRANCH  28  29
ENDBRANCH  24  28
ENDBRANCH  23  24
ENDBRANCH  22  23
ENDBRANCH  19  22
ENDBRANCH  18  19
ENDBRANCH   1  18
TORSDOF 25
ENDMDL
MODEL 9
REMARK VINA RESULT:      -4.9      5.646      9.327
REMARK  Name = 
REMARK  26 active torsions:
REMARK  status: ('A' for Active; 'I' for Inactive)
REMARK    1  A    between atoms: C_1  and  C_2
REMARK    2  A    between atoms: C_2  and  C_3
REMARK    3  A    between atoms: C_3  and  C_4
REMARK    4  A    between atoms: C_4  and  C_5
REMARK    5  A    between atoms: C_5  and  C_6
REMARK    6  A    between atoms: C_6  and  C_7
REMARK    7  A    between atoms: C_7  and  C_8
REMARK    8  A    between atoms: C_8  and  C_9
REMARK    9  A    between atoms: C_9  and  C_10
REMARK   10  A    between atoms: C_10  and  C_11
REMARK   11  A    between atoms: C_11  and  C_12
REMARK   12  A    between atoms: C_12  and  C_13
REMARK   13  A    between atoms: C_13  and  C_14
REMARK   14  A    between atoms: C_14  and  C_15
REMARK   15  A    between atoms: C_16  and  O_17
REMARK   16  A    between atoms: O_17  and  C_18
REMARK   17  A    between atoms: C_18  and  C_19
REMARK   18  A    between atoms: C_19  and  O_20
REMARK   19  A    between atoms: C_19  and  C_21
REMARK   20  A    between atoms: C_21  and  O_22
REMARK   21  A    between atoms: O_22  and  P_23
REMARK   22  A    between atoms: P_23  and  O_25
REMARK   23  A    between atoms: P_23  and  O_26
REMARK   24  A    between atoms: O_26  and  C_27
REMARK   25  A    between atoms: C_27  and  C_28
REMARK   26  A    between atoms: C_28  and  N_29
REMARK                            x       y       z     vdW  Elec       q    Type
REMARK                         _______ _______ _______ _____ _____    ______ ____
ROOT
ATOM      1  O   UNL     1       5.595   4.365  17.558  0.00  0.00    +0.000 OA
ENDROOT
BRANCH   1   3
ATOM      2  C   UNL     1       4.798   3.693  19.642  0.00  0.00    +0.000 C 
ATOM      3  C   UNL     1       5.540   4.527  18.909  0.00  0.00    +0.000 C 
BRANCH   2   4
ATOM      4  C   UNL     1       4.020   2.579  19.004  0.00  0.00    +0.000 C 
BRANCH   4   5
ATOM      5  C   UNL     1       2.594   2.438  19.544  0.00  0.00    +0.000 C 
BRANCH   5   6
ATOM      6  C   UNL     1       1.657   3.480  18.951  0.00  0.00    +0.000 C 
BRANCH   6   7
ATOM      7  C   UNL     1       0.845   4.159  20.045  0.00  0.00    +0.000 C 
BRANCH   7   8
ATOM      8  C   UNL     1       1.724   5.128  20.822  0.00  0.00    +0.000 C 
BRANCH   8   9
ATOM      9  C   UNL     1       1.872   6.431  20.053  0.00  0.00    +0.000 C 
BRANCH   9  10
ATOM     10  C   UNL     1       1.505   7.614  20.934  0.00  0.00    +0.000 C 
BRANCH  10  11
ATOM     11  C   UNL     1       1.466   8.890  20.107  0.00  0.00    +0.000 C 
BRANCH  11  12
ATOM     12  C   UNL     1       0.059   9.468  20.083  0.00  0.00    +0.000 C 
BRANCH  12  13
ATOM     13  C   UNL     1      -0.046  10.571  19.037  0.00  0.00    +0.000 C 
BRANCH  13  14
ATOM     14  C   UNL     1      -0.849  10.096  17.833  0.00  0.00    +0.000 C 
BRANCH  14  15
ATOM     15  C   UNL     1      -2.346  10.213  18.101  0.00  0.00    +0.000 C 
BRANCH  15  17
ATOM     16  C   UNL     1      -2.753  10.651  15.665  0.00  0.00    +0.000 C 
ATOM     17  C   UNL     1      -3.155   9.818  16.870  0.00  0.00    +0.000 C 
ENDBRANCH  15  17
ENDBRANCH  14  15
ENDBRANCH  13  14
ENDBRANCH  12  13
ENDBRANCH  11  12
ENDBRANCH  10  11
ENDBRANCH   9  10
ENDBRANCH   8   9
ENDBRANCH   7   8
ENDBRANCH   6   7
ENDBRANCH   5   6
ENDBRANCH   4   5
ENDBRANCH   2   4
ENDBRANCH   1   3
BRANCH   1  18
ATOM     18  C   UNL     1       4.823   5.314  16.828  0.00  0.00    +0.000 C 
BRANCH  18  19
ATOM     19  C   UNL     1       5.268   5.198  15.361  0.00  0.00    +0.000 C 
BRANCH  19  20
ATOM     20  O   UNL     1       5.403   6.536  14.828  0.00  0.00    +0.000 OA
ATOM     21  H   UNL     1       5.548   7.145  15.580  0.00  0.00    +0.000 HD
ENDBRANCH  19  20
BRANCH  19  22
ATOM     22  C   UNL     1       6.612   4.413  15.123  0.00  0.00    +0.000 C 
BRANCH  22  23
ATOM     23  O   UNL     1       6.535   3.451  14.087  0.00  0.00    +0.000 OA
BRANCH  23  24
ATOM     24  P   UNL     1       6.221   3.514  12.515  0.00  0.00    +0.000 P 
ATOM     25  O   UNL     1       7.169   4.501  11.884  0.00  0.00    +0.000 OA
BRANCH  24  26
ATOM     26  O   UNL     1       6.455   2.045  11.942  0.00  0.00    +0.000 OA
ATOM     27  H   UNL     1       7.383   1.831  11.761  0.00  0.00    +0.000 HD
ENDBRANCH  24  26
BRANCH  24  28
ATOM     28  O   UNL     1       4.658   3.828  12.191  0.00  0.00    +0.000 OA
BRANCH  28  29
ATOM     29  C   UNL     1       4.108   3.092  11.070  0.00  0.00    +0.000 C 
BRANCH  29  30
ATOM     30  C   UNL     1       2.869   3.633  10.295  0.00  0.00    +0.000 C 
BRANCH  30  31
ATOM     31  N   UNL     1       3.100   4.226   8.980  0.00  0.00    +0.000 NA
ATOM     32  H   UNL     1       2.207   4.426   8.532  0.00  0.00    +0.000 HD
ATOM     33  H   UNL     1       3.547   3.533   8.378  0.00  0.00    +0.000 HD
ENDBRANCH  30  31
ENDBRANCH  29  30
ENDBRANCH  28  29
ENDBRANCH  24  28
ENDBRANCH  23  24
ENDBRANCH  22  23
ENDBRANCH  19  22
ENDBRANCH  18  19
ENDBRANCH   1  18
TORSDOF 25
ENDMDL
