MODEL 1
REMARK VINA RESULT:      -7.8      0.000      0.000
REMARK  Name = 
REMARK  5 active torsions:
REMARK  status: ('A' for Active; 'I' for Inactive)
REMARK    1  A    between atoms: C_1  and  C_2
REMARK    2  A    between atoms: C_6  and  S_7
REMARK    3  A    between atoms: S_7  and  N_10
REMARK    4  A    between atoms: N_10  and  N_11
REMARK    5  A    between atoms: C_12  and  C_13
REMARK                            x       y       z     vdW  Elec       q    Type
REMARK                         _______ _______ _______ _____ _____    ______ ____
ROOT
ATOM      1  N   UNL     1       2.622   6.164  20.302  0.00  0.00    +0.000 N 
ATOM      2  H   UNL     1       3.566   6.508  20.493  0.00  0.00    +0.000 HD
ENDROOT
BRANCH   1   3
ATOM      3  S   UNL     1       2.510   4.668  19.477  0.00  0.00    +0.000 S 
ATOM      4  O   UNL     1       1.165   4.543  19.022  0.00  0.00    +0.000 OA
ATOM      5  O   UNL     1       3.062   3.659  20.398  0.00  0.00    +0.000 OA
BRANCH   3  11
ATOM      6  C   UNL     1       6.285   4.872  14.680  0.00  0.00    +0.000 C 
ATOM      7  C   UNL     1       5.349   4.824  15.851  0.00  0.00    +0.000 A 
ATOM      8  C   UNL     1       4.979   3.614  16.441  0.00  0.00    +0.000 A 
ATOM      9  C   UNL     1       4.111   3.587  17.544  0.00  0.00    +0.000 A 
ATOM     10 CL   UNL     1       3.755   2.002  18.152  0.00  0.00    +0.000 Cl
ATOM     11  C   UNL     1       3.611   4.772  18.097  0.00  0.00    +0.000 A 
ATOM     12  C   UNL     1       3.953   5.992  17.488  0.00  0.00    +0.000 A 
ATOM     13 CL   UNL     1       3.419   7.573  17.957  0.00  0.00    +0.000 Cl
ATOM     14  C   UNL     1       4.826   6.000  16.380  0.00  0.00    +0.000 A 
ENDBRANCH   3  11
ENDBRANCH   1   3
BRANCH   1  15
ATOM     15  N   UNL     1       1.452   6.868  20.699  0.00  0.00    +0.000 NA
ATOM     16  C   UNL     1       1.617   8.146  20.844  0.00  0.00    +0.000 C 
BRANCH  16  17
ATOM     17  C   UNL     1       0.506   8.993  21.302  0.00  0.00    +0.000 A 
ATOM     18  C   UNL     1       0.010   8.863  22.616  0.00  0.00    +0.000 A 
ATOM     19  C   UNL     1      -0.643   9.940  23.214  0.00  0.00    +0.000 A 
ATOM     20  C   UNL     1      -0.746  11.078  22.440  0.00  0.00    +0.000 A 
ATOM     21  C   UNL     1      -0.566  11.073  21.074  0.00  0.00    +0.000 A 
ATOM     22  C   UNL     1       0.139  10.060  20.479  0.00  0.00    +0.000 A 
ATOM     23  O   UNL     1      -0.626  12.332  20.540  0.00  0.00    +0.000 OA
ATOM     24  C   UNL     1      -0.088  12.991  21.692  0.00  0.00    +0.000 C 
ATOM     25  O   UNL     1      -0.578  12.365  22.909  0.00  0.00    +0.000 OA
ENDBRANCH  16  17
ENDBRANCH   1  15
TORSDOF 4
ENDMDL
MODEL 2
REMARK VINA RESULT:      -7.7      5.598      9.567
REMARK  Name = 
REMARK  5 active torsions:
REMARK  status: ('A' for Active; 'I' for Inactive)
REMARK    1  A    between atoms: C_1  and  C_2
REMARK    2  A    between atoms: C_6  and  S_7
REMARK    3  A    between atoms: S_7  and  N_10
REMARK    4  A    between atoms: N_10  and  N_11
REMARK    5  A    between atoms: C_12  and  C_13
REMARK                            x       y       z     vdW  Elec       q    Type
REMARK                         _______ _______ _______ _____ _____    ______ ____
ROOT
ATOM      1  N   UNL     1       7.297   4.279  17.874  0.00  0.00    +0.000 N 
ATOM      2  H   UNL     1       7.751   3.512  18.375  0.00  0.00    +0.000 HD
ENDROOT
BRANCH   1   3
ATOM      3  S   UNL     1       6.353   5.351  18.817  0.00  0.00    +0.000 S 
ATOM      4  O   UNL     1       6.408   6.624  18.180  0.00  0.00    +0.000 OA
ATOM      5  O   UNL     1       6.844   5.208  20.199  0.00  0.00    +0.000 OA
BRANCH   3  11
ATOM      6  C   UNL     1       0.610   3.286  18.579  0.00  0.00    +0.000 C 
ATOM      7  C   UNL     1       2.024   3.786  18.630  0.00  0.00    +0.000 A 
ATOM      8  C   UNL     1       2.396   4.987  18.023  0.00  0.00    +0.000 A 
ATOM      9  C   UNL     1       3.721   5.446  18.090  0.00  0.00    +0.000 A 
ATOM     10 CL   UNL     1       4.010   6.954  17.284  0.00  0.00    +0.000 Cl
ATOM     11  C   UNL     1       4.700   4.725  18.784  0.00  0.00    +0.000 A 
ATOM     12  C   UNL     1       4.339   3.498  19.369  0.00  0.00    +0.000 A 
ATOM     13 CL   UNL     1       5.381   2.412  20.228  0.00  0.00    +0.000 Cl
ATOM     14  C   UNL     1       3.003   3.052  19.292  0.00  0.00    +0.000 A 
ENDBRANCH   3  11
ENDBRANCH   1   3
BRANCH   1  15
ATOM     15  N   UNL     1       7.437   4.469  16.471  0.00  0.00    +0.000 NA
ATOM     16  C   UNL     1       6.373   4.196  15.783  0.00  0.00    +0.000 C 
BRANCH  16  17
ATOM     17  C   UNL     1       6.388   4.298  14.316  0.00  0.00    +0.000 A 
ATOM     18  C   UNL     1       7.415   5.013  13.666  0.00  0.00    +0.000 A 
ATOM     19  C   UNL     1       7.737   4.706  12.344  0.00  0.00    +0.000 A 
ATOM     20  C   UNL     1       6.996   3.691  11.772  0.00  0.00    +0.000 A 
ATOM     21  C   UNL     1       5.800   3.251  12.295  0.00  0.00    +0.000 A 
ATOM     22  C   UNL     1       5.502   3.480  13.612  0.00  0.00    +0.000 A 
ATOM     23  O   UNL     1       5.300   2.177  11.609  0.00  0.00    +0.000 OA
ATOM     24  C   UNL     1       6.579   1.640  11.252  0.00  0.00    +0.000 C 
ATOM     25  O   UNL     1       7.512   2.712  10.947  0.00  0.00    +0.000 OA
ENDBRANCH  16  17
ENDBRANCH   1  15
TORSDOF 4
ENDMDL
MODEL 3
REMARK VINA RESULT:      -7.6      4.282      9.484
REMARK  Name = 
REMARK  5 active torsions:
REMARK  status: ('A' for Active; 'I' for Inactive)
REMARK    1  A    between atoms: C_1  and  C_2
REMARK    2  A    between atoms: C_6  and  S_7
REMARK    3  A    between atoms: S_7  and  N_10
REMARK    4  A    between atoms: N_10  and  N_11
REMARK    5  A    between atoms: C_12  and  C_13
REMARK                            x       y       z     vdW  Elec       q    Type
REMARK                         _______ _______ _______ _____ _____    ______ ____
ROOT
ATOM      1  N   UNL     1       5.471   4.025  17.624  0.00  0.00    +0.000 N 
ATOM      2  H   UNL     1       6.141   4.633  18.103  0.00  0.00    +0.000 HD
ENDROOT
BRANCH   1   3
ATOM      3  S   UNL     1       4.249   3.327  18.597  0.00  0.00    +0.000 S 
ATOM      4  O   UNL     1       4.905   2.614  19.642  0.00  0.00    +0.000 OA
ATOM      5  O   UNL     1       3.362   2.603  17.669  0.00  0.00    +0.000 OA
BRANCH   3  11
ATOM      6  C   UNL     1       0.999   7.877  21.056  0.00  0.00    +0.000 C 
ATOM      7  C   UNL     1       1.807   6.763  20.457  0.00  0.00    +0.000 A 
ATOM      8  C   UNL     1       1.736   5.461  20.954  0.00  0.00    +0.000 A 
ATOM      9  C   UNL     1       2.489   4.427  20.375  0.00  0.00    +0.000 A 
ATOM     10 CL   UNL     1       2.283   2.873  21.115  0.00  0.00    +0.000 Cl
ATOM     11  C   UNL     1       3.314   4.669  19.269  0.00  0.00    +0.000 A 
ATOM     12  C   UNL     1       3.416   5.984  18.784  0.00  0.00    +0.000 A 
ATOM     13 CL   UNL     1       4.405   6.534  17.472  0.00  0.00    +0.000 Cl
ATOM     14  C   UNL     1       2.652   7.010  19.379  0.00  0.00    +0.000 A 
ENDBRANCH   3  11
ENDBRANCH   1   3
BRANCH   1  15
ATOM     15  N   UNL     1       5.530   3.768  16.227  0.00  0.00    +0.000 NA
ATOM     16  C   UNL     1       6.186   4.653  15.544  0.00  0.00    +0.000 C 
BRANCH  16  17
ATOM     17  C   UNL     1       6.284   4.543  14.081  0.00  0.00    +0.000 A 
ATOM     18  C   UNL     1       7.420   5.037  13.408  0.00  0.00    +0.000 A 
ATOM     19  C   UNL     1       7.765   4.511  12.163  0.00  0.00    +0.000 A 
ATOM     20  C   UNL     1       6.935   3.516  11.687  0.00  0.00    +0.000 A 
ATOM     21  C   UNL     1       5.670   3.293  12.187  0.00  0.00    +0.000 A 
ATOM     22  C   UNL     1       5.339   3.739  13.439  0.00  0.00    +0.000 A 
ATOM     23  O   UNL     1       5.077   2.196  11.621  0.00  0.00    +0.000 OA
ATOM     24  C   UNL     1       6.297   1.472  11.424  0.00  0.00    +0.000 C 
ATOM     25  O   UNL     1       7.367   2.377  11.037  0.00  0.00    +0.000 OA
ENDBRANCH  16  17
ENDBRANCH   1  15
TORSDOF 4
ENDMDL
MODEL 4
REMARK VINA RESULT:      -7.6      2.417      3.317
REMARK  Name = 
REMARK  5 active torsions:
REMARK  status: ('A' for Active; 'I' for Inactive)
REMARK    1  A    between atoms: C_1  and  C_2
REMARK    2  A    between atoms: C_6  and  S_7
REMARK    3  A    between atoms: S_7  and  N_10
REMARK    4  A    between atoms: N_10  and  N_11
REMARK    5  A    between atoms: C_12  and  C_13
REMARK                            x       y       z     vdW  Elec       q    Type
REMARK                         _______ _______ _______ _____ _____    ______ ____
ROOT
ATOM      1  N   UNL     1       3.511   4.890  19.420  0.00  0.00    +0.000 N 
ATOM      2  H   UNL     1       2.773   4.281  19.782  0.00  0.00    +0.000 HD
ENDROOT
BRANCH   1   3
ATOM      3  S   UNL     1       5.065   4.191  19.263  0.00  0.00    +0.000 S 
ATOM      4  O   UNL     1       4.964   2.845  19.720  0.00  0.00    +0.000 OA
ATOM      5  O   UNL     1       5.992   5.118  19.936  0.00  0.00    +0.000 OA
BRANCH   3  11
ATOM      6  C   UNL     1       6.582   4.288  13.348  0.00  0.00    +0.000 C 
ATOM      7  C   UNL     1       6.210   4.253  14.801  0.00  0.00    +0.000 A 
ATOM      8  C   UNL     1       7.133   4.570  15.799  0.00  0.00    +0.000 A 
ATOM      9  C   UNL     1       6.766   4.543  17.154  0.00  0.00    +0.000 A 
ATOM     10 CL   UNL     1       8.033   4.963  18.260  0.00  0.00    +0.000 Cl
ATOM     11  C   UNL     1       5.459   4.221  17.540  0.00  0.00    +0.000 A 
ATOM     12  C   UNL     1       4.533   3.869  16.543  0.00  0.00    +0.000 A 
ATOM     13 CL   UNL     1       2.886   3.386  16.779  0.00  0.00    +0.000 Cl
ATOM     14  C   UNL     1       4.920   3.901  15.186  0.00  0.00    +0.000 A 
ENDBRANCH   3  11
ENDBRANCH   1   3
BRANCH   1  15
ATOM     15  N   UNL     1       3.277   6.243  19.050  0.00  0.00    +0.000 NA
ATOM     16  C   UNL     1       2.378   6.847  19.762  0.00  0.00    +0.000 C 
BRANCH  16  17
ATOM     17  C   UNL     1       1.997   8.235  19.459  0.00  0.00    +0.000 A 
ATOM     18  C   UNL     1       2.317   8.800  18.207  0.00  0.00    +0.000 A 
ATOM     19  C   UNL     1       1.558   9.864  17.719  0.00  0.00    +0.000 A 
ATOM     20  C   UNL     1       0.523  10.279  18.533  0.00  0.00    +0.000 A 
ATOM     21  C   UNL     1       0.442   9.950  19.868  0.00  0.00    +0.000 A 
ATOM     22  C   UNL     1       1.123   8.863  20.349  0.00  0.00    +0.000 A 
ATOM     23  O   UNL     1      -0.718  10.398  20.441  0.00  0.00    +0.000 OA
ATOM     24  C   UNL     1      -1.510  10.273  19.255  0.00  0.00    +0.000 C 
ATOM     25  O   UNL     1      -0.731  10.643  18.084  0.00  0.00    +0.000 OA
ENDBRANCH  16  17
ENDBRANCH   1  15
TORSDOF 4
ENDMDL
MODEL 5
REMARK VINA RESULT:      -7.6      7.524     10.085
REMARK  Name = 
REMARK  5 active torsions:
REMARK  status: ('A' for Active; 'I' for Inactive)
REMARK    1  A    between atoms: C_1  and  C_2
REMARK    2  A    between atoms: C_6  and  S_7
REMARK    3  A    between atoms: S_7  and  N_10
REMARK    4  A    between atoms: N_10  and  N_11
REMARK    5  A    between atoms: C_12  and  C_13
REMARK                            x       y       z     vdW  Elec       q    Type
REMARK                         _______ _______ _______ _____ _____    ______ ____
ROOT
ATOM      1  N   UNL     1       9.081  10.669  18.316  0.00  0.00    +0.000 N 
ATOM      2  H   UNL     1       8.807  11.170  17.467  0.00  0.00    +0.000 HD
ENDROOT
BRANCH   1   3
ATOM      3  S   UNL     1      10.030  11.542  19.441  0.00  0.00    +0.000 S 
ATOM      4  O   UNL     1      11.394  11.324  19.093  0.00  0.00    +0.000 OA
ATOM      5  O   UNL     1       9.546  11.139  20.774  0.00  0.00    +0.000 OA
BRANCH   3  11
ATOM      6  C   UNL     1       8.627  17.421  18.558  0.00  0.00    +0.000 C 
ATOM      7  C   UNL     1       8.961  15.974  18.772  0.00  0.00    +0.000 A 
ATOM      8  C   UNL     1       9.716  15.254  17.844  0.00  0.00    +0.000 A 
ATOM      9  C   UNL     1      10.030  13.903  18.066  0.00  0.00    +0.000 A 
ATOM     10 CL   UNL     1      10.974  13.161  16.814  0.00  0.00    +0.000 Cl
ATOM     11  C   UNL     1       9.615  13.248  19.231  0.00  0.00    +0.000 A 
ATOM     12  C   UNL     1       8.826  13.958  20.154  0.00  0.00    +0.000 A 
ATOM     13 CL   UNL     1       8.156  13.349  21.631  0.00  0.00    +0.000 Cl
ATOM     14  C   UNL     1       8.521  15.314  19.915  0.00  0.00    +0.000 A 
ENDBRANCH   3  11
ENDBRANCH   1   3
BRANCH   1  15
ATOM     15  N   UNL     1       8.697   9.324  18.572  0.00  0.00    +0.000 NA
ATOM     16  C   UNL     1       7.980   8.782  17.638  0.00  0.00    +0.000 C 
BRANCH  16  17
ATOM     17  C   UNL     1       7.469   7.412  17.792  0.00  0.00    +0.000 A 
ATOM     18  C   UNL     1       8.017   6.556  18.770  0.00  0.00    +0.000 A 
ATOM     19  C   UNL     1       7.252   5.501  19.267  0.00  0.00    +0.000 A 
ATOM     20  C   UNL     1       5.981   5.388  18.742  0.00  0.00    +0.000 A 
ATOM     21  C   UNL     1       5.597   6.006  17.572  0.00  0.00    +0.000 A 
ATOM     22  C   UNL     1       6.294   7.091  17.109  0.00  0.00    +0.000 A 
ATOM     23  O   UNL     1       4.267   5.823  17.303  0.00  0.00    +0.000 OA
ATOM     24  C   UNL     1       3.860   5.773  18.675  0.00  0.00    +0.000 C 
ATOM     25  O   UNL     1       4.854   5.075  19.474  0.00  0.00    +0.000 OA
ENDBRANCH  16  17
ENDBRANCH   1  15
TORSDOF 4
ENDMDL
MODEL 6
REMARK VINA RESULT:      -7.6      2.001      2.877
REMARK  Name = 
REMARK  5 active torsions:
REMARK  status: ('A' for Active; 'I' for Inactive)
REMARK    1  A    between atoms: C_1  and  C_2
REMARK    2  A    between atoms: C_6  and  S_7
REMARK    3  A    between atoms: S_7  and  N_10
REMARK    4  A    between atoms: N_10  and  N_11
REMARK    5  A    between atoms: C_12  and  C_13
REMARK                            x       y       z     vdW  Elec       q    Type
REMARK                         _______ _______ _______ _____ _____    ______ ____
ROOT
ATOM      1  N   UNL     1       3.425   5.087  19.331  0.00  0.00    +0.000 N 
ATOM      2  H   UNL     1       2.635   4.480  19.097  0.00  0.00    +0.000 HD
ENDROOT
BRANCH   1   3
ATOM      3  S   UNL     1       4.981   4.382  19.229  0.00  0.00    +0.000 S 
ATOM      4  O   UNL     1       4.877   3.065  19.762  0.00  0.00    +0.000 OA
ATOM      5  O   UNL     1       5.901   5.348  19.856  0.00  0.00    +0.000 OA
BRANCH   3  11
ATOM      6  C   UNL     1       6.550   4.138  13.332  0.00  0.00    +0.000 C 
ATOM      7  C   UNL     1       6.165   4.187  14.781  0.00  0.00    +0.000 A 
ATOM      8  C   UNL     1       7.081   4.557  15.767  0.00  0.00    +0.000 A 
ATOM      9  C   UNL     1       6.701   4.609  17.118  0.00  0.00    +0.000 A 
ATOM     10 CL   UNL     1       7.960   5.088  18.210  0.00  0.00    +0.000 Cl
ATOM     11  C   UNL     1       5.390   4.313  17.511  0.00  0.00    +0.000 A 
ATOM     12  C   UNL     1       4.472   3.907  16.527  0.00  0.00    +0.000 A 
ATOM     13 CL   UNL     1       2.821   3.442  16.775  0.00  0.00    +0.000 Cl
ATOM     14  C   UNL     1       4.871   3.860  15.174  0.00  0.00    +0.000 A 
ENDBRANCH   3  11
ENDBRANCH   1   3
BRANCH   1  15
ATOM     15  N   UNL     1       3.262   6.447  19.713  0.00  0.00    +0.000 NA
ATOM     16  C   UNL     1       2.045   6.780  20.011  0.00  0.00    +0.000 C 
BRANCH  16  17
ATOM     17  C   UNL     1       1.720   8.167  20.374  0.00  0.00    +0.000 A 
ATOM     18  C   UNL     1       1.207   9.052  19.403  0.00  0.00    +0.000 A 
ATOM     19  C   UNL     1       0.441  10.146  19.806  0.00  0.00    +0.000 A 
ATOM     20  C   UNL     1       0.244  10.266  21.167  0.00  0.00    +0.000 A 
ATOM     21  C   UNL     1       1.018   9.606  22.096  0.00  0.00    +0.000 A 
ATOM     22  C   UNL     1       1.718   8.485  21.734  0.00  0.00    +0.000 A 
ATOM     23  O   UNL     1       0.575   9.809  23.375  0.00  0.00    +0.000 OA
ATOM     24  C   UNL     1      -0.807   9.929  23.020  0.00  0.00    +0.000 C 
ATOM     25  O   UNL     1      -0.946  10.639  21.758  0.00  0.00    +0.000 OA
ENDBRANCH  16  17
ENDBRANCH   1  15
TORSDOF 4
ENDMDL
MODEL 7
REMARK VINA RESULT:      -7.5      2.396      3.137
REMARK  Name = 
REMARK  5 active torsions:
REMARK  status: ('A' for Active; 'I' for Inactive)
REMARK    1  A    between atoms: C_1  and  C_2
REMARK    2  A    between atoms: C_6  and  S_7
REMARK    3  A    between atoms: S_7  and  N_10
REMARK    4  A    between atoms: N_10  and  N_11
REMARK    5  A    between atoms: C_12  and  C_13
REMARK                            x       y       z     vdW  Elec       q    Type
REMARK                         _______ _______ _______ _____ _____    ______ ____
ROOT
ATOM      1  N   UNL     1       3.280   4.833  19.178  0.00  0.00    +0.000 N 
ATOM      2  H   UNL     1       2.542   4.172  19.435  0.00  0.00    +0.000 HD
ENDROOT
BRANCH   1   3
ATOM      3  S   UNL     1       4.882   4.231  19.206  0.00  0.00    +0.000 S 
ATOM      4  O   UNL     1       4.816   2.894  19.694  0.00  0.00    +0.000 OA
ATOM      5  O   UNL     1       5.675   5.234  19.940  0.00  0.00    +0.000 OA
BRANCH   3  11
ATOM      6  C   UNL     1       6.695   4.257  13.374  0.00  0.00    +0.000 C 
ATOM      7  C   UNL     1       6.249   4.262  14.807  0.00  0.00    +0.000 A 
ATOM      8  C   UNL     1       4.978   3.816  15.176  0.00  0.00    +0.000 A 
ATOM      9  C   UNL     1       4.580   3.816  16.523  0.00  0.00    +0.000 A 
ATOM     10 CL   UNL     1       2.972   3.232  16.806  0.00  0.00    +0.000 Cl
ATOM     11  C   UNL     1       5.451   4.241  17.533  0.00  0.00    +0.000 A 
ATOM     12  C   UNL     1       6.720   4.722  17.164  0.00  0.00    +0.000 A 
ATOM     13 CL   UNL     1       7.942   5.346  18.223  0.00  0.00    +0.000 Cl
ATOM     14  C   UNL     1       7.104   4.715  15.806  0.00  0.00    +0.000 A 
ENDBRANCH   3  11
ENDBRANCH   1   3
BRANCH   1  15
ATOM     15  N   UNL     1       3.011   6.179  18.806  0.00  0.00    +0.000 NA
ATOM     16  C   UNL     1       2.388   6.871  19.707  0.00  0.00    +0.000 C 
BRANCH  16  17
ATOM     17  C   UNL     1       1.998   8.264  19.439  0.00  0.00    +0.000 A 
ATOM     18  C   UNL     1       2.311   8.861  18.201  0.00  0.00    +0.000 A 
ATOM     19  C   UNL     1       1.545   9.932  17.741  0.00  0.00    +0.000 A 
ATOM     20  C   UNL     1       0.511  10.322  18.567  0.00  0.00    +0.000 A 
ATOM     21  C   UNL     1       0.436   9.961  19.895  0.00  0.00    +0.000 A 
ATOM     22  C   UNL     1       1.125   8.866  20.347  0.00  0.00    +0.000 A 
ATOM     23  O   UNL     1      -0.724  10.389  20.482  0.00  0.00    +0.000 OA
ATOM     24  C   UNL     1      -1.519  10.288  19.296  0.00  0.00    +0.000 C 
ATOM     25  O   UNL     1      -0.746  10.690  18.132  0.00  0.00    +0.000 OA
ENDBRANCH  16  17
ENDBRANCH   1  15
TORSDOF 4
ENDMDL
MODEL 8
REMARK VINA RESULT:      -7.5      0.168      1.893
REMARK  Name = 
REMARK  5 active torsions:
REMARK  status: ('A' for Active; 'I' for Inactive)
REMARK    1  A    between atoms: C_1  and  C_2
REMARK    2  A    between atoms: C_6  and  S_7
REMARK    3  A    between atoms: S_7  and  N_10
REMARK    4  A    between atoms: N_10  and  N_11
REMARK    5  A    between atoms: C_12  and  C_13
REMARK                            x       y       z     vdW  Elec       q    Type
REMARK                         _______ _______ _______ _____ _____    ______ ____
ROOT
ATOM      1  N   UNL     1       2.604   6.362  20.147  0.00  0.00    +0.000 N 
ATOM      2  H   UNL     1       3.537   6.780  20.144  0.00  0.00    +0.000 HD
ENDROOT
BRANCH   1   3
ATOM      3  S   UNL     1       2.466   4.803  19.453  0.00  0.00    +0.000 S 
ATOM      4  O   UNL     1       1.122   4.667  18.999  0.00  0.00    +0.000 OA
ATOM      5  O   UNL     1       2.991   3.867  20.462  0.00  0.00    +0.000 OA
BRANCH   3  11
ATOM      6  C   UNL     1       6.339   4.830  14.730  0.00  0.00    +0.000 C 
ATOM      7  C   UNL     1       5.396   4.822  15.897  0.00  0.00    +0.000 A 
ATOM      8  C   UNL     1       4.834   6.001  16.389  0.00  0.00    +0.000 A 
ATOM      9  C   UNL     1       3.944   5.975  17.475  0.00  0.00    +0.000 A 
ATOM     10 CL   UNL     1       3.339   7.527  17.958  0.00  0.00    +0.000 Cl
ATOM     11  C   UNL     1       3.579   4.765  18.079  0.00  0.00    +0.000 A 
ATOM     12  C   UNL     1       4.167   3.578  17.610  0.00  0.00    +0.000 A 
ATOM     13 CL   UNL     1       3.914   1.979  18.228  0.00  0.00    +0.000 Cl
ATOM     14  C   UNL     1       5.059   3.623  16.518  0.00  0.00    +0.000 A 
ENDBRANCH   3  11
ENDBRANCH   1   3
BRANCH   1  15
ATOM     15  N   UNL     1       1.469   7.019  20.698  0.00  0.00    +0.000 NA
ATOM     16  C   UNL     1       1.487   8.310  20.585  0.00  0.00    +0.000 C 
BRANCH  16  17
ATOM     17  C   UNL     1       0.404   9.123  21.156  0.00  0.00    +0.000 A 
ATOM     18  C   UNL     1      -0.033   8.894  22.477  0.00  0.00    +0.000 A 
ATOM     19  C   UNL     1      -0.652   9.924  23.185  0.00  0.00    +0.000 A 
ATOM     20  C   UNL     1      -0.782  11.119  22.506  0.00  0.00    +0.000 A 
ATOM     21  C   UNL     1      -0.663  11.218  21.137  0.00  0.00    +0.000 A 
ATOM     22  C   UNL     1       0.007  10.251  20.434  0.00  0.00    +0.000 A 
ATOM     23  O   UNL     1      -0.739  12.515  20.704  0.00  0.00    +0.000 OA
ATOM     24  C   UNL     1      -0.145  13.082  21.877  0.00  0.00    +0.000 C 
ATOM     25  O   UNL     1      -0.584  12.366  23.064  0.00  0.00    +0.000 OA
ENDBRANCH  16  17
ENDBRANCH   1  15
TORSDOF 4
ENDMDL
MODEL 9
REMARK VINA RESULT:      -7.4      5.314      9.453
REMARK  Name = 
REMARK  5 active torsions:
REMARK  status: ('A' for Active; 'I' for Inactive)
REMARK    1  A    between atoms: C_1  and  C_2
REMARK    2  A    between atoms: C_6  and  S_7
REMARK    3  A    between atoms: S_7  and  N_10
REMARK    4  A    between atoms: N_10  and  N_11
REMARK    5  A    between atoms: C_12  and  C_13
REMARK                            x       y       z     vdW  Elec       q    Type
REMARK                         _______ _______ _______ _____ _____    ______ ____
ROOT
ATOM      1  N   UNL     1       6.823   4.094  17.852  0.00  0.00    +0.000 N 
ATOM      2  H   UNL     1       7.126   3.260  18.360  0.00  0.00    +0.000 HD
ENDROOT
BRANCH   1   3
ATOM      3  S   UNL     1       5.998   5.283  18.765  0.00  0.00    +0.000 S 
ATOM      4  O   UNL     1       6.031   6.488  18.006  0.00  0.00    +0.000 OA
ATOM      5  O   UNL     1       6.607   5.252  20.107  0.00  0.00    +0.000 OA
BRANCH   3  11
ATOM      6  C   UNL     1       0.292   3.221  19.466  0.00  0.00    +0.000 C 
ATOM      7  C   UNL     1       1.692   3.734  19.303  0.00  0.00    +0.000 A 
ATOM      8  C   UNL     1       2.797   2.980  19.703  0.00  0.00    +0.000 A 
ATOM      9  C   UNL     1       4.102   3.471  19.532  0.00  0.00    +0.000 A 
ATOM     10 CL   UNL     1       5.357   2.408  20.082  0.00  0.00    +0.000 Cl
ATOM     11  C   UNL     1       4.332   4.717  18.937  0.00  0.00    +0.000 A 
ATOM     12  C   UNL     1       3.222   5.495  18.562  0.00  0.00    +0.000 A 
ATOM     13 CL   UNL     1       3.254   7.079  17.861  0.00  0.00    +0.000 Cl
ATOM     14  C   UNL     1       1.918   4.987  18.741  0.00  0.00    +0.000 A 
ENDBRANCH   3  11
ENDBRANCH   1   3
BRANCH   1  15
ATOM     15  N   UNL     1       7.072   4.281  16.464  0.00  0.00    +0.000 NA
ATOM     16  C   UNL     1       6.041   4.089  15.702  0.00  0.00    +0.000 C 
BRANCH  16  17
ATOM     17  C   UNL     1       6.164   4.197  14.241  0.00  0.00    +0.000 A 
ATOM     18  C   UNL     1       7.251   4.891  13.671  0.00  0.00    +0.000 A 
ATOM     19  C   UNL     1       7.659   4.583  12.373  0.00  0.00    +0.000 A 
ATOM     20  C   UNL     1       6.939   3.588  11.743  0.00  0.00    +0.000 A 
ATOM     21  C   UNL     1       5.698   3.174  12.176  0.00  0.00    +0.000 A 
ATOM     22  C   UNL     1       5.311   3.404  13.470  0.00  0.00    +0.000 A 
ATOM     23  O   UNL     1       5.224   2.115  11.449  0.00  0.00    +0.000 OA
ATOM     24  C   UNL     1       6.512   1.550  11.182  0.00  0.00    +0.000 C 
ATOM     25  O   UNL     1       7.489   2.601  10.951  0.00  0.00    +0.000 OA
ENDBRANCH  16  17
ENDBRANCH   1  15
TORSDOF 4
ENDMDL
