MODEL 1
REMARK VINA RESULT:      -7.5      0.000      0.000
REMARK  Name = 
REMARK  8 active torsions:
REMARK  status: ('A' for Active; 'I' for Inactive)
REMARK    1  A    between atoms: C_1  and  O_2
REMARK    2  A    between atoms: O_2  and  C_3
REMARK    3  A    between atoms: C_3  and  C_5
REMARK    4  A    between atoms: C_6  and  O_7
REMARK    5  A    between atoms: C_9  and  O_10
REMARK    6  A    between atoms: C_13  and  C_14
REMARK    7  A    between atoms: C_14  and  C_15
REMARK    8  A    between atoms: C_15  and  C_16
REMARK                            x       y       z     vdW  Elec       q    Type
REMARK                         _______ _______ _______ _____ _____    ______ ____
ROOT
ATOM      1  C   UNL     1       3.202   4.044  19.738  0.00  0.00    +0.000 A 
ATOM      2  C   UNL     1       2.255   4.432  20.711  0.00  0.00    +0.000 A 
ATOM      3  C   UNL     1       1.769   5.734  20.770  0.00  0.00    +0.000 A 
ATOM      4  C   UNL     1       2.213   6.667  19.844  0.00  0.00    +0.000 A 
ATOM      5  C   UNL     1       3.121   6.302  18.836  0.00  0.00    +0.000 A 
ATOM      6 CL   UNL     1       3.611   7.523  17.698  0.00  0.00    +0.000 Cl
ATOM      7  C   UNL     1       3.622   4.979  18.750  0.00  0.00    +0.000 A 
ENDROOT
BRANCH   1   8
ATOM      8  C   UNL     1       3.704   2.644  19.842  0.00  0.00    +0.000 C 
ATOM      9  O   UNL     1       4.866   2.378  20.113  0.00  0.00    +0.000 OA
BRANCH   8  11
ATOM     10  C   UNL     1       2.168   1.978  18.178  0.00  0.00    +0.000 C 
ATOM     11  O   UNL     1       2.755   1.762  19.458  0.00  0.00    +0.000 OA
ENDBRANCH   8  11
ENDBRANCH   1   8
BRANCH   2  12
ATOM     12  O   UNL     1       1.749   3.587  21.666  0.00  0.00    +0.000 OA
ATOM     13  H   UNL     1       1.346   2.805  21.227  0.00  0.00    +0.000 HD
ENDBRANCH   2  12
BRANCH   4  14
ATOM     14  O   UNL     1       1.753   7.955  19.917  0.00  0.00    +0.000 OA
ATOM     15  H   UNL     1       0.965   8.053  19.356  0.00  0.00    +0.000 HD
ENDBRANCH   4  14
BRANCH   7  16
ATOM     16  C   UNL     1       4.529   4.595  17.589  0.00  0.00    +0.000 C 
BRANCH  16  17
ATOM     17  C   UNL     1       6.017   4.890  17.824  0.00  0.00    +0.000 C 
BRANCH  17  18
ATOM     18  C   UNL     1       6.692   5.339  16.539  0.00  0.00    +0.000 C 
ATOM     19  O   UNL     1       7.367   6.360  16.483  0.00  0.00    +0.000 OA
ATOM     20  N   UNL     1       6.423   4.482  15.489  0.00  0.00    +0.000 N 
ATOM     21  C   UNL     1       6.960   4.695  14.249  0.00  0.00    +0.000 A 
ATOM     22  N   UNL     1       7.921   5.493  13.867  0.00  0.00    +0.000 NA
ATOM     23  C   UNL     1       8.062   5.358  12.497  0.00  0.00    +0.000 A 
ATOM     24  N   UNL     1       7.276   4.520  11.816  0.00  0.00    +0.000 NA
ATOM     25  S   UNL     1       6.287   3.795  12.958  0.00  0.00    +0.000 S 
ATOM     26  H   UNL     1       5.729   3.755  15.580  0.00  0.00    +0.000 HD
ENDBRANCH  17  18
ENDBRANCH  16  17
ENDBRANCH   7  16
TORSDOF 7
ENDMDL
MODEL 2
REMARK VINA RESULT:      -7.3      1.886      3.391
REMARK  Name = 
REMARK  8 active torsions:
REMARK  status: ('A' for Active; 'I' for Inactive)
REMARK    1  A    between atoms: C_1  and  O_2
REMARK    2  A    between atoms: O_2  and  C_3
REMARK    3  A    between atoms: C_3  and  C_5
REMARK    4  A    between atoms: C_6  and  O_7
REMARK    5  A    between atoms: C_9  and  O_10
REMARK    6  A    between atoms: C_13  and  C_14
REMARK    7  A    between atoms: C_14  and  C_15
REMARK    8  A    between atoms: C_15  and  C_16
REMARK                            x       y       z     vdW  Elec       q    Type
REMARK                         _______ _______ _______ _____ _____    ______ ____
ROOT
ATOM      1  C   UNL     1       2.538   5.861  18.881  0.00  0.00    +0.000 A 
ATOM      2  C   UNL     1       1.960   6.110  20.145  0.00  0.00    +0.000 A 
ATOM      3  C   UNL     1       1.459   5.076  20.929  0.00  0.00    +0.000 A 
ATOM      4  C   UNL     1       1.543   3.771  20.466  0.00  0.00    +0.000 A 
ATOM      5  C   UNL     1       2.152   3.484  19.233  0.00  0.00    +0.000 A 
ATOM      6 CL   UNL     1       2.239   1.821  18.732  0.00  0.00    +0.000 Cl
ATOM      7  C   UNL     1       2.678   4.521  18.421  0.00  0.00    +0.000 A 
ENDROOT
BRANCH   1   8
ATOM      8  C   UNL     1       2.955   7.066  18.108  0.00  0.00    +0.000 C 
ATOM      9  O   UNL     1       4.124   7.308  17.843  0.00  0.00    +0.000 OA
BRANCH   8  11
ATOM     10  C   UNL     1       2.191   9.281  17.825  0.00  0.00    +0.000 C 
ATOM     11  O   UNL     1       1.905   7.886  17.891  0.00  0.00    +0.000 OA
ENDBRANCH   8  11
ENDBRANCH   1   8
BRANCH   2  12
ATOM     12  O   UNL     1       1.834   7.360  20.696  0.00  0.00    +0.000 OA
ATOM     13  H   UNL     1       2.682   7.613  21.126  0.00  0.00    +0.000 HD
ENDBRANCH   2  12
BRANCH   4  14
ATOM     14  O   UNL     1       1.028   2.755  21.227  0.00  0.00    +0.000 OA
ATOM     15  H   UNL     1       0.153   3.011  21.564  0.00  0.00    +0.000 HD
ENDBRANCH   4  14
BRANCH   7  16
ATOM     16  C   UNL     1       3.415   4.166  17.137  0.00  0.00    +0.000 C 
BRANCH  16  17
ATOM     17  C   UNL     1       4.882   3.763  17.340  0.00  0.00    +0.000 C 
BRANCH  17  18
ATOM     18  C   UNL     1       5.785   4.476  16.346  0.00  0.00    +0.000 C 
ATOM     19  O   UNL     1       6.368   5.515  16.629  0.00  0.00    +0.000 OA
ATOM     20  N   UNL     1       5.824   3.825  15.127  0.00  0.00    +0.000 N 
ATOM     21  C   UNL     1       6.602   4.293  14.103  0.00  0.00    +0.000 A 
ATOM     22  N   UNL     1       7.554   5.187  14.102  0.00  0.00    +0.000 NA
ATOM     23  C   UNL     1       8.004   5.323  12.800  0.00  0.00    +0.000 A 
ATOM     24  N   UNL     1       7.459   4.600  11.819  0.00  0.00    +0.000 NA
ATOM     25  S   UNL     1       6.306   3.631  12.553  0.00  0.00    +0.000 S 
ATOM     26  H   UNL     1       5.190   3.068  14.926  0.00  0.00    +0.000 HD
ENDBRANCH  17  18
ENDBRANCH  16  17
ENDBRANCH   7  16
TORSDOF 7
ENDMDL
MODEL 3
REMARK VINA RESULT:      -7.3      4.641      6.688
REMARK  Name = 
REMARK  8 active torsions:
REMARK  status: ('A' for Active; 'I' for Inactive)
REMARK    1  A    between atoms: C_1  and  O_2
REMARK    2  A    between atoms: O_2  and  C_3
REMARK    3  A    between atoms: C_3  and  C_5
REMARK    4  A    between atoms: C_6  and  O_7
REMARK    5  A    between atoms: C_9  and  O_10
REMARK    6  A    between atoms: C_13  and  C_14
REMARK    7  A    between atoms: C_14  and  C_15
REMARK    8  A    between atoms: C_15  and  C_16
REMARK                            x       y       z     vdW  Elec       q    Type
REMARK                         _______ _______ _______ _____ _____    ______ ____
ROOT
ATOM      1  C   UNL     1       3.997   3.852  18.418  0.00  0.00    +0.000 A 
ATOM      2  C   UNL     1       3.568   2.508  18.482  0.00  0.00    +0.000 A 
ATOM      3  C   UNL     1       2.495   2.127  19.280  0.00  0.00    +0.000 A 
ATOM      4  C   UNL     1       1.821   3.090  20.017  0.00  0.00    +0.000 A 
ATOM      5  C   UNL     1       2.194   4.443  19.942  0.00  0.00    +0.000 A 
ATOM      6 CL   UNL     1       1.287   5.593  20.878  0.00  0.00    +0.000 Cl
ATOM      7  C   UNL     1       3.279   4.856  19.127  0.00  0.00    +0.000 A 
ENDROOT
BRANCH   1   8
ATOM      8  C   UNL     1       5.213   4.108  17.593  0.00  0.00    +0.000 C 
ATOM      9  O   UNL     1       5.207   4.045  16.372  0.00  0.00    +0.000 OA
BRANCH   8  11
ATOM     10  C   UNL     1       7.506   4.649  17.719  0.00  0.00    +0.000 C 
ATOM     11  O   UNL     1       6.302   4.262  18.376  0.00  0.00    +0.000 OA
ENDBRANCH   8  11
ENDBRANCH   1   8
BRANCH   2  12
ATOM     12  O   UNL     1       4.161   1.482  17.789  0.00  0.00    +0.000 OA
ATOM     13  H   UNL     1       3.500   1.072  17.187  0.00  0.00    +0.000 HD
ENDBRANCH   2  12
BRANCH   4  14
ATOM     14  O   UNL     1       0.780   2.712  20.821  0.00  0.00    +0.000 OA
ATOM     15  H   UNL     1       0.713   3.319  21.576  0.00  0.00    +0.000 HD
ENDBRANCH   4  14
BRANCH   7  16
ATOM     16  C   UNL     1       3.595   6.339  18.996  0.00  0.00    +0.000 C 
BRANCH  16  17
ATOM     17  C   UNL     1       2.936   7.022  17.789  0.00  0.00    +0.000 C 
BRANCH  17  18
ATOM     18  C   UNL     1       2.239   8.307  18.205  0.00  0.00    +0.000 C 
ATOM     19  O   UNL     1       2.073   9.236  17.425  0.00  0.00    +0.000 OA
ATOM     20  N   UNL     1       1.864   8.283  19.535  0.00  0.00    +0.000 N 
ATOM     21  C   UNL     1       1.198   9.336  20.099  0.00  0.00    +0.000 A 
ATOM     22  N   UNL     1       0.610  10.362  19.544  0.00  0.00    +0.000 NA
ATOM     23  C   UNL     1       0.111  11.161  20.558  0.00  0.00    +0.000 A 
ATOM     24  N   UNL     1       0.281  10.815  21.837  0.00  0.00    +0.000 NA
ATOM     25  S   UNL     1       1.101   9.355  21.808  0.00  0.00    +0.000 S 
ATOM     26  H   UNL     1       2.181   7.547  20.148  0.00  0.00    +0.000 HD
ENDBRANCH  17  18
ENDBRANCH  16  17
ENDBRANCH   7  16
TORSDOF 7
ENDMDL
MODEL 4
REMARK VINA RESULT:      -7.2      3.094      4.571
REMARK  Name = 
REMARK  8 active torsions:
REMARK  status: ('A' for Active; 'I' for Inactive)
REMARK    1  A    between atoms: C_1  and  O_2
REMARK    2  A    between atoms: O_2  and  C_3
REMARK    3  A    between atoms: C_3  and  C_5
REMARK    4  A    between atoms: C_6  and  O_7
REMARK    5  A    between atoms: C_9  and  O_10
REMARK    6  A    between atoms: C_13  and  C_14
REMARK    7  A    between atoms: C_14  and  C_15
REMARK    8  A    between atoms: C_15  and  C_16
REMARK                            x       y       z     vdW  Elec       q    Type
REMARK                         _______ _______ _______ _____ _____    ______ ____
ROOT
ATOM      1  C   UNL     1       2.319   5.821  18.865  0.00  0.00    +0.000 A 
ATOM      2  C   UNL     1       1.998   6.121  20.207  0.00  0.00    +0.000 A 
ATOM      3  C   UNL     1       1.514   5.146  21.072  0.00  0.00    +0.000 A 
ATOM      4  C   UNL     1       1.357   3.847  20.610  0.00  0.00    +0.000 A 
ATOM      5  C   UNL     1       1.708   3.505  19.294  0.00  0.00    +0.000 A 
ATOM      6 CL   UNL     1       1.504   1.851  18.797  0.00  0.00    +0.000 Cl
ATOM      7  C   UNL     1       2.214   4.481  18.397  0.00  0.00    +0.000 A 
ENDROOT
BRANCH   1   8
ATOM      8  C   UNL     1       2.745   6.977  18.025  0.00  0.00    +0.000 C 
ATOM      9  O   UNL     1       3.909   7.165  17.702  0.00  0.00    +0.000 OA
BRANCH   8  11
ATOM     10  C   UNL     1       2.027   9.216  17.818  0.00  0.00    +0.000 C 
ATOM     11  O   UNL     1       1.715   7.825  17.815  0.00  0.00    +0.000 OA
ENDBRANCH   8  11
ENDBRANCH   1   8
BRANCH   2  12
ATOM     12  O   UNL     1       2.123   7.370  20.763  0.00  0.00    +0.000 OA
ATOM     13  H   UNL     1       1.281   7.611  21.212  0.00  0.00    +0.000 HD
ENDBRANCH   2  12
BRANCH   4  14
ATOM     14  O   UNL     1       0.857   2.891  21.454  0.00  0.00    +0.000 OA
ATOM     15  H   UNL     1       0.362   2.230  20.943  0.00  0.00    +0.000 HD
ENDBRANCH   4  14
BRANCH   7  16
ATOM     16  C   UNL     1       2.674   4.057  17.010  0.00  0.00    +0.000 C 
BRANCH  16  17
ATOM     17  C   UNL     1       3.956   3.213  16.998  0.00  0.00    +0.000 C 
BRANCH  17  18
ATOM     18  C   UNL     1       4.992   3.785  17.951  0.00  0.00    +0.000 C 
ATOM     19  O   UNL     1       5.131   3.357  19.090  0.00  0.00    +0.000 OA
ATOM     20  N   UNL     1       5.700   4.825  17.379  0.00  0.00    +0.000 N 
ATOM     21  C   UNL     1       6.699   5.459  18.066  0.00  0.00    +0.000 A 
ATOM     22  N   UNL     1       7.315   5.124  19.168  0.00  0.00    +0.000 NA
ATOM     23  C   UNL     1       8.226   6.124  19.462  0.00  0.00    +0.000 A 
ATOM     24  N   UNL     1       8.340   7.189  18.666  0.00  0.00    +0.000 NA
ATOM     25  S   UNL     1       7.257   6.940  17.413  0.00  0.00    +0.000 S 
ATOM     26  H   UNL     1       5.415   5.220  16.497  0.00  0.00    +0.000 HD
ENDBRANCH  17  18
ENDBRANCH  16  17
ENDBRANCH   7  16
TORSDOF 7
ENDMDL
MODEL 5
REMARK VINA RESULT:      -7.2      0.758      1.224
REMARK  Name = 
REMARK  8 active torsions:
REMARK  status: ('A' for Active; 'I' for Inactive)
REMARK    1  A    between atoms: C_1  and  O_2
REMARK    2  A    between atoms: O_2  and  C_3
REMARK    3  A    between atoms: C_3  and  C_5
REMARK    4  A    between atoms: C_6  and  O_7
REMARK    5  A    between atoms: C_9  and  O_10
REMARK    6  A    between atoms: C_13  and  C_14
REMARK    7  A    between atoms: C_14  and  C_15
REMARK    8  A    between atoms: C_15  and  C_16
REMARK                            x       y       z     vdW  Elec       q    Type
REMARK                         _______ _______ _______ _____ _____    ______ ____
ROOT
ATOM      1  C   UNL     1       2.397   3.735  19.276  0.00  0.00    +0.000 A 
ATOM      2  C   UNL     1       1.564   4.101  20.357  0.00  0.00    +0.000 A 
ATOM      3  C   UNL     1       1.422   5.428  20.746  0.00  0.00    +0.000 A 
ATOM      4  C   UNL     1       2.102   6.416  20.048  0.00  0.00    +0.000 A 
ATOM      5  C   UNL     1       2.904   6.091  18.941  0.00  0.00    +0.000 A 
ATOM      6 CL   UNL     1       3.705   7.388  18.104  0.00  0.00    +0.000 Cl
ATOM      7  C   UNL     1       3.055   4.746  18.520  0.00  0.00    +0.000 A 
ENDROOT
BRANCH   1   8
ATOM      8  C   UNL     1       2.527   2.272  19.022  0.00  0.00    +0.000 C 
ATOM      9  O   UNL     1       1.560   1.546  18.837  0.00  0.00    +0.000 OA
BRANCH   8  11
ATOM     10  C   UNL     1       4.399   2.094  20.448  0.00  0.00    +0.000 C 
ATOM     11  O   UNL     1       3.807   1.868  19.172  0.00  0.00    +0.000 OA
ENDBRANCH   8  11
ENDBRANCH   1   8
BRANCH   2  12
ATOM     12  O   UNL     1       0.846   3.203  21.107  0.00  0.00    +0.000 OA
ATOM     13  H   UNL     1      -0.001   3.001  20.648  0.00  0.00    +0.000 HD
ENDBRANCH   2  12
BRANCH   4  14
ATOM     14  O   UNL     1       1.982   7.721  20.446  0.00  0.00    +0.000 OA
ATOM     15  H   UNL     1       1.576   7.758  21.328  0.00  0.00    +0.000 HD
ENDBRANCH   4  14
BRANCH   7  16
ATOM     16  C   UNL     1       3.854   4.440  17.261  0.00  0.00    +0.000 C 
BRANCH  16  17
ATOM     17  C   UNL     1       5.370   4.346  17.480  0.00  0.00    +0.000 C 
BRANCH  17  18
ATOM     18  C   UNL     1       6.128   4.949  16.309  0.00  0.00    +0.000 C 
ATOM     19  O   UNL     1       6.670   6.044  16.382  0.00  0.00    +0.000 OA
ATOM     20  N   UNL     1       6.092   4.131  15.196  0.00  0.00    +0.000 N 
ATOM     21  C   UNL     1       6.738   4.481  14.041  0.00  0.00    +0.000 A 
ATOM     22  N   UNL     1       7.629   5.410  13.817  0.00  0.00    +0.000 NA
ATOM     23  C   UNL     1       7.943   5.376  12.470  0.00  0.00    +0.000 A 
ATOM     24  N   UNL     1       7.353   4.494  11.661  0.00  0.00    +0.000 NA
ATOM     25  S   UNL     1       6.338   3.588  12.638  0.00  0.00    +0.000 S 
ATOM     26  H   UNL     1       5.490   3.322  15.168  0.00  0.00    +0.000 HD
ENDBRANCH  17  18
ENDBRANCH  16  17
ENDBRANCH   7  16
TORSDOF 7
ENDMDL
MODEL 6
REMARK VINA RESULT:      -7.1      4.943      7.298
REMARK  Name = 
REMARK  8 active torsions:
REMARK  status: ('A' for Active; 'I' for Inactive)
REMARK    1  A    between atoms: C_1  and  O_2
REMARK    2  A    between atoms: O_2  and  C_3
REMARK    3  A    between atoms: C_3  and  C_5
REMARK    4  A    between atoms: C_6  and  O_7
REMARK    5  A    between atoms: C_9  and  O_10
REMARK    6  A    between atoms: C_13  and  C_14
REMARK    7  A    between atoms: C_14  and  C_15
REMARK    8  A    between atoms: C_15  and  C_16
REMARK                            x       y       z     vdW  Elec       q    Type
REMARK                         _______ _______ _______ _____ _____    ______ ____
ROOT
ATOM      1  C   UNL     1       4.293   4.957  17.652  0.00  0.00    +0.000 A 
ATOM      2  C   UNL     1       4.524   3.641  17.194  0.00  0.00    +0.000 A 
ATOM      3  C   UNL     1       3.724   2.580  17.604  0.00  0.00    +0.000 A 
ATOM      4  C   UNL     1       2.667   2.822  18.470  0.00  0.00    +0.000 A 
ATOM      5  C   UNL     1       2.383   4.126  18.910  0.00  0.00    +0.000 A 
ATOM      6 CL   UNL     1       1.028   4.351  19.976  0.00  0.00    +0.000 Cl
ATOM      7  C   UNL     1       3.179   5.225  18.497  0.00  0.00    +0.000 A 
ENDROOT
BRANCH   1   8
ATOM      8  C   UNL     1       5.277   5.983  17.204  0.00  0.00    +0.000 C 
ATOM      9  O   UNL     1       5.272   6.453  16.075  0.00  0.00    +0.000 OA
BRANCH   8  11
ATOM     10  C   UNL     1       7.398   6.877  17.727  0.00  0.00    +0.000 C 
ATOM     11  O   UNL     1       6.222   6.189  18.146  0.00  0.00    +0.000 OA
ENDBRANCH   8  11
ENDBRANCH   1   8
BRANCH   2  12
ATOM     12  O   UNL     1       5.536   3.297  16.333  0.00  0.00    +0.000 OA
ATOM     13  H   UNL     1       5.568   2.318  16.244  0.00  0.00    +0.000 HD
ENDBRANCH   2  12
BRANCH   4  14
ATOM     14  O   UNL     1       1.894   1.774  18.893  0.00  0.00    +0.000 OA
ATOM     15  H   UNL     1       1.633   1.913  19.819  0.00  0.00    +0.000 HD
ENDBRANCH   4  14
BRANCH   7  16
ATOM     16  C   UNL     1       2.786   6.634  18.916  0.00  0.00    +0.000 C 
BRANCH  16  17
ATOM     17  C   UNL     1       2.197   7.490  17.787  0.00  0.00    +0.000 C 
BRANCH  17  18
ATOM     18  C   UNL     1       1.886   8.895  18.274  0.00  0.00    +0.000 C 
ATOM     19  O   UNL     1       2.175   9.888  17.618  0.00  0.00    +0.000 OA
ATOM     20  N   UNL     1       1.284   8.888  19.518  0.00  0.00    +0.000 N 
ATOM     21  C   UNL     1       0.899  10.053  20.122  0.00  0.00    +0.000 A 
ATOM     22  N   UNL     1       0.787  11.262  19.639  0.00  0.00    +0.000 NA
ATOM     23  C   UNL     1       0.392  12.094  20.672  0.00  0.00    +0.000 A 
ATOM     24  N   UNL     1       0.202  11.604  21.899  0.00  0.00    +0.000 NA
ATOM     25  S   UNL     1       0.498   9.959  21.783  0.00  0.00    +0.000 S 
ATOM     26  H   UNL     1       1.227   8.039  20.059  0.00  0.00    +0.000 HD
ENDBRANCH  17  18
ENDBRANCH  16  17
ENDBRANCH   7  16
TORSDOF 7
ENDMDL
MODEL 7
REMARK VINA RESULT:      -7.1      4.635      6.598
REMARK  Name = 
REMARK  8 active torsions:
REMARK  status: ('A' for Active; 'I' for Inactive)
REMARK    1  A    between atoms: C_1  and  O_2
REMARK    2  A    between atoms: O_2  and  C_3
REMARK    3  A    between atoms: C_3  and  C_5
REMARK    4  A    between atoms: C_6  and  O_7
REMARK    5  A    between atoms: C_9  and  O_10
REMARK    6  A    between atoms: C_13  and  C_14
REMARK    7  A    between atoms: C_14  and  C_15
REMARK    8  A    between atoms: C_15  and  C_16
REMARK                            x       y       z     vdW  Elec       q    Type
REMARK                         _______ _______ _______ _____ _____    ______ ____
ROOT
ATOM      1  C   UNL     1       4.043   3.698  19.069  0.00  0.00    +0.000 A 
ATOM      2  C   UNL     1       4.264   2.616  19.950  0.00  0.00    +0.000 A 
ATOM      3  C   UNL     1       3.374   2.325  20.978  0.00  0.00    +0.000 A 
ATOM      4  C   UNL     1       2.236   3.104  21.131  0.00  0.00    +0.000 A 
ATOM      5  C   UNL     1       1.964   4.160  20.246  0.00  0.00    +0.000 A 
ATOM      6 CL   UNL     1       0.506   5.075  20.490  0.00  0.00    +0.000 Cl
ATOM      7  C   UNL     1       2.852   4.469  19.184  0.00  0.00    +0.000 A 
ENDROOT
BRANCH   1   8
ATOM      8  C   UNL     1       5.118   3.951  18.068  0.00  0.00    +0.000 C 
ATOM      9  O   UNL     1       4.997   3.672  16.884  0.00  0.00    +0.000 OA
BRANCH   8  11
ATOM     10  C   UNL     1       7.316   4.774  17.817  0.00  0.00    +0.000 C 
ATOM     11  O   UNL     1       6.249   4.376  18.673  0.00  0.00    +0.000 OA
ENDBRANCH   8  11
ENDBRANCH   1   8
BRANCH   2  12
ATOM     12  O   UNL     1       5.352   1.783  19.880  0.00  0.00    +0.000 OA
ATOM     13  H   UNL     1       5.423   1.270  20.716  0.00  0.00    +0.000 HD
ENDBRANCH   2  12
BRANCH   4  14
ATOM     14  O   UNL     1       1.372   2.832  22.158  0.00  0.00    +0.000 OA
ATOM     15  H   UNL     1       1.753   2.150  22.735  0.00  0.00    +0.000 HD
ENDBRANCH   4  14
BRANCH   7  16
ATOM     16  C   UNL     1       2.478   5.556  18.187  0.00  0.00    +0.000 C 
BRANCH  16  17
ATOM     17  C   UNL     1       3.277   6.858  18.340  0.00  0.00    +0.000 C 
BRANCH  17  18
ATOM     18  C   UNL     1       2.354   8.065  18.345  0.00  0.00    +0.000 C 
ATOM     19  O   UNL     1       2.163   8.739  17.340  0.00  0.00    +0.000 OA
ATOM     20  N   UNL     1       1.813   8.296  19.595  0.00  0.00    +0.000 N 
ATOM     21  C   UNL     1       0.934   9.323  19.805  0.00  0.00    +0.000 A 
ATOM     22  N   UNL     1       0.285  10.071  18.953  0.00  0.00    +0.000 NA
ATOM     23  C   UNL     1      -0.453  10.991  19.676  0.00  0.00    +0.000 A 
ATOM     24  N   UNL     1      -0.407  10.995  21.010  0.00  0.00    +0.000 NA
ATOM     25  S   UNL     1       0.609   9.733  21.435  0.00  0.00    +0.000 S 
ATOM     26  H   UNL     1       2.148   7.793  20.403  0.00  0.00    +0.000 HD
ENDBRANCH  17  18
ENDBRANCH  16  17
ENDBRANCH   7  16
TORSDOF 7
ENDMDL
MODEL 8
REMARK VINA RESULT:      -7.1      5.185      7.790
REMARK  Name = 
REMARK  8 active torsions:
REMARK  status: ('A' for Active; 'I' for Inactive)
REMARK    1  A    between atoms: C_1  and  O_2
REMARK    2  A    between atoms: O_2  and  C_3
REMARK    3  A    between atoms: C_3  and  C_5
REMARK    4  A    between atoms: C_6  and  O_7
REMARK    5  A    between atoms: C_9  and  O_10
REMARK    6  A    between atoms: C_13  and  C_14
REMARK    7  A    between atoms: C_14  and  C_15
REMARK    8  A    between atoms: C_15  and  C_16
REMARK                            x       y       z     vdW  Elec       q    Type
REMARK                         _______ _______ _______ _____ _____    ______ ____
ROOT
ATOM      1  C   UNL     1       4.220   4.900  17.312  0.00  0.00    +0.000 A 
ATOM      2  C   UNL     1       4.733   3.632  16.961  0.00  0.00    +0.000 A 
ATOM      3  C   UNL     1       4.100   2.459  17.356  0.00  0.00    +0.000 A 
ATOM      4  C   UNL     1       2.930   2.536  18.099  0.00  0.00    +0.000 A 
ATOM      5  C   UNL     1       2.369   3.781  18.427  0.00  0.00    +0.000 A 
ATOM      6 CL   UNL     1       0.890   3.795  19.341  0.00  0.00    +0.000 Cl
ATOM      7  C   UNL     1       2.992   4.990  18.026  0.00  0.00    +0.000 A 
ENDROOT
BRANCH   1   8
ATOM      8  C   UNL     1       5.044   6.071  16.898  0.00  0.00    +0.000 C 
ATOM      9  O   UNL     1       4.943   6.592  15.796  0.00  0.00    +0.000 OA
BRANCH   8  11
ATOM     10  C   UNL     1       7.178   6.965  17.360  0.00  0.00    +0.000 C 
ATOM     11  O   UNL     1       5.979   6.356  17.829  0.00  0.00    +0.000 OA
ENDBRANCH   8  11
ENDBRANCH   1   8
BRANCH   2  12
ATOM     12  O   UNL     1       5.877   3.446  16.225  0.00  0.00    +0.000 OA
ATOM     13  H   UNL     1       6.298   2.597  16.488  0.00  0.00    +0.000 HD
ENDBRANCH   2  12
BRANCH   4  14
ATOM     14  O   UNL     1       2.319   1.381  18.510  0.00  0.00    +0.000 OA
ATOM     15  H   UNL     1       1.580   1.595  19.103  0.00  0.00    +0.000 HD
ENDBRANCH   4  14
BRANCH   7  16
ATOM     16  C   UNL     1       2.307   6.318  18.317  0.00  0.00    +0.000 C 
BRANCH  16  17
ATOM     17  C   UNL     1       2.509   6.836  19.747  0.00  0.00    +0.000 C 
BRANCH  17  18
ATOM     18  C   UNL     1       1.746   8.130  19.971  0.00  0.00    +0.000 C 
ATOM     19  O   UNL     1       1.639   8.980  19.095  0.00  0.00    +0.000 OA
ATOM     20  N   UNL     1       1.238   8.215  21.254  0.00  0.00    +0.000 N 
ATOM     21  C   UNL     1       0.495   9.293  21.649  0.00  0.00    +0.000 A 
ATOM     22  N   UNL     1      -0.055  10.247  20.945  0.00  0.00    +0.000 NA
ATOM     23  C   UNL     1      -0.672  11.118  21.826  0.00  0.00    +0.000 A 
ATOM     24  N   UNL     1      -0.624  10.895  23.142  0.00  0.00    +0.000 NA
ATOM     25  S   UNL     1       0.225   9.463  23.330  0.00  0.00    +0.000 S 
ATOM     26  H   UNL     1       1.507   7.547  21.960  0.00  0.00    +0.000 HD
ENDBRANCH  17  18
ENDBRANCH  16  17
ENDBRANCH   7  16
TORSDOF 7
ENDMDL
MODEL 9
REMARK VINA RESULT:      -6.9      5.025      7.417
REMARK  Name = 
REMARK  8 active torsions:
REMARK  status: ('A' for Active; 'I' for Inactive)
REMARK    1  A    between atoms: C_1  and  O_2
REMARK    2  A    between atoms: O_2  and  C_3
REMARK    3  A    between atoms: C_3  and  C_5
REMARK    4  A    between atoms: C_6  and  O_7
REMARK    5  A    between atoms: C_9  and  O_10
REMARK    6  A    between atoms: C_13  and  C_14
REMARK    7  A    between atoms: C_14  and  C_15
REMARK    8  A    between atoms: C_15  and  C_16
REMARK                            x       y       z     vdW  Elec       q    Type
REMARK                         _______ _______ _______ _____ _____    ______ ____
ROOT
ATOM      1  C   UNL     1       4.276   4.590  18.458  0.00  0.00    +0.000 A 
ATOM      2  C   UNL     1       4.371   3.439  17.645  0.00  0.00    +0.000 A 
ATOM      3  C   UNL     1       3.388   2.456  17.663  0.00  0.00    +0.000 A 
ATOM      4  C   UNL     1       2.283   2.616  18.486  0.00  0.00    +0.000 A 
ATOM      5  C   UNL     1       2.135   3.769  19.274  0.00  0.00    +0.000 A 
ATOM      6 CL   UNL     1       0.710   3.907  20.261  0.00  0.00    +0.000 Cl
ATOM      7  C   UNL     1       3.120   4.790  19.265  0.00  0.00    +0.000 A 
ENDROOT
BRANCH   1   8
ATOM      8  C   UNL     1       5.439   5.520  18.407  0.00  0.00    +0.000 C 
ATOM      9  O   UNL     1       5.529   6.419  17.583  0.00  0.00    +0.000 OA
BRANCH   8  11
ATOM     10  C   UNL     1       7.695   5.704  19.077  0.00  0.00    +0.000 C 
ATOM     11  O   UNL     1       6.402   5.136  19.272  0.00  0.00    +0.000 OA
ENDBRANCH   8  11
ENDBRANCH   1   8
BRANCH   2  12
ATOM     12  O   UNL     1       5.418   3.188  16.794  0.00  0.00    +0.000 OA
ATOM     13  H   UNL     1       5.814   2.315  17.014  0.00  0.00    +0.000 HD
ENDBRANCH   2  12
BRANCH   4  14
ATOM     14  O   UNL     1       1.326   1.636  18.521  0.00  0.00    +0.000 OA
ATOM     15  H   UNL     1       1.715   0.790  18.243  0.00  0.00    +0.000 HD
ENDBRANCH   4  14
BRANCH   7  16
ATOM     16  C   UNL     1       2.882   6.067  20.057  0.00  0.00    +0.000 C 
BRANCH  16  17
ATOM     17  C   UNL     1       2.313   7.229  19.231  0.00  0.00    +0.000 C 
BRANCH  17  18
ATOM     18  C   UNL     1       1.592   8.227  20.120  0.00  0.00    +0.000 C 
ATOM     19  O   UNL     1       1.372   8.001  21.304  0.00  0.00    +0.000 OA
ATOM     20  N   UNL     1       1.215   9.360  19.424  0.00  0.00    +0.000 N 
ATOM     21  C   UNL     1       0.574  10.393  20.051  0.00  0.00    +0.000 A 
ATOM     22  N   UNL     1       0.412  10.643  21.323  0.00  0.00    +0.000 NA
ATOM     23  C   UNL     1      -0.340  11.799  21.433  0.00  0.00    +0.000 A 
ATOM     24  N   UNL     1      -0.761  12.438  20.339  0.00  0.00    +0.000 NA
ATOM     25  S   UNL     1      -0.154  11.568  19.042  0.00  0.00    +0.000 S 
ATOM     26  H   UNL     1       1.291   9.397  18.419  0.00  0.00    +0.000 HD
ENDBRANCH  17  18
ENDBRANCH  16  17
ENDBRANCH   7  16
TORSDOF 7
ENDMDL
