MODEL 1
REMARK VINA RESULT:      -7.2      0.000      0.000
REMARK  Name = 
REMARK  11 active torsions:
REMARK  status: ('A' for Active; 'I' for Inactive)
REMARK    1  A    between atoms: C_1  and  C_2
REMARK    2  A    between atoms: C_2  and  C_3
REMARK    3  A    between atoms: C_8  and  C_9
REMARK    4  A    between atoms: C_8  and  C_10
REMARK    5  A    between atoms: N_12  and  C_13
REMARK    6  A    between atoms: C_15  and  O_16
REMARK    7  A    between atoms: O_16  and  C_17
REMARK    8  A    between atoms: C_18  and  O_19
REMARK    9  A    between atoms: O_19  and  C_20
REMARK   10  A    between atoms: C_21  and  O_22
REMARK   11  A    between atoms: O_22  and  C_23
REMARK                            x       y       z     vdW  Elec       q    Type
REMARK                         _______ _______ _______ _____ _____    ______ ____
ROOT
ATOM      1  C   UNL     1       2.822   5.593  19.454  0.00  0.00    +0.000 C 
ATOM      2  O   UNL     1       2.059   5.239  20.351  0.00  0.00    +0.000 OA
ATOM      3  N   UNL     1       2.758   6.832  18.823  0.00  0.00    +0.000 N 
ATOM      4  H   UNL     1       3.196   6.929  17.917  0.00  0.00    +0.000 HD
ENDROOT
BRANCH   1  10
ATOM      5  C   UNL     1       6.880   6.059  17.188  0.00  0.00    +0.000 C 
ATOM      6  O   UNL     1       7.172   6.074  15.993  0.00  0.00    +0.000 OA
ATOM      7  N   UNL     1       5.846   5.282  17.673  0.00  0.00    +0.000 N 
ATOM      8  C   UNL     1       5.110   4.377  16.824  0.00  0.00    +0.000 C 
ATOM      9  C   UNL     1       3.704   4.407  17.393  0.00  0.00    +0.000 C 
ATOM     10  C   UNL     1       3.890   4.639  18.910  0.00  0.00    +0.000 C 
ATOM     11  C   UNL     1       3.847   3.326  19.698  0.00  0.00    +0.000 C 
ATOM     12  C   UNL     1       5.289   5.301  19.019  0.00  0.00    +0.000 C 
BRANCH   5  14
ATOM     13  C   UNL     1       7.912   8.295  17.760  0.00  0.00    +0.000 C 
ATOM     14  C   UNL     1       7.660   6.867  18.217  0.00  0.00    +0.000 C 
ENDBRANCH   5  14
ENDBRANCH   1  10
BRANCH   3  15
ATOM     15  C   UNL     1       2.012   7.940  19.294  0.00  0.00    +0.000 A 
ATOM     16  C   UNL     1       1.324   8.780  18.425  0.00  0.00    +0.000 A 
ATOM     17  C   UNL     1       0.564   9.852  18.893  0.00  0.00    +0.000 A 
ATOM     18  C   UNL     1       0.508  10.114  20.275  0.00  0.00    +0.000 A 
ATOM     19  C   UNL     1       1.205   9.274  21.173  0.00  0.00    +0.000 A 
ATOM     20  C   UNL     1       1.927   8.174  20.670  0.00  0.00    +0.000 A 
BRANCH  17  21
ATOM     21  O   UNL     1      -0.143  10.684  18.052  0.00  0.00    +0.000 OA
ATOM     22  C   UNL     1      -1.378  10.161  17.560  0.00  0.00    +0.000 C 
ENDBRANCH  17  21
BRANCH  18  23
ATOM     23  O   UNL     1      -0.197  11.242  20.627  0.00  0.00    +0.000 OA
ATOM     24  C   UNL     1       0.554  12.427  20.858  0.00  0.00    +0.000 C 
ENDBRANCH  18  23
BRANCH  19  25
ATOM     25  O   UNL     1       1.161   9.596  22.504  0.00  0.00    +0.000 OA
ATOM     26  C   UNL     1      -0.045   9.380  23.220  0.00  0.00    +0.000 C 
ENDBRANCH  19  25
ENDBRANCH   3  15
TORSDOF 6
ENDMDL
MODEL 2
REMARK VINA RESULT:      -7.2      1.178      1.298
REMARK  Name = 
REMARK  11 active torsions:
REMARK  status: ('A' for Active; 'I' for Inactive)
REMARK    1  A    between atoms: C_1  and  C_2
REMARK    2  A    between atoms: C_2  and  C_3
REMARK    3  A    between atoms: C_8  and  C_9
REMARK    4  A    between atoms: C_8  and  C_10
REMARK    5  A    between atoms: N_12  and  C_13
REMARK    6  A    between atoms: C_15  and  O_16
REMARK    7  A    between atoms: O_16  and  C_17
REMARK    8  A    between atoms: C_18  and  O_19
REMARK    9  A    between atoms: O_19  and  C_20
REMARK   10  A    between atoms: C_21  and  O_22
REMARK   11  A    between atoms: O_22  and  C_23
REMARK                            x       y       z     vdW  Elec       q    Type
REMARK                         _______ _______ _______ _____ _____    ______ ____
ROOT
ATOM      1  C   UNL     1       2.638   5.876  18.727  0.00  0.00    +0.000 C 
ATOM      2  O   UNL     1       1.841   5.970  17.795  0.00  0.00    +0.000 OA
ATOM      3  N   UNL     1       2.800   6.844  19.712  0.00  0.00    +0.000 N 
ATOM      4  H   UNL     1       3.659   6.844  20.246  0.00  0.00    +0.000 HD
ENDROOT
BRANCH   1  10
ATOM      5  C   UNL     1       7.126   5.046  17.730  0.00  0.00    +0.000 C 
ATOM      6  O   UNL     1       7.692   4.614  16.727  0.00  0.00    +0.000 OA
ATOM      7  N   UNL     1       5.866   4.613  18.095  0.00  0.00    +0.000 N 
ATOM      8  C   UNL     1       5.183   3.565  17.378  0.00  0.00    +0.000 C 
ATOM      9  C   UNL     1       3.720   3.956  17.471  0.00  0.00    +0.000 C 
ATOM     10  C   UNL     1       3.581   4.672  18.833  0.00  0.00    +0.000 C 
ATOM     11  C   UNL     1       3.077   3.726  19.927  0.00  0.00    +0.000 C 
ATOM     12  C   UNL     1       5.020   5.161  19.147  0.00  0.00    +0.000 C 
BRANCH   5  14
ATOM     13  C   UNL     1       7.855   7.449  18.033  0.00  0.00    +0.000 C 
ATOM     14  C   UNL     1       7.788   6.062  18.652  0.00  0.00    +0.000 C 
ENDBRANCH   5  14
ENDBRANCH   1  10
BRANCH   3  15
ATOM     15  C   UNL     1       1.906   7.919  19.943  0.00  0.00    +0.000 A 
ATOM     16  C   UNL     1       1.820   8.996  19.068  0.00  0.00    +0.000 A 
ATOM     17  C   UNL     1       0.915  10.037  19.279  0.00  0.00    +0.000 A 
ATOM     18  C   UNL     1       0.086  10.019  20.417  0.00  0.00    +0.000 A 
ATOM     19  C   UNL     1       0.165   8.935  21.319  0.00  0.00    +0.000 A 
ATOM     20  C   UNL     1       1.057   7.878  21.052  0.00  0.00    +0.000 A 
BRANCH  17  21
ATOM     21  O   UNL     1       0.797  11.105  18.415  0.00  0.00    +0.000 OA
ATOM     22  C   UNL     1       1.926  11.979  18.353  0.00  0.00    +0.000 C 
ENDBRANCH  17  21
BRANCH  18  23
ATOM     23  O   UNL     1      -0.707  11.132  20.578  0.00  0.00    +0.000 OA
ATOM     24  C   UNL     1      -0.181  12.190  21.368  0.00  0.00    +0.000 C 
ENDBRANCH  18  23
BRANCH  19  25
ATOM     25  O   UNL     1      -0.627   8.984  22.437  0.00  0.00    +0.000 OA
ATOM     26  C   UNL     1      -0.072   9.479  23.645  0.00  0.00    +0.000 C 
ENDBRANCH  19  25
ENDBRANCH   3  15
TORSDOF 6
ENDMDL
MODEL 3
REMARK VINA RESULT:      -7.2      0.721      2.482
REMARK  Name = 
REMARK  11 active torsions:
REMARK  status: ('A' for Active; 'I' for Inactive)
REMARK    1  A    between atoms: C_1  and  C_2
REMARK    2  A    between atoms: C_2  and  C_3
REMARK    3  A    between atoms: C_8  and  C_9
REMARK    4  A    between atoms: C_8  and  C_10
REMARK    5  A    between atoms: N_12  and  C_13
REMARK    6  A    between atoms: C_15  and  O_16
REMARK    7  A    between atoms: O_16  and  C_17
REMARK    8  A    between atoms: C_18  and  O_19
REMARK    9  A    between atoms: O_19  and  C_20
REMARK   10  A    between atoms: C_21  and  O_22
REMARK   11  A    between atoms: O_22  and  C_23
REMARK                            x       y       z     vdW  Elec       q    Type
REMARK                         _______ _______ _______ _____ _____    ______ ____
ROOT
ATOM      1  C   UNL     1       2.835   5.231  18.692  0.00  0.00    +0.000 C 
ATOM      2  O   UNL     1       1.748   4.724  18.964  0.00  0.00    +0.000 OA
ATOM      3  N   UNL     1       3.056   6.603  18.616  0.00  0.00    +0.000 N 
ATOM      4  H   UNL     1       3.861   6.930  18.099  0.00  0.00    +0.000 HD
ENDROOT
BRANCH   1  10
ATOM      5  C   UNL     1       7.130   5.977  17.014  0.00  0.00    +0.000 C 
ATOM      6  O   UNL     1       7.591   5.984  15.873  0.00  0.00    +0.000 OA
ATOM      7  N   UNL     1       6.101   5.129  17.375  0.00  0.00    +0.000 N 
ATOM      8  C   UNL     1       5.572   4.142  16.465  0.00  0.00    +0.000 C 
ATOM      9  C   UNL     1       4.100   4.070  16.826  0.00  0.00    +0.000 C 
ATOM     10  C   UNL     1       4.043   4.356  18.344  0.00  0.00    +0.000 C 
ATOM     11  C   UNL     1       3.991   3.066  19.167  0.00  0.00    +0.000 C 
ATOM     12  C   UNL     1       5.354   5.137  18.625  0.00  0.00    +0.000 C 
BRANCH   5  14
ATOM     13  C   UNL     1       7.823   8.321  17.661  0.00  0.00    +0.000 C 
ATOM     14  C   UNL     1       7.684   6.875  18.112  0.00  0.00    +0.000 C 
ENDBRANCH   5  14
ENDBRANCH   1  10
BRANCH   3  15
ATOM     15  C   UNL     1       2.165   7.592  19.102  0.00  0.00    +0.000 A 
ATOM     16  C   UNL     1       1.868   7.704  20.456  0.00  0.00    +0.000 A 
ATOM     17  C   UNL     1       1.015   8.699  20.936  0.00  0.00    +0.000 A 
ATOM     18  C   UNL     1       0.414   9.596  20.033  0.00  0.00    +0.000 A 
ATOM     19  C   UNL     1       0.700   9.492  18.654  0.00  0.00    +0.000 A 
ATOM     20  C   UNL     1       1.601   8.505  18.207  0.00  0.00    +0.000 A 
BRANCH  17  21
ATOM     21  O   UNL     1       0.724   8.843  22.276  0.00  0.00    +0.000 OA
ATOM     22  C   UNL     1       1.774   9.379  23.083  0.00  0.00    +0.000 C 
ENDBRANCH  17  21
BRANCH  18  23
ATOM     23  O   UNL     1      -0.475  10.483  20.597  0.00  0.00    +0.000 OA
ATOM     24  C   UNL     1      -0.009  11.806  20.825  0.00  0.00    +0.000 C 
ENDBRANCH  18  23
BRANCH  19  25
ATOM     25  O   UNL     1       0.055  10.356  17.807  0.00  0.00    +0.000 OA
ATOM     26  C   UNL     1      -1.289  10.082  17.445  0.00  0.00    +0.000 C 
ENDBRANCH  19  25
ENDBRANCH   3  15
TORSDOF 6
ENDMDL
MODEL 4
REMARK VINA RESULT:      -7.0      1.244      2.519
REMARK  Name = 
REMARK  11 active torsions:
REMARK  status: ('A' for Active; 'I' for Inactive)
REMARK    1  A    between atoms: C_1  and  C_2
REMARK    2  A    between atoms: C_2  and  C_3
REMARK    3  A    between atoms: C_8  and  C_9
REMARK    4  A    between atoms: C_8  and  C_10
REMARK    5  A    between atoms: N_12  and  C_13
REMARK    6  A    between atoms: C_15  and  O_16
REMARK    7  A    between atoms: O_16  and  C_17
REMARK    8  A    between atoms: C_18  and  O_19
REMARK    9  A    between atoms: O_19  and  C_20
REMARK   10  A    between atoms: C_21  and  O_22
REMARK   11  A    between atoms: O_22  and  C_23
REMARK                            x       y       z     vdW  Elec       q    Type
REMARK                         _______ _______ _______ _____ _____    ______ ____
ROOT
ATOM      1  C   UNL     1       2.608   5.703  18.671  0.00  0.00    +0.000 C 
ATOM      2  O   UNL     1       1.708   5.717  17.833  0.00  0.00    +0.000 OA
ATOM      3  N   UNL     1       2.875   6.754  19.543  0.00  0.00    +0.000 N 
ATOM      4  H   UNL     1       3.789   6.799  19.971  0.00  0.00    +0.000 HD
ENDROOT
BRANCH   1  10
ATOM      5  C   UNL     1       7.130   4.966  17.763  0.00  0.00    +0.000 C 
ATOM      6  O   UNL     1       7.726   4.566  16.764  0.00  0.00    +0.000 OA
ATOM      7  N   UNL     1       5.869   4.505  18.088  0.00  0.00    +0.000 N 
ATOM      8  C   UNL     1       5.220   3.463  17.331  0.00  0.00    +0.000 C 
ATOM      9  C   UNL     1       3.749   3.830  17.397  0.00  0.00    +0.000 C 
ATOM     10  C   UNL     1       3.567   4.512  18.772  0.00  0.00    +0.000 C 
ATOM     11  C   UNL     1       3.052   3.533  19.831  0.00  0.00    +0.000 C 
ATOM     12  C   UNL     1       4.990   5.015  19.132  0.00  0.00    +0.000 C 
BRANCH   5  14
ATOM     13  C   UNL     1       7.916   7.346  18.100  0.00  0.00    +0.000 C 
ATOM     14  C   UNL     1       7.754   5.969  18.725  0.00  0.00    +0.000 C 
ENDBRANCH   5  14
ENDBRANCH   1  10
BRANCH   3  15
ATOM     15  C   UNL     1       2.004   7.846  19.780  0.00  0.00    +0.000 A 
ATOM     16  C   UNL     1       1.133   7.862  20.864  0.00  0.00    +0.000 A 
ATOM     17  C   UNL     1       0.300   8.952  21.116  0.00  0.00    +0.000 A 
ATOM     18  C   UNL     1       0.313  10.054  20.240  0.00  0.00    +0.000 A 
ATOM     19  C   UNL     1       1.187  10.052  19.130  0.00  0.00    +0.000 A 
ATOM     20  C   UNL     1       2.048   8.955  18.931  0.00  0.00    +0.000 A 
BRANCH  17  21
ATOM     21  O   UNL     1      -0.556   9.000  22.195  0.00  0.00    +0.000 OA
ATOM     22  C   UNL     1       0.013   9.484  23.414  0.00  0.00    +0.000 C 
ENDBRANCH  17  21
BRANCH  18  23
ATOM     23  O   UNL     1      -0.607  11.038  20.526  0.00  0.00    +0.000 OA
ATOM     24  C   UNL     1      -1.674  11.211  19.603  0.00  0.00    +0.000 C 
ENDBRANCH  18  23
BRANCH  19  25
ATOM     25  O   UNL     1       1.130  11.125  18.278  0.00  0.00    +0.000 OA
ATOM     26  C   UNL     1       1.935  12.260  18.554  0.00  0.00    +0.000 C 
ENDBRANCH  19  25
ENDBRANCH   3  15
TORSDOF 6
ENDMDL
MODEL 5
REMARK VINA RESULT:      -7.0      0.937      2.550
REMARK  Name = 
REMARK  11 active torsions:
REMARK  status: ('A' for Active; 'I' for Inactive)
REMARK    1  A    between atoms: C_1  and  C_2
REMARK    2  A    between atoms: C_2  and  C_3
REMARK    3  A    between atoms: C_8  and  C_9
REMARK    4  A    between atoms: C_8  and  C_10
REMARK    5  A    between atoms: N_12  and  C_13
REMARK    6  A    between atoms: C_15  and  O_16
REMARK    7  A    between atoms: O_16  and  C_17
REMARK    8  A    between atoms: C_18  and  O_19
REMARK    9  A    between atoms: O_19  and  C_20
REMARK   10  A    between atoms: C_21  and  O_22
REMARK   11  A    between atoms: O_22  and  C_23
REMARK                            x       y       z     vdW  Elec       q    Type
REMARK                         _______ _______ _______ _____ _____    ______ ____
ROOT
ATOM      1  C   UNL     1       2.102   5.213  19.904  0.00  0.00    +0.000 C 
ATOM      2  O   UNL     1       1.011   4.994  20.427  0.00  0.00    +0.000 OA
ATOM      3  N   UNL     1       2.523   6.469  19.478  0.00  0.00    +0.000 N 
ATOM      4  H   UNL     1       3.271   6.517  18.799  0.00  0.00    +0.000 HD
ENDROOT
BRANCH   1  10
ATOM      5  C   UNL     1       6.151   4.760  17.617  0.00  0.00    +0.000 C 
ATOM      6  O   UNL     1       6.424   4.454  16.458  0.00  0.00    +0.000 OA
ATOM      7  N   UNL     1       5.063   4.218  18.273  0.00  0.00    +0.000 N 
ATOM      8  C   UNL     1       4.242   3.195  17.671  0.00  0.00    +0.000 C 
ATOM      9  C   UNL     1       2.852   3.483  18.207  0.00  0.00    +0.000 C 
ATOM     10  C   UNL     1       3.079   4.067  19.620  0.00  0.00    +0.000 C 
ATOM     11  C   UNL     1       2.940   2.998  20.709  0.00  0.00    +0.000 C 
ATOM     12  C   UNL     1       4.530   4.616  19.569  0.00  0.00    +0.000 C 
BRANCH   5  14
ATOM     13  C   UNL     1       7.416   6.949  17.605  0.00  0.00    +0.000 C 
ATOM     14  C   UNL     1       7.010   5.730  18.418  0.00  0.00    +0.000 C 
ENDBRANCH   5  14
ENDBRANCH   1  10
BRANCH   3  15
ATOM     15  C   UNL     1       1.896   7.690  19.826  0.00  0.00    +0.000 A 
ATOM     16  C   UNL     1       1.775   8.097  21.150  0.00  0.00    +0.000 A 
ATOM     17  C   UNL     1       1.186   9.315  21.490  0.00  0.00    +0.000 A 
ATOM     18  C   UNL     1       0.674  10.146  20.476  0.00  0.00    +0.000 A 
ATOM     19  C   UNL     1       0.783   9.747  19.125  0.00  0.00    +0.000 A 
ATOM     20  C   UNL     1       1.423   8.531  18.814  0.00  0.00    +0.000 A 
BRANCH  17  21
ATOM     21  O   UNL     1       1.075   9.749  22.793  0.00  0.00    +0.000 OA
ATOM     22  C   UNL     1      -0.150   9.421  23.452  0.00  0.00    +0.000 C 
ENDBRANCH  17  21
BRANCH  18  23
ATOM     23  O   UNL     1       0.037  11.283  20.920  0.00  0.00    +0.000 OA
ATOM     24  C   UNL     1       0.772  12.499  20.861  0.00  0.00    +0.000 C 
ENDBRANCH  18  23
BRANCH  19  25
ATOM     25  O   UNL     1       0.227  10.565  18.177  0.00  0.00    +0.000 OA
ATOM     26  C   UNL     1      -1.120  10.345  17.789  0.00  0.00    +0.000 C 
ENDBRANCH  19  25
ENDBRANCH   3  15
TORSDOF 6
ENDMDL
MODEL 6
REMARK VINA RESULT:      -6.9      1.436      1.635
REMARK  Name = 
REMARK  11 active torsions:
REMARK  status: ('A' for Active; 'I' for Inactive)
REMARK    1  A    between atoms: C_1  and  C_2
REMARK    2  A    between atoms: C_2  and  C_3
REMARK    3  A    between atoms: C_8  and  C_9
REMARK    4  A    between atoms: C_8  and  C_10
REMARK    5  A    between atoms: N_12  and  C_13
REMARK    6  A    between atoms: C_15  and  O_16
REMARK    7  A    between atoms: O_16  and  C_17
REMARK    8  A    between atoms: C_18  and  O_19
REMARK    9  A    between atoms: O_19  and  C_20
REMARK   10  A    between atoms: C_21  and  O_22
REMARK   11  A    between atoms: O_22  and  C_23
REMARK                            x       y       z     vdW  Elec       q    Type
REMARK                         _______ _______ _______ _____ _____    ______ ____
ROOT
ATOM      1  C   UNL     1       2.599   7.078  19.219  0.00  0.00    +0.000 C 
ATOM      2  O   UNL     1       2.877   7.796  18.260  0.00  0.00    +0.000 OA
ATOM      3  N   UNL     1       1.864   7.502  20.321  0.00  0.00    +0.000 N 
ATOM      4  H   UNL     1       1.940   6.974  21.180  0.00  0.00    +0.000 HD
ENDROOT
BRANCH   1  10
ATOM      5  C   UNL     1       6.387   4.799  17.708  0.00  0.00    +0.000 C 
ATOM      6  O   UNL     1       6.628   4.173  16.676  0.00  0.00    +0.000 OA
ATOM      7  N   UNL     1       5.125   4.812  18.270  0.00  0.00    +0.000 N 
ATOM      8  C   UNL     1       4.044   4.020  17.735  0.00  0.00    +0.000 C 
ATOM      9  C   UNL     1       2.813   4.870  17.988  0.00  0.00    +0.000 C 
ATOM     10  C   UNL     1       3.116   5.637  19.296  0.00  0.00    +0.000 C 
ATOM     11  C   UNL     1       2.509   4.943  20.519  0.00  0.00    +0.000 C 
ATOM     12  C   UNL     1       4.666   5.640  19.377  0.00  0.00    +0.000 C 
BRANCH   5  14
ATOM     13  C   UNL     1       7.665   6.973  17.891  0.00  0.00    +0.000 C 
ATOM     14  C   UNL     1       7.468   5.573  18.451  0.00  0.00    +0.000 C 
ENDBRANCH   5  14
ENDBRANCH   1  10
BRANCH   3  15
ATOM     15  C   UNL     1       1.109   8.700  20.374  0.00  0.00    +0.000 A 
ATOM     16  C   UNL     1       0.633   9.314  19.221  0.00  0.00    +0.000 A 
ATOM     17  C   UNL     1      -0.138  10.476  19.276  0.00  0.00    +0.000 A 
ATOM     18  C   UNL     1      -0.421  11.064  20.523  0.00  0.00    +0.000 A 
ATOM     19  C   UNL     1       0.059  10.457  21.705  0.00  0.00    +0.000 A 
ATOM     20  C   UNL     1       0.796   9.260  21.616  0.00  0.00    +0.000 A 
BRANCH  17  21
ATOM     21  O   UNL     1      -0.638  11.089  18.148  0.00  0.00    +0.000 OA
ATOM     22  C   UNL     1      -1.684  10.387  17.474  0.00  0.00    +0.000 C 
ENDBRANCH  17  21
BRANCH  18  23
ATOM     23  O   UNL     1      -1.113  12.252  20.464  0.00  0.00    +0.000 OA
ATOM     24  C   UNL     1      -0.345  13.448  20.497  0.00  0.00    +0.000 C 
ENDBRANCH  18  23
BRANCH  19  25
ATOM     25  O   UNL     1      -0.200  11.091  22.892  0.00  0.00    +0.000 OA
ATOM     26  C   UNL     1      -1.544  11.182  23.339  0.00  0.00    +0.000 C 
ENDBRANCH  19  25
ENDBRANCH   3  15
TORSDOF 6
ENDMDL
MODEL 7
REMARK VINA RESULT:      -6.9      2.638      3.953
REMARK  Name = 
REMARK  11 active torsions:
REMARK  status: ('A' for Active; 'I' for Inactive)
REMARK    1  A    between atoms: C_1  and  C_2
REMARK    2  A    between atoms: C_2  and  C_3
REMARK    3  A    between atoms: C_8  and  C_9
REMARK    4  A    between atoms: C_8  and  C_10
REMARK    5  A    between atoms: N_12  and  C_13
REMARK    6  A    between atoms: C_15  and  O_16
REMARK    7  A    between atoms: O_16  and  C_17
REMARK    8  A    between atoms: C_18  and  O_19
REMARK    9  A    between atoms: O_19  and  C_20
REMARK   10  A    between atoms: C_21  and  O_22
REMARK   11  A    between atoms: O_22  and  C_23
REMARK                            x       y       z     vdW  Elec       q    Type
REMARK                         _______ _______ _______ _____ _____    ______ ____
ROOT
ATOM      1  C   UNL     1       2.701   7.272  18.605  0.00  0.00    +0.000 C 
ATOM      2  O   UNL     1       2.251   7.170  19.745  0.00  0.00    +0.000 OA
ATOM      3  N   UNL     1       2.261   8.209  17.676  0.00  0.00    +0.000 N 
ATOM      4  H   UNL     1       2.446   8.036  16.697  0.00  0.00    +0.000 HD
ENDROOT
BRANCH   1  10
ATOM      5  C   UNL     1       3.349   2.647  18.736  0.00  0.00    +0.000 C 
ATOM      6  O   UNL     1       3.940   1.909  19.523  0.00  0.00    +0.000 OA
ATOM      7  N   UNL     1       3.796   3.926  18.465  0.00  0.00    +0.000 N 
ATOM      8  C   UNL     1       5.029   4.435  19.014  0.00  0.00    +0.000 C 
ATOM      9  C   UNL     1       4.750   5.911  19.223  0.00  0.00    +0.000 C 
ATOM     10  C   UNL     1       3.769   6.299  18.094  0.00  0.00    +0.000 C 
ATOM     11  C   UNL     1       4.493   6.922  16.897  0.00  0.00    +0.000 C 
ATOM     12  C   UNL     1       3.105   4.953  17.698  0.00  0.00    +0.000 C 
BRANCH   5  14
ATOM     13  C   UNL     1       0.832   2.403  18.789  0.00  0.00    +0.000 C 
ATOM     14  C   UNL     1       2.105   2.190  17.984  0.00  0.00    +0.000 C 
ENDBRANCH   5  14
ENDBRANCH   1  10
BRANCH   3  15
ATOM     15  C   UNL     1       1.454   9.333  17.984  0.00  0.00    +0.000 A 
ATOM     16  C   UNL     1       0.068   9.285  17.885  0.00  0.00    +0.000 A 
ATOM     17  C   UNL     1      -0.727  10.382  18.220  0.00  0.00    +0.000 A 
ATOM     18  C   UNL     1      -0.118  11.579  18.642  0.00  0.00    +0.000 A 
ATOM     19  C   UNL     1       1.290  11.647  18.743  0.00  0.00    +0.000 A 
ATOM     20  C   UNL     1       2.060  10.507  18.440  0.00  0.00    +0.000 A 
BRANCH  17  21
ATOM     21  O   UNL     1      -2.103  10.350  18.150  0.00  0.00    +0.000 OA
ATOM     22  C   UNL     1      -2.649   9.969  16.887  0.00  0.00    +0.000 C 
ENDBRANCH  17  21
BRANCH  18  23
ATOM     23  O   UNL     1      -0.983  12.626  18.865  0.00  0.00    +0.000 OA
ATOM     24  C   UNL     1      -1.351  12.882  20.214  0.00  0.00    +0.000 C 
ENDBRANCH  18  23
BRANCH  19  25
ATOM     25  O   UNL     1       1.840  12.847  19.111  0.00  0.00    +0.000 OA
ATOM     26  C   UNL     1       2.496  13.629  18.126  0.00  0.00    +0.000 C 
ENDBRANCH  19  25
ENDBRANCH   3  15
TORSDOF 6
ENDMDL
MODEL 8
REMARK VINA RESULT:      -6.9      1.004      1.182
REMARK  Name = 
REMARK  11 active torsions:
REMARK  status: ('A' for Active; 'I' for Inactive)
REMARK    1  A    between atoms: C_1  and  C_2
REMARK    2  A    between atoms: C_2  and  C_3
REMARK    3  A    between atoms: C_8  and  C_9
REMARK    4  A    between atoms: C_8  and  C_10
REMARK    5  A    between atoms: N_12  and  C_13
REMARK    6  A    between atoms: C_15  and  O_16
REMARK    7  A    between atoms: O_16  and  C_17
REMARK    8  A    between atoms: C_18  and  O_19
REMARK    9  A    between atoms: O_19  and  C_20
REMARK   10  A    between atoms: C_21  and  O_22
REMARK   11  A    between atoms: O_22  and  C_23
REMARK                            x       y       z     vdW  Elec       q    Type
REMARK                         _______ _______ _______ _____ _____    ______ ____
ROOT
ATOM      1  C   UNL     1       2.966   5.759  19.418  0.00  0.00    +0.000 C 
ATOM      2  O   UNL     1       2.312   5.479  20.421  0.00  0.00    +0.000 OA
ATOM      3  N   UNL     1       2.793   6.924  18.677  0.00  0.00    +0.000 N 
ATOM      4  H   UNL     1       3.133   6.939  17.724  0.00  0.00    +0.000 HD
ENDROOT
BRANCH   1  10
ATOM      5  C   UNL     1       7.048   6.140  17.178  0.00  0.00    +0.000 C 
ATOM      6  O   UNL     1       7.346   6.166  15.985  0.00  0.00    +0.000 OA
ATOM      7  N   UNL     1       5.988   5.387  17.645  0.00  0.00    +0.000 N 
ATOM      8  C   UNL     1       5.230   4.518  16.778  0.00  0.00    +0.000 C 
ATOM      9  C   UNL     1       3.823   4.582  17.341  0.00  0.00    +0.000 C 
ATOM     10  C   UNL     1       4.008   4.782  18.863  0.00  0.00    +0.000 C 
ATOM     11  C   UNL     1       3.922   3.458  19.628  0.00  0.00    +0.000 C 
ATOM     12  C   UNL     1       5.426   5.401  18.989  0.00  0.00    +0.000 C 
BRANCH   5  14
ATOM     13  C   UNL     1       8.030   8.371  17.853  0.00  0.00    +0.000 C 
ATOM     14  C   UNL     1       7.847   6.907  18.224  0.00  0.00    +0.000 C 
ENDBRANCH   5  14
ENDBRANCH   1  10
BRANCH   3  15
ATOM     15  C   UNL     1       2.059   8.055  19.111  0.00  0.00    +0.000 A 
ATOM     16  C   UNL     1       2.071   9.250  18.401  0.00  0.00    +0.000 A 
ATOM     17  C   UNL     1       1.321  10.352  18.812  0.00  0.00    +0.000 A 
ATOM     18  C   UNL     1       0.554  10.271  19.990  0.00  0.00    +0.000 A 
ATOM     19  C   UNL     1       0.534   9.067  20.727  0.00  0.00    +0.000 A 
ATOM     20  C   UNL     1       1.267   7.958  20.259  0.00  0.00    +0.000 A 
BRANCH  17  21
ATOM     21  O   UNL     1       1.301  11.539  18.112  0.00  0.00    +0.000 OA
ATOM     22  C   UNL     1       2.508  12.303  18.154  0.00  0.00    +0.000 C 
ENDBRANCH  17  21
BRANCH  18  23
ATOM     23  O   UNL     1      -0.079  11.438  20.355  0.00  0.00    +0.000 OA
ATOM     24  C   UNL     1      -1.445  11.573  19.987  0.00  0.00    +0.000 C 
ENDBRANCH  18  23
BRANCH  19  25
ATOM     25  O   UNL     1      -0.188   9.050  21.892  0.00  0.00    +0.000 OA
ATOM     26  C   UNL     1       0.457   9.416  23.102  0.00  0.00    +0.000 C 
ENDBRANCH  19  25
ENDBRANCH   3  15
TORSDOF 6
ENDMDL
MODEL 9
REMARK VINA RESULT:      -6.9      1.301      2.701
REMARK  Name = 
REMARK  11 active torsions:
REMARK  status: ('A' for Active; 'I' for Inactive)
REMARK    1  A    between atoms: C_1  and  C_2
REMARK    2  A    between atoms: C_2  and  C_3
REMARK    3  A    between atoms: C_8  and  C_9
REMARK    4  A    between atoms: C_8  and  C_10
REMARK    5  A    between atoms: N_12  and  C_13
REMARK    6  A    between atoms: C_15  and  O_16
REMARK    7  A    between atoms: O_16  and  C_17
REMARK    8  A    between atoms: C_18  and  O_19
REMARK    9  A    between atoms: O_19  and  C_20
REMARK   10  A    between atoms: C_21  and  O_22
REMARK   11  A    between atoms: O_22  and  C_23
REMARK                            x       y       z     vdW  Elec       q    Type
REMARK                         _______ _______ _______ _____ _____    ______ ____
ROOT
ATOM      1  C   UNL     1       2.799   6.812  18.902  0.00  0.00    +0.000 C 
ATOM      2  O   UNL     1       2.903   7.440  17.850  0.00  0.00    +0.000 OA
ATOM      3  N   UNL     1       2.186   7.308  20.048  0.00  0.00    +0.000 N 
ATOM      4  H   UNL     1       2.408   6.876  20.934  0.00  0.00    +0.000 HD
ENDROOT
BRANCH   1  10
ATOM      5  C   UNL     1       6.953   4.881  17.984  0.00  0.00    +0.000 C 
ATOM      6  O   UNL     1       7.403   4.300  16.997  0.00  0.00    +0.000 OA
ATOM      7  N   UNL     1       5.622   4.779  18.340  0.00  0.00    +0.000 N 
ATOM      8  C   UNL     1       4.708   3.915  17.634  0.00  0.00    +0.000 C 
ATOM      9  C   UNL     1       3.386   4.657  17.699  0.00  0.00    +0.000 C 
ATOM     10  C   UNL     1       3.416   5.416  19.045  0.00  0.00    +0.000 C 
ATOM     11  C   UNL     1       2.685   4.648  20.150  0.00  0.00    +0.000 C 
ATOM     12  C   UNL     1       4.928   5.542  19.369  0.00  0.00    +0.000 C 
BRANCH   5  14
ATOM     13  C   UNL     1       8.035   7.134  18.367  0.00  0.00    +0.000 C 
ATOM     14  C   UNL     1       7.836   5.722  18.896  0.00  0.00    +0.000 C 
ENDBRANCH   5  14
ENDBRANCH   1  10
BRANCH   3  15
ATOM     15  C   UNL     1       1.367   8.464  20.088  0.00  0.00    +0.000 A 
ATOM     16  C   UNL     1       1.090   9.121  21.281  0.00  0.00    +0.000 A 
ATOM     17  C   UNL     1       0.310  10.277  21.315  0.00  0.00    +0.000 A 
ATOM     18  C   UNL     1      -0.238  10.781  20.120  0.00  0.00    +0.000 A 
ATOM     19  C   UNL     1       0.028  10.123  18.899  0.00  0.00    +0.000 A 
ATOM     20  C   UNL     1       0.856   8.984  18.895  0.00  0.00    +0.000 A 
BRANCH  17  21
ATOM     21  O   UNL     1       0.041  10.958  22.483  0.00  0.00    +0.000 OA
ATOM     22  C   UNL     1      -0.982  10.394  23.305  0.00  0.00    +0.000 C 
ENDBRANCH  17  21
BRANCH  18  23
ATOM     23  O   UNL     1      -1.062  11.874  20.272  0.00  0.00    +0.000 OA
ATOM     24  C   UNL     1      -0.510  13.146  19.955  0.00  0.00    +0.000 C 
ENDBRANCH  18  23
BRANCH  19  25
ATOM     25  O   UNL     1      -0.567  10.622  17.769  0.00  0.00    +0.000 OA
ATOM     26  C   UNL     1      -1.779  10.037  17.319  0.00  0.00    +0.000 C 
ENDBRANCH  19  25
ENDBRANCH   3  15
TORSDOF 6
ENDMDL
