MODEL 1
REMARK VINA RESULT:      -7.5      0.000      0.000
REMARK  Name = 
REMARK  4 active torsions:
REMARK  status: ('A' for Active; 'I' for Inactive)
REMARK    1  A    between atoms: C_1  and  O_2
REMARK    2  A    between atoms: O_2  and  C_3
REMARK    3  A    between atoms: C_6  and  C_7
REMARK    4  A    between atoms: C_10  and  N_11
REMARK                            x       y       z     vdW  Elec       q    Type
REMARK                         _______ _______ _______ _____ _____    ______ ____
ROOT
ATOM      1  C   UNL     1       6.880   5.078  14.861  0.00  0.00    +0.000 A 
ATOM      2  C   UNL     1       5.846   4.187  14.562  0.00  0.00    +0.000 A 
ATOM      3  C   UNL     1       4.862   3.870  15.508  0.00  0.00    +0.000 A 
ATOM      4  C   UNL     1       4.855   4.408  16.817  0.00  0.00    +0.000 A 
ATOM      5  C   UNL     1       5.895   5.321  17.118  0.00  0.00    +0.000 A 
ATOM      6  C   UNL     1       6.328   6.088  18.227  0.00  0.00    +0.000 A 
ATOM      7  N   UNL     1       7.410   6.824  17.963  0.00  0.00    +0.000 NA
ATOM      8  O   UNL     1       7.736   6.521  16.650  0.00  0.00    +0.000 OA
ATOM      9  C   UNL     1       6.840   5.622  16.146  0.00  0.00    +0.000 A 
ENDROOT
BRANCH   4  10
ATOM     10  C   UNL     1       3.841   4.013  17.818  0.00  0.00    +0.000 A 
ATOM     11  C   UNL     1       2.503   4.429  17.691  0.00  0.00    +0.000 A 
ATOM     12  C   UNL     1       1.525   4.062  18.625  0.00  0.00    +0.000 A 
ATOM     13  C   UNL     1       1.834   3.211  19.682  0.00  0.00    +0.000 A 
ATOM     14  C   UNL     1       3.166   2.844  19.862  0.00  0.00    +0.000 A 
ATOM     15  C   UNL     1       4.153   3.236  18.945  0.00  0.00    +0.000 A 
BRANCH  13  16
ATOM     16  N   UNL     1       0.881   2.931  20.666  0.00  0.00    +0.000 N 
ATOM     17  H   UNL     1      -0.075   2.957  20.329  0.00  0.00    +0.000 HD
ATOM     18  H   UNL     1       1.078   2.087  21.195  0.00  0.00    +0.000 HD
ENDBRANCH  13  16
ENDBRANCH   4  10
BRANCH   1  20
ATOM     19  C   UNL     1       7.746   5.109  12.651  0.00  0.00    +0.000 C 
ATOM     20  O   UNL     1       7.891   5.448  14.025  0.00  0.00    +0.000 OA
ENDBRANCH   1  20
TORSDOF 3
ENDMDL
MODEL 2
REMARK VINA RESULT:      -7.5      0.071      1.129
REMARK  Name = 
REMARK  4 active torsions:
REMARK  status: ('A' for Active; 'I' for Inactive)
REMARK    1  A    between atoms: C_1  and  O_2
REMARK    2  A    between atoms: O_2  and  C_3
REMARK    3  A    between atoms: C_6  and  C_7
REMARK    4  A    between atoms: C_10  and  N_11
REMARK                            x       y       z     vdW  Elec       q    Type
REMARK                         _______ _______ _______ _____ _____    ______ ____
ROOT
ATOM      1  C   UNL     1       6.906   5.038  14.874  0.00  0.00    +0.000 A 
ATOM      2  C   UNL     1       5.884   4.129  14.586  0.00  0.00    +0.000 A 
ATOM      3  C   UNL     1       4.885   3.837  15.523  0.00  0.00    +0.000 A 
ATOM      4  C   UNL     1       4.848   4.419  16.813  0.00  0.00    +0.000 A 
ATOM      5  C   UNL     1       5.876   5.350  17.102  0.00  0.00    +0.000 A 
ATOM      6  C   UNL     1       6.283   6.157  18.193  0.00  0.00    +0.000 A 
ATOM      7  N   UNL     1       7.364   6.891  17.924  0.00  0.00    +0.000 NA
ATOM      8  O   UNL     1       7.717   6.547  16.628  0.00  0.00    +0.000 OA
ATOM      9  C   UNL     1       6.837   5.624  16.139  0.00  0.00    +0.000 A 
ENDROOT
BRANCH   4  10
ATOM     10  C   UNL     1       3.818   4.050  17.807  0.00  0.00    +0.000 A 
ATOM     11  C   UNL     1       4.141   3.238  18.910  0.00  0.00    +0.000 A 
ATOM     12  C   UNL     1       3.182   2.880  19.867  0.00  0.00    +0.000 A 
ATOM     13  C   UNL     1       1.883   3.376  19.793  0.00  0.00    +0.000 A 
ATOM     14  C   UNL     1       1.529   4.125  18.673  0.00  0.00    +0.000 A 
ATOM     15  C   UNL     1       2.480   4.459  17.698  0.00  0.00    +0.000 A 
BRANCH  13  16
ATOM     16  N   UNL     1       0.906   2.934  20.691  0.00  0.00    +0.000 N 
ATOM     17  H   UNL     1       1.161   2.089  21.191  0.00  0.00    +0.000 HD
ATOM     18  H   UNL     1       0.568   3.660  21.315  0.00  0.00    +0.000 HD
ENDBRANCH  13  16
ENDBRANCH   4  10
BRANCH   1  20
ATOM     19  C   UNL     1       7.742   5.149  12.655  0.00  0.00    +0.000 C 
ATOM     20  O   UNL     1       7.930   5.387  14.045  0.00  0.00    +0.000 OA
ENDBRANCH   1  20
TORSDOF 3
ENDMDL
MODEL 3
REMARK VINA RESULT:      -7.4      1.134      1.659
REMARK  Name = 
REMARK  4 active torsions:
REMARK  status: ('A' for Active; 'I' for Inactive)
REMARK    1  A    between atoms: C_1  and  O_2
REMARK    2  A    between atoms: O_2  and  C_3
REMARK    3  A    between atoms: C_6  and  C_7
REMARK    4  A    between atoms: C_10  and  N_11
REMARK                            x       y       z     vdW  Elec       q    Type
REMARK                         _______ _______ _______ _____ _____    ______ ____
ROOT
ATOM      1  C   UNL     1       6.515   5.097  15.759  0.00  0.00    +0.000 A 
ATOM      2  C   UNL     1       5.314   4.417  15.541  0.00  0.00    +0.000 A 
ATOM      3  C   UNL     1       4.471   4.069  16.605  0.00  0.00    +0.000 A 
ATOM      4  C   UNL     1       4.779   4.362  17.955  0.00  0.00    +0.000 A 
ATOM      5  C   UNL     1       5.990   5.062  18.177  0.00  0.00    +0.000 A 
ATOM      6  C   UNL     1       6.729   5.555  19.280  0.00  0.00    +0.000 A 
ATOM      7  N   UNL     1       7.854   6.177  18.919  0.00  0.00    +0.000 NA
ATOM      8  O   UNL     1       7.892   6.072  17.537  0.00  0.00    +0.000 OA
ATOM      9  C   UNL     1       6.788   5.403  17.093  0.00  0.00    +0.000 A 
ENDROOT
BRANCH   4  10
ATOM     10  C   UNL     1       3.904   3.932  19.066  0.00  0.00    +0.000 A 
ATOM     11  C   UNL     1       4.169   2.745  19.773  0.00  0.00    +0.000 A 
ATOM     12  C   UNL     1       3.356   2.321  20.833  0.00  0.00    +0.000 A 
ATOM     13  C   UNL     1       2.289   3.102  21.268  0.00  0.00    +0.000 A 
ATOM     14  C   UNL     1       1.971   4.245  20.538  0.00  0.00    +0.000 A 
ATOM     15  C   UNL     1       2.765   4.655  19.457  0.00  0.00    +0.000 A 
BRANCH  13  16
ATOM     16  N   UNL     1       1.421   2.626  22.256  0.00  0.00    +0.000 N 
ATOM     17  H   UNL     1       1.329   1.616  22.268  0.00  0.00    +0.000 HD
ATOM     18  H   UNL     1       1.609   3.003  23.179  0.00  0.00    +0.000 HD
ENDBRANCH  13  16
ENDBRANCH   4  10
BRANCH   1  20
ATOM     19  C   UNL     1       7.281   4.865  13.524  0.00  0.00    +0.000 C 
ATOM     20  O   UNL     1       7.412   5.472  14.804  0.00  0.00    +0.000 OA
ENDBRANCH   1  20
TORSDOF 3
ENDMDL
MODEL 4
REMARK VINA RESULT:      -7.4      1.031      1.152
REMARK  Name = 
REMARK  4 active torsions:
REMARK  status: ('A' for Active; 'I' for Inactive)
REMARK    1  A    between atoms: C_1  and  O_2
REMARK    2  A    between atoms: O_2  and  C_3
REMARK    3  A    between atoms: C_6  and  C_7
REMARK    4  A    between atoms: C_10  and  N_11
REMARK                            x       y       z     vdW  Elec       q    Type
REMARK                         _______ _______ _______ _____ _____    ______ ____
ROOT
ATOM      1  C   UNL     1       6.540   5.052  15.746  0.00  0.00    +0.000 A 
ATOM      2  C   UNL     1       5.349   4.373  15.479  0.00  0.00    +0.000 A 
ATOM      3  C   UNL     1       4.464   4.024  16.508  0.00  0.00    +0.000 A 
ATOM      4  C   UNL     1       4.718   4.315  17.869  0.00  0.00    +0.000 A 
ATOM      5  C   UNL     1       5.920   5.014  18.140  0.00  0.00    +0.000 A 
ATOM      6  C   UNL     1       6.614   5.505  19.273  0.00  0.00    +0.000 A 
ATOM      7  N   UNL     1       7.752   6.127  18.959  0.00  0.00    +0.000 NA
ATOM      8  O   UNL     1       7.846   6.024  17.580  0.00  0.00    +0.000 OA
ATOM      9  C   UNL     1       6.760   5.356  17.090  0.00  0.00    +0.000 A 
ENDROOT
BRANCH   4  10
ATOM     10  C   UNL     1       3.799   3.884  18.944  0.00  0.00    +0.000 A 
ATOM     11  C   UNL     1       2.568   4.535  19.144  0.00  0.00    +0.000 A 
ATOM     12  C   UNL     1       1.680   4.140  20.153  0.00  0.00    +0.000 A 
ATOM     13  C   UNL     1       1.959   3.037  20.955  0.00  0.00    +0.000 A 
ATOM     14  C   UNL     1       3.202   2.423  20.817  0.00  0.00    +0.000 A 
ATOM     15  C   UNL     1       4.106   2.836  19.828  0.00  0.00    +0.000 A 
BRANCH  13  16
ATOM     16  N   UNL     1       1.120   2.710  22.025  0.00  0.00    +0.000 N 
ATOM     17  H   UNL     1       1.222   1.753  22.347  0.00  0.00    +0.000 HD
ATOM     18  H   UNL     1       1.158   3.376  22.790  0.00  0.00    +0.000 HD
ENDBRANCH  13  16
ENDBRANCH   4  10
BRANCH   1  20
ATOM     19  C   UNL     1       7.340   4.895  13.516  0.00  0.00    +0.000 C 
ATOM     20  O   UNL     1       7.475   5.429  14.828  0.00  0.00    +0.000 OA
ENDBRANCH   1  20
TORSDOF 3
ENDMDL
MODEL 5
REMARK VINA RESULT:      -7.2      3.747      4.829
REMARK  Name = 
REMARK  4 active torsions:
REMARK  status: ('A' for Active; 'I' for Inactive)
REMARK    1  A    between atoms: C_1  and  O_2
REMARK    2  A    between atoms: O_2  and  C_3
REMARK    3  A    between atoms: C_6  and  C_7
REMARK    4  A    between atoms: C_10  and  N_11
REMARK                            x       y       z     vdW  Elec       q    Type
REMARK                         _______ _______ _______ _____ _____    ______ ____
ROOT
ATOM      1  C   UNL     1       4.927   4.596  16.559  0.00  0.00    +0.000 A 
ATOM      2  C   UNL     1       5.345   5.919  16.721  0.00  0.00    +0.000 A 
ATOM      3  C   UNL     1       4.546   6.858  17.386  0.00  0.00    +0.000 A 
ATOM      4  C   UNL     1       3.273   6.544  17.917  0.00  0.00    +0.000 A 
ATOM      5  C   UNL     1       2.853   5.200  17.765  0.00  0.00    +0.000 A 
ATOM      6  C   UNL     1       1.719   4.414  18.084  0.00  0.00    +0.000 A 
ATOM      7  N   UNL     1       1.845   3.139  17.709  0.00  0.00    +0.000 NA
ATOM      8  O   UNL     1       3.083   3.069  17.089  0.00  0.00    +0.000 OA
ATOM      9  C   UNL     1       3.682   4.296  17.115  0.00  0.00    +0.000 A 
ENDROOT
BRANCH   4  10
ATOM     10  C   UNL     1       2.421   7.566  18.561  0.00  0.00    +0.000 A 
ATOM     11  C   UNL     1       2.106   7.483  19.930  0.00  0.00    +0.000 A 
ATOM     12  C   UNL     1       1.305   8.443  20.562  0.00  0.00    +0.000 A 
ATOM     13  C   UNL     1       0.846   9.557  19.864  0.00  0.00    +0.000 A 
ATOM     14  C   UNL     1       1.090   9.621  18.494  0.00  0.00    +0.000 A 
ATOM     15  C   UNL     1       1.866   8.645  17.853  0.00  0.00    +0.000 A 
BRANCH  13  16
ATOM     16  N   UNL     1      -0.036  10.457  20.471  0.00  0.00    +0.000 N 
ATOM     17  H   UNL     1      -0.710  10.864  19.831  0.00  0.00    +0.000 HD
ATOM     18  H   UNL     1      -0.478  10.092  21.309  0.00  0.00    +0.000 HD
ENDBRANCH  13  16
ENDBRANCH   4  10
BRANCH   1  20
ATOM     19  C   UNL     1       6.217   3.940  14.678  0.00  0.00    +0.000 C 
ATOM     20  O   UNL     1       5.615   3.606  15.923  0.00  0.00    +0.000 OA
ENDBRANCH   1  20
TORSDOF 3
ENDMDL
MODEL 6
REMARK VINA RESULT:      -7.2      3.760      4.738
REMARK  Name = 
REMARK  4 active torsions:
REMARK  status: ('A' for Active; 'I' for Inactive)
REMARK    1  A    between atoms: C_1  and  O_2
REMARK    2  A    between atoms: O_2  and  C_3
REMARK    3  A    between atoms: C_6  and  C_7
REMARK    4  A    between atoms: C_10  and  N_11
REMARK                            x       y       z     vdW  Elec       q    Type
REMARK                         _______ _______ _______ _____ _____    ______ ____
ROOT
ATOM      1  C   UNL     1       4.959   4.611  16.573  0.00  0.00    +0.000 A 
ATOM      2  C   UNL     1       5.378   5.933  16.744  0.00  0.00    +0.000 A 
ATOM      3  C   UNL     1       4.576   6.871  17.406  0.00  0.00    +0.000 A 
ATOM      4  C   UNL     1       3.297   6.556  17.926  0.00  0.00    +0.000 A 
ATOM      5  C   UNL     1       2.876   5.214  17.764  0.00  0.00    +0.000 A 
ATOM      6  C   UNL     1       1.738   4.428  18.072  0.00  0.00    +0.000 A 
ATOM      7  N   UNL     1       1.864   3.155  17.692  0.00  0.00    +0.000 NA
ATOM      8  O   UNL     1       3.107   3.086  17.082  0.00  0.00    +0.000 OA
ATOM      9  C   UNL     1       3.709   4.311  17.118  0.00  0.00    +0.000 A 
ENDROOT
BRANCH   4  10
ATOM     10  C   UNL     1       2.442   7.578  18.568  0.00  0.00    +0.000 A 
ATOM     11  C   UNL     1       1.952   8.672  17.832  0.00  0.00    +0.000 A 
ATOM     12  C   UNL     1       1.136   9.648  18.418  0.00  0.00    +0.000 A 
ATOM     13  C   UNL     1       0.726   9.531  19.743  0.00  0.00    +0.000 A 
ATOM     14  C   UNL     1       1.257   8.493  20.506  0.00  0.00    +0.000 A 
ATOM     15  C   UNL     1       2.098   7.531  19.928  0.00  0.00    +0.000 A 
BRANCH  13  16
ATOM     16  N   UNL     1      -0.001  10.559  20.352  0.00  0.00    +0.000 N 
ATOM     17  H   UNL     1       0.569  11.345  20.647  0.00  0.00    +0.000 HD
ATOM     18  H   UNL     1      -0.812  10.855  19.818  0.00  0.00    +0.000 HD
ENDBRANCH  13  16
ENDBRANCH   4  10
BRANCH   1  20
ATOM     19  C   UNL     1       6.135   3.914  14.633  0.00  0.00    +0.000 C 
ATOM     20  O   UNL     1       5.650   3.622  15.938  0.00  0.00    +0.000 OA
ENDBRANCH   1  20
TORSDOF 3
ENDMDL
MODEL 7
REMARK VINA RESULT:      -7.1      3.117      6.287
REMARK  Name = 
REMARK  4 active torsions:
REMARK  status: ('A' for Active; 'I' for Inactive)
REMARK    1  A    between atoms: C_1  and  O_2
REMARK    2  A    between atoms: O_2  and  C_3
REMARK    3  A    between atoms: C_6  and  C_7
REMARK    4  A    between atoms: C_10  and  N_11
REMARK                            x       y       z     vdW  Elec       q    Type
REMARK                         _______ _______ _______ _____ _____    ______ ____
ROOT
ATOM      1  C   UNL     1       1.995   3.090  19.536  0.00  0.00    +0.000 A 
ATOM      2  C   UNL     1       2.669   2.149  18.753  0.00  0.00    +0.000 A 
ATOM      3  C   UNL     1       3.667   2.535  17.849  0.00  0.00    +0.000 A 
ATOM      4  C   UNL     1       4.046   3.884  17.655  0.00  0.00    +0.000 A 
ATOM      5  C   UNL     1       3.372   4.839  18.457  0.00  0.00    +0.000 A 
ATOM      6  C   UNL     1       3.366   6.244  18.630  0.00  0.00    +0.000 A 
ATOM      7  N   UNL     1       2.508   6.651  19.568  0.00  0.00    +0.000 NA
ATOM      8  O   UNL     1       1.894   5.492  20.018  0.00  0.00    +0.000 OA
ATOM      9  C   UNL     1       2.402   4.412  19.353  0.00  0.00    +0.000 A 
ENDROOT
BRANCH   4  10
ATOM     10  C   UNL     1       5.060   4.275  16.652  0.00  0.00    +0.000 A 
ATOM     11  C   UNL     1       6.306   4.792  17.051  0.00  0.00    +0.000 A 
ATOM     12  C   UNL     1       7.282   5.163  16.118  0.00  0.00    +0.000 A 
ATOM     13  C   UNL     1       7.076   4.968  14.755  0.00  0.00    +0.000 A 
ATOM     14  C   UNL     1       5.824   4.521  14.338  0.00  0.00    +0.000 A 
ATOM     15  C   UNL     1       4.833   4.178  15.270  0.00  0.00    +0.000 A 
BRANCH  13  16
ATOM     16  N   UNL     1       8.009   5.434  13.824  0.00  0.00    +0.000 N 
ATOM     17  H   UNL     1       8.910   5.668  14.229  0.00  0.00    +0.000 HD
ATOM     18  H   UNL     1       8.101   4.839  13.007  0.00  0.00    +0.000 HD
ENDBRANCH  13  16
ENDBRANCH   4  10
BRANCH   1  20
ATOM     19  C   UNL     1       1.404   2.557  21.772  0.00  0.00    +0.000 C 
ATOM     20  O   UNL     1       1.003   2.828  20.434  0.00  0.00    +0.000 OA
ENDBRANCH   1  20
TORSDOF 3
ENDMDL
MODEL 8
REMARK VINA RESULT:      -7.1      0.978      1.271
REMARK  Name = 
REMARK  4 active torsions:
REMARK  status: ('A' for Active; 'I' for Inactive)
REMARK    1  A    between atoms: C_1  and  O_2
REMARK    2  A    between atoms: O_2  and  C_3
REMARK    3  A    between atoms: C_6  and  C_7
REMARK    4  A    between atoms: C_10  and  N_11
REMARK                            x       y       z     vdW  Elec       q    Type
REMARK                         _______ _______ _______ _____ _____    ______ ____
ROOT
ATOM      1  C   UNL     1       6.893   4.984  15.097  0.00  0.00    +0.000 A 
ATOM      2  C   UNL     1       5.658   4.630  14.549  0.00  0.00    +0.000 A 
ATOM      3  C   UNL     1       4.566   4.308  15.366  0.00  0.00    +0.000 A 
ATOM      4  C   UNL     1       4.639   4.302  16.779  0.00  0.00    +0.000 A 
ATOM      5  C   UNL     1       5.888   4.672  17.336  0.00  0.00    +0.000 A 
ATOM      6  C   UNL     1       6.463   4.804  18.624  0.00  0.00    +0.000 A 
ATOM      7  N   UNL     1       7.733   5.213  18.589  0.00  0.00    +0.000 NA
ATOM      8  O   UNL     1       8.034   5.329  17.240  0.00  0.00    +0.000 OA
ATOM      9  C   UNL     1       6.940   5.001  16.492  0.00  0.00    +0.000 A 
ENDROOT
BRANCH   4  10
ATOM     10  C   UNL     1       3.491   3.900  17.619  0.00  0.00    +0.000 A 
ATOM     11  C   UNL     1       3.156   2.543  17.779  0.00  0.00    +0.000 A 
ATOM     12  C   UNL     1       2.076   2.139  18.574  0.00  0.00    +0.000 A 
ATOM     13  C   UNL     1       1.332   3.072  19.292  0.00  0.00    +0.000 A 
ATOM     14  C   UNL     1       1.606   4.423  19.092  0.00  0.00    +0.000 A 
ATOM     15  C   UNL     1       2.668   4.831  18.272  0.00  0.00    +0.000 A 
BRANCH  13  16
ATOM     16  N   UNL     1       0.194   2.675  20.000  0.00  0.00    +0.000 N 
ATOM     17  H   UNL     1      -0.632   2.568  19.421  0.00  0.00    +0.000 HD
ATOM     18  H   UNL     1       0.347   1.869  20.599  0.00  0.00    +0.000 HD
ENDBRANCH  13  16
ENDBRANCH   4  10
BRANCH   1  20
ATOM     19  C   UNL     1       7.931   5.273  12.982  0.00  0.00    +0.000 C 
ATOM     20  O   UNL     1       8.021   5.304  14.401  0.00  0.00    +0.000 OA
ENDBRANCH   1  20
TORSDOF 3
ENDMDL
MODEL 9
REMARK VINA RESULT:      -7.0      3.131      6.231
REMARK  Name = 
REMARK  4 active torsions:
REMARK  status: ('A' for Active; 'I' for Inactive)
REMARK    1  A    between atoms: C_1  and  O_2
REMARK    2  A    between atoms: O_2  and  C_3
REMARK    3  A    between atoms: C_6  and  C_7
REMARK    4  A    between atoms: C_10  and  N_11
REMARK                            x       y       z     vdW  Elec       q    Type
REMARK                         _______ _______ _______ _____ _____    ______ ____
ROOT
ATOM      1  C   UNL     1       2.011   3.056  19.630  0.00  0.00    +0.000 A 
ATOM      2  C   UNL     1       2.703   2.119  18.858  0.00  0.00    +0.000 A 
ATOM      3  C   UNL     1       3.705   2.513  17.961  0.00  0.00    +0.000 A 
ATOM      4  C   UNL     1       4.069   3.866  17.763  0.00  0.00    +0.000 A 
ATOM      5  C   UNL     1       3.376   4.816  18.554  0.00  0.00    +0.000 A 
ATOM      6  C   UNL     1       3.351   6.222  18.719  0.00  0.00    +0.000 A 
ATOM      7  N   UNL     1       2.479   6.623  19.647  0.00  0.00    +0.000 NA
ATOM      8  O   UNL     1       1.876   5.459  20.098  0.00  0.00    +0.000 OA
ATOM      9  C   UNL     1       2.403   4.382  19.443  0.00  0.00    +0.000 A 
ENDROOT
BRANCH   4  10
ATOM     10  C   UNL     1       5.086   4.263  16.767  0.00  0.00    +0.000 A 
ATOM     11  C   UNL     1       4.807   4.203  15.390  0.00  0.00    +0.000 A 
ATOM     12  C   UNL     1       5.755   4.579  14.428  0.00  0.00    +0.000 A 
ATOM     13  C   UNL     1       6.991   5.093  14.811  0.00  0.00    +0.000 A 
ATOM     14  C   UNL     1       7.310   5.096  16.167  0.00  0.00    +0.000 A 
ATOM     15  C   UNL     1       6.374   4.691  17.129  0.00  0.00    +0.000 A 
BRANCH  13  16
ATOM     16  N   UNL     1       7.969   5.370  13.850  0.00  0.00    +0.000 N 
ATOM     17  H   UNL     1       8.919   5.279  14.195  0.00  0.00    +0.000 HD
ATOM     18  H   UNL     1       7.832   4.875  12.975  0.00  0.00    +0.000 HD
ENDBRANCH  13  16
ENDBRANCH   4  10
BRANCH   1  20
ATOM     19  C   UNL     1       1.409   2.495  21.857  0.00  0.00    +0.000 C 
ATOM     20  O   UNL     1       1.015   2.786  20.521  0.00  0.00    +0.000 OA
ENDBRANCH   1  20
TORSDOF 3
ENDMDL
