MODEL 1
REMARK VINA RESULT:      -8.9      0.000      0.000
REMARK  Name = 
REMARK  4 active torsions:
REMARK  status: ('A' for Active; 'I' for Inactive)
REMARK    1  A    between atoms: N_13  and  C_14
REMARK    2  A    between atoms: C_14  and  C_15
REMARK    3  A    between atoms: C_15  and  N_16
REMARK    4  A    between atoms: C_19  and  C_20
REMARK                            x       y       z     vdW  Elec       q    Type
REMARK                         _______ _______ _______ _____ _____    ______ ____
ROOT
ATOM      1  O   UNL     1       3.239   1.889  19.006  0.00  0.00    +0.000 OA
ATOM      2  C   UNL     1       3.674   2.802  18.325  0.00  0.00    +0.000 C 
ATOM      3  N   UNL     1       4.627   2.665  17.325  0.00  0.00    +0.000 N 
ATOM      4  C   UNL     1       4.887   3.874  16.703  0.00  0.00    +0.000 A 
ATOM      5  C   UNL     1       5.764   4.103  15.666  0.00  0.00    +0.000 A 
ATOM      6  C   UNL     1       5.869   5.410  15.190  0.00  0.00    +0.000 A 
ATOM      7  C   UNL     1       5.106   6.443  15.759  0.00  0.00    +0.000 A 
ATOM      8  C   UNL     1       4.221   6.184  16.813  0.00  0.00    +0.000 A 
ATOM      9  C   UNL     1       4.117   4.883  17.280  0.00  0.00    +0.000 A 
ATOM     10  C   UNL     1       3.286   4.296  18.396  0.00  0.00    +0.000 C 
ATOM     11  C   UNL     1       1.777   4.468  18.241  0.00  0.00    +0.000 C 
ATOM     12  C   UNL     1       1.302   4.704  19.669  0.00  0.00    +0.000 C 
ATOM     13  N   UNL     1       2.387   5.465  20.321  0.00  0.00    +0.000 NA
ATOM     14  C   UNL     1       3.622   4.849  19.787  0.00  0.00    +0.000 C 
ATOM     15  H   UNL     1       5.044   1.777  17.088  0.00  0.00    +0.000 HD
ENDROOT
BRANCH  13  16
ATOM     16  C   UNL     1       2.252   6.900  20.019  0.00  0.00    +0.000 C 
BRANCH  16  17
ATOM     17  C   UNL     1       1.172   7.646  20.838  0.00  0.00    +0.000 C 
BRANCH  17  18
ATOM     18  N   UNL     1       1.291   9.125  20.755  0.00  0.00    +0.000 NA
ATOM     19  C   UNL     1       1.273   9.561  19.352  0.00  0.00    +0.000 C 
ATOM     20  C   UNL     1       1.188  11.078  19.180  0.00  0.00    +0.000 C 
ATOM     21  C   UNL     1       0.007  11.691  19.943  0.00  0.00    +0.000 C 
ATOM     22  C   UNL     1       0.144  11.249  21.412  0.00  0.00    +0.000 C 
ATOM     23  C   UNL     1       0.205   9.728  21.547  0.00  0.00    +0.000 C 
BRANCH  21  24
ATOM     24  C   UNL     1      -1.383  11.456  19.347  0.00  0.00    +0.000 A 
ATOM     25  C   UNL     1      -1.644  10.501  18.348  0.00  0.00    +0.000 A 
ATOM     26  C   UNL     1      -2.918  10.358  17.789  0.00  0.00    +0.000 A 
ATOM     27  C   UNL     1      -3.951  11.187  18.204  0.00  0.00    +0.000 A 
ATOM     28 CL   UNL     1      -5.506  11.043  17.482  0.00  0.00    +0.000 Cl
ATOM     29  C   UNL     1      -3.724  12.147  19.183  0.00  0.00    +0.000 A 
ATOM     30  C   UNL     1      -2.450  12.281  19.747  0.00  0.00    +0.000 A 
ENDBRANCH  21  24
ENDBRANCH  17  18
ENDBRANCH  16  17
ENDBRANCH  13  16
TORSDOF 4
ENDMDL
MODEL 2
REMARK VINA RESULT:      -8.7      0.994      1.057
REMARK  Name = 
REMARK  4 active torsions:
REMARK  status: ('A' for Active; 'I' for Inactive)
REMARK    1  A    between atoms: N_13  and  C_14
REMARK    2  A    between atoms: C_14  and  C_15
REMARK    3  A    between atoms: C_15  and  N_16
REMARK    4  A    between atoms: C_19  and  C_20
REMARK                            x       y       z     vdW  Elec       q    Type
REMARK                         _______ _______ _______ _____ _____    ______ ____
ROOT
ATOM      1  O   UNL     1       3.903   2.087  20.040  0.00  0.00    +0.000 OA
ATOM      2  C   UNL     1       4.124   3.073  19.358  0.00  0.00    +0.000 C 
ATOM      3  N   UNL     1       5.248   3.256  18.564  0.00  0.00    +0.000 N 
ATOM      4  C   UNL     1       5.194   4.456  17.878  0.00  0.00    +0.000 A 
ATOM      5  C   UNL     1       6.129   4.952  16.996  0.00  0.00    +0.000 A 
ATOM      6  C   UNL     1       5.870   6.193  16.415  0.00  0.00    +0.000 A 
ATOM      7  C   UNL     1       4.698   6.901  16.729  0.00  0.00    +0.000 A 
ATOM      8  C   UNL     1       3.763   6.375  17.629  0.00  0.00    +0.000 A 
ATOM      9  C   UNL     1       4.023   5.140  18.201  0.00  0.00    +0.000 A 
ATOM     10  C   UNL     1       3.237   4.329  19.204  0.00  0.00    +0.000 C 
ATOM     11  C   UNL     1       1.828   3.942  18.765  0.00  0.00    +0.000 C 
ATOM     12  C   UNL     1       1.019   4.037  20.053  0.00  0.00    +0.000 C 
ATOM     13  N   UNL     1       1.617   5.158  20.808  0.00  0.00    +0.000 NA
ATOM     14  C   UNL     1       3.070   5.010  20.569  0.00  0.00    +0.000 C 
ATOM     15  H   UNL     1       5.985   2.570  18.497  0.00  0.00    +0.000 HD
ENDROOT
BRANCH  13  16
ATOM     16  C   UNL     1       1.059   6.438  20.340  0.00  0.00    +0.000 C 
BRANCH  16  17
ATOM     17  C   UNL     1       1.285   7.639  21.289  0.00  0.00    +0.000 C 
BRANCH  17  18
ATOM     18  N   UNL     1       1.624   8.896  20.573  0.00  0.00    +0.000 NA
ATOM     19  C   UNL     1       1.444   8.725  19.125  0.00  0.00    +0.000 C 
ATOM     20  C   UNL     1       1.577  10.023  18.329  0.00  0.00    +0.000 C 
ATOM     21  C   UNL     1       0.655  11.131  18.854  0.00  0.00    +0.000 C 
ATOM     22  C   UNL     1       0.961  11.298  20.353  0.00  0.00    +0.000 C 
ATOM     23  C   UNL     1       0.798   9.986  21.119  0.00  0.00    +0.000 C 
BRANCH  21  24
ATOM     24  C   UNL     1      -0.835  10.983  18.533  0.00  0.00    +0.000 A 
ATOM     25  C   UNL     1      -1.335  10.065  17.591  0.00  0.00    +0.000 A 
ATOM     26  C   UNL     1      -2.699  10.002  17.286  0.00  0.00    +0.000 A 
ATOM     27  C   UNL     1      -3.585  10.875  17.901  0.00  0.00    +0.000 A 
ATOM     28 CL   UNL     1      -5.255  10.829  17.491  0.00  0.00    +0.000 Cl
ATOM     29  C   UNL     1      -3.121  11.799  18.830  0.00  0.00    +0.000 A 
ATOM     30  C   UNL     1      -1.758  11.853  19.141  0.00  0.00    +0.000 A 
ENDBRANCH  21  24
ENDBRANCH  17  18
ENDBRANCH  16  17
ENDBRANCH  13  16
TORSDOF 4
ENDMDL
MODEL 3
REMARK VINA RESULT:      -8.5      2.533      3.614
REMARK  Name = 
REMARK  4 active torsions:
REMARK  status: ('A' for Active; 'I' for Inactive)
REMARK    1  A    between atoms: N_13  and  C_14
REMARK    2  A    between atoms: C_14  and  C_15
REMARK    3  A    between atoms: C_15  and  N_16
REMARK    4  A    between atoms: C_19  and  C_20
REMARK                            x       y       z     vdW  Elec       q    Type
REMARK                         _______ _______ _______ _____ _____    ______ ____
ROOT
ATOM      1  O   UNL     1       3.012   1.944  18.980  0.00  0.00    +0.000 OA
ATOM      2  C   UNL     1       3.529   2.815  18.301  0.00  0.00    +0.000 C 
ATOM      3  N   UNL     1       4.510   2.599  17.342  0.00  0.00    +0.000 N 
ATOM      4  C   UNL     1       4.867   3.777  16.709  0.00  0.00    +0.000 A 
ATOM      5  C   UNL     1       5.796   3.932  15.704  0.00  0.00    +0.000 A 
ATOM      6  C   UNL     1       6.000   5.219  15.209  0.00  0.00    +0.000 A 
ATOM      7  C   UNL     1       5.280   6.308  15.728  0.00  0.00    +0.000 A 
ATOM      8  C   UNL     1       4.342   6.125  16.750  0.00  0.00    +0.000 A 
ATOM      9  C   UNL     1       4.140   4.843  17.236  0.00  0.00    +0.000 A 
ATOM     10  C   UNL     1       3.231   4.331  18.329  0.00  0.00    +0.000 C 
ATOM     11  C   UNL     1       1.743   4.591  18.110  0.00  0.00    +0.000 C 
ATOM     12  C   UNL     1       1.228   4.885  19.514  0.00  0.00    +0.000 C 
ATOM     13  N   UNL     1       2.331   5.591  20.195  0.00  0.00    +0.000 NA
ATOM     14  C   UNL     1       3.546   4.891  19.722  0.00  0.00    +0.000 C 
ATOM     15  H   UNL     1       4.880   1.684  17.138  0.00  0.00    +0.000 HD
ENDROOT
BRANCH  13  16
ATOM     16  C   UNL     1       2.297   7.026  19.862  0.00  0.00    +0.000 C 
BRANCH  16  17
ATOM     17  C   UNL     1       1.663   7.936  20.939  0.00  0.00    +0.000 C 
BRANCH  17  18
ATOM     18  N   UNL     1       0.633   8.860  20.395  0.00  0.00    +0.000 NA
ATOM     19  C   UNL     1       0.367   9.946  21.348  0.00  0.00    +0.000 C 
ATOM     20  C   UNL     1      -0.529  11.051  20.789  0.00  0.00    +0.000 C 
ATOM     21  C   UNL     1      -0.003  11.621  19.465  0.00  0.00    +0.000 C 
ATOM     22  C   UNL     1       0.175  10.432  18.504  0.00  0.00    +0.000 C 
ATOM     23  C   UNL     1       1.092   9.358  19.087  0.00  0.00    +0.000 C 
BRANCH  21  24
ATOM     24  C   UNL     1       1.220  12.537  19.559  0.00  0.00    +0.000 A 
ATOM     25  C   UNL     1       1.613  13.183  20.746  0.00  0.00    +0.000 A 
ATOM     26  C   UNL     1       2.704  14.058  20.775  0.00  0.00    +0.000 A 
ATOM     27  C   UNL     1       3.408  14.322  19.608  0.00  0.00    +0.000 A 
ATOM     28 CL   UNL     1       4.720  15.435  19.634  0.00  0.00    +0.000 Cl
ATOM     29  C   UNL     1       3.040  13.707  18.417  0.00  0.00    +0.000 A 
ATOM     30  C   UNL     1       1.954  12.824  18.394  0.00  0.00    +0.000 A 
ENDBRANCH  21  24
ENDBRANCH  17  18
ENDBRANCH  16  17
ENDBRANCH  13  16
TORSDOF 4
ENDMDL
MODEL 4
REMARK VINA RESULT:      -8.3      0.549      1.005
REMARK  Name = 
REMARK  4 active torsions:
REMARK  status: ('A' for Active; 'I' for Inactive)
REMARK    1  A    between atoms: N_13  and  C_14
REMARK    2  A    between atoms: C_14  and  C_15
REMARK    3  A    between atoms: C_15  and  N_16
REMARK    4  A    between atoms: C_19  and  C_20
REMARK                            x       y       z     vdW  Elec       q    Type
REMARK                         _______ _______ _______ _____ _____    ______ ____
ROOT
ATOM      1  O   UNL     1       3.347   2.249  19.700  0.00  0.00    +0.000 OA
ATOM      2  C   UNL     1       3.751   3.090  18.916  0.00  0.00    +0.000 C 
ATOM      3  N   UNL     1       4.771   2.895  17.995  0.00  0.00    +0.000 N 
ATOM      4  C   UNL     1       4.973   4.021  17.216  0.00  0.00    +0.000 A 
ATOM      5  C   UNL     1       5.892   4.176  16.201  0.00  0.00    +0.000 A 
ATOM      6  C   UNL     1       5.924   5.406  15.545  0.00  0.00    +0.000 A 
ATOM      7  C   UNL     1       5.048   6.440  15.918  0.00  0.00    +0.000 A 
ATOM      8  C   UNL     1       4.124   6.257  16.953  0.00  0.00    +0.000 A 
ATOM      9  C   UNL     1       4.093   5.032  17.600  0.00  0.00    +0.000 A 
ATOM     10  C   UNL     1       3.243   4.540  18.747  0.00  0.00    +0.000 C 
ATOM     11  C   UNL     1       1.738   4.556  18.494  0.00  0.00    +0.000 C 
ATOM     12  C   UNL     1       1.158   4.951  19.847  0.00  0.00    +0.000 C 
ATOM     13  N   UNL     1       2.138   5.888  20.434  0.00  0.00    +0.000 NA
ATOM     14  C   UNL     1       3.449   5.311  20.058  0.00  0.00    +0.000 C 
ATOM     15  H   UNL     1       5.270   2.022  17.911  0.00  0.00    +0.000 HD
ENDROOT
BRANCH  13  16
ATOM     16  C   UNL     1       1.911   7.248  19.918  0.00  0.00    +0.000 C 
BRANCH  16  17
ATOM     17  C   UNL     1       1.059   8.163  20.829  0.00  0.00    +0.000 C 
BRANCH  17  18
ATOM     18  N   UNL     1       1.285   9.611  20.584  0.00  0.00    +0.000 NA
ATOM     19  C   UNL     1       1.214   9.902  19.145  0.00  0.00    +0.000 C 
ATOM     20  C   UNL     1       1.235  11.395  18.817  0.00  0.00    +0.000 C 
ATOM     21  C   UNL     1       0.155  12.179  19.573  0.00  0.00    +0.000 C 
ATOM     22  C   UNL     1       0.348  11.879  21.071  0.00  0.00    +0.000 C 
ATOM     23  C   UNL     1       0.301  10.380  21.364  0.00  0.00    +0.000 C 
BRANCH  21  24
ATOM     24  C   UNL     1      -1.284  12.000  19.081  0.00  0.00    +0.000 A 
ATOM     25  C   UNL     1      -2.412  12.298  19.866  0.00  0.00    +0.000 A 
ATOM     26  C   UNL     1      -3.710  12.067  19.398  0.00  0.00    +0.000 A 
ATOM     27  C   UNL     1      -3.901  11.508  18.142  0.00  0.00    +0.000 A 
ATOM     28 CL   UNL     1      -5.496  11.180  17.586  0.00  0.00    +0.000 Cl
ATOM     29  C   UNL     1      -2.807  11.195  17.344  0.00  0.00    +0.000 A 
ATOM     30  C   UNL     1      -1.510  11.437  17.812  0.00  0.00    +0.000 A 
ENDBRANCH  21  24
ENDBRANCH  17  18
ENDBRANCH  16  17
ENDBRANCH  13  16
TORSDOF 4
ENDMDL
MODEL 5
REMARK VINA RESULT:      -8.2      1.004      1.372
REMARK  Name = 
REMARK  4 active torsions:
REMARK  status: ('A' for Active; 'I' for Inactive)
REMARK    1  A    between atoms: N_13  and  C_14
REMARK    2  A    between atoms: C_14  and  C_15
REMARK    3  A    between atoms: C_15  and  N_16
REMARK    4  A    between atoms: C_19  and  C_20
REMARK                            x       y       z     vdW  Elec       q    Type
REMARK                         _______ _______ _______ _____ _____    ______ ____
ROOT
ATOM      1  O   UNL     1       2.781   2.010  17.582  0.00  0.00    +0.000 OA
ATOM      2  C   UNL     1       3.576   2.932  17.523  0.00  0.00    +0.000 C 
ATOM      3  N   UNL     1       4.752   2.924  16.786  0.00  0.00    +0.000 N 
ATOM      4  C   UNL     1       5.421   4.131  16.886  0.00  0.00    +0.000 A 
ATOM      5  C   UNL     1       6.608   4.476  16.279  0.00  0.00    +0.000 A 
ATOM      6  C   UNL     1       7.107   5.756  16.520  0.00  0.00    +0.000 A 
ATOM      7  C   UNL     1       6.414   6.647  17.357  0.00  0.00    +0.000 A 
ATOM      8  C   UNL     1       5.209   6.273  17.963  0.00  0.00    +0.000 A 
ATOM      9  C   UNL     1       4.716   5.001  17.716  0.00  0.00    +0.000 A 
ATOM     10  C   UNL     1       3.478   4.305  18.228  0.00  0.00    +0.000 C 
ATOM     11  C   UNL     1       2.159   4.991  17.886  0.00  0.00    +0.000 C 
ATOM     12  C   UNL     1       1.309   4.758  19.130  0.00  0.00    +0.000 C 
ATOM     13  N   UNL     1       2.255   4.799  20.263  0.00  0.00    +0.000 NA
ATOM     14  C   UNL     1       3.454   4.101  19.749  0.00  0.00    +0.000 C 
ATOM     15  H   UNL     1       5.044   2.130  16.236  0.00  0.00    +0.000 HD
ENDROOT
BRANCH  13  16
ATOM     16  C   UNL     1       2.500   6.193  20.669  0.00  0.00    +0.000 C 
BRANCH  16  17
ATOM     17  C   UNL     1       1.279   7.136  20.552  0.00  0.00    +0.000 C 
BRANCH  17  18
ATOM     18  N   UNL     1       1.646   8.527  20.177  0.00  0.00    +0.000 NA
ATOM     19  C   UNL     1       1.517   8.716  18.726  0.00  0.00    +0.000 C 
ATOM     20  C   UNL     1       1.679  10.168  18.277  0.00  0.00    +0.000 C 
ATOM     21  C   UNL     1       0.740  11.123  19.024  0.00  0.00    +0.000 C 
ATOM     22  C   UNL     1       0.993  10.916  20.528  0.00  0.00    +0.000 C 
ATOM     23  C   UNL     1       0.801   9.458  20.944  0.00  0.00    +0.000 C 
BRANCH  21  24
ATOM     24  C   UNL     1      -0.738  11.072  18.626  0.00  0.00    +0.000 A 
ATOM     25  C   UNL     1      -1.720  11.905  19.192  0.00  0.00    +0.000 A 
ATOM     26  C   UNL     1      -3.069  11.787  18.841  0.00  0.00    +0.000 A 
ATOM     27  C   UNL     1      -3.463  10.814  17.932  0.00  0.00    +0.000 A 
ATOM     28 CL   UNL     1      -5.128  10.638  17.537  0.00  0.00    +0.000 Cl
ATOM     29  C   UNL     1      -2.518   9.970  17.361  0.00  0.00    +0.000 A 
ATOM     30  C   UNL     1      -1.168  10.098  17.707  0.00  0.00    +0.000 A 
ENDBRANCH  21  24
ENDBRANCH  17  18
ENDBRANCH  16  17
ENDBRANCH  13  16
TORSDOF 4
ENDMDL
MODEL 6
REMARK VINA RESULT:      -8.1      1.869      2.406
REMARK  Name = 
REMARK  4 active torsions:
REMARK  status: ('A' for Active; 'I' for Inactive)
REMARK    1  A    between atoms: N_13  and  C_14
REMARK    2  A    between atoms: C_14  and  C_15
REMARK    3  A    between atoms: C_15  and  N_16
REMARK    4  A    between atoms: C_19  and  C_20
REMARK                            x       y       z     vdW  Elec       q    Type
REMARK                         _______ _______ _______ _____ _____    ______ ____
ROOT
ATOM      1  O   UNL     1       3.141   2.262  19.406  0.00  0.00    +0.000 OA
ATOM      2  C   UNL     1       3.628   3.074  18.638  0.00  0.00    +0.000 C 
ATOM      3  N   UNL     1       4.626   2.796  17.713  0.00  0.00    +0.000 N 
ATOM      4  C   UNL     1       4.941   3.911  16.956  0.00  0.00    +0.000 A 
ATOM      5  C   UNL     1       5.871   3.993  15.944  0.00  0.00    +0.000 A 
ATOM      6  C   UNL     1       6.027   5.225  15.312  0.00  0.00    +0.000 A 
ATOM      7  C   UNL     1       5.258   6.334  15.704  0.00  0.00    +0.000 A 
ATOM      8  C   UNL     1       4.319   6.225  16.736  0.00  0.00    +0.000 A 
ATOM      9  C   UNL     1       4.165   4.997  17.359  0.00  0.00    +0.000 A 
ATOM     10  C   UNL     1       3.268   4.571  18.497  0.00  0.00    +0.000 C 
ATOM     11  C   UNL     1       1.773   4.742  18.244  0.00  0.00    +0.000 C 
ATOM     12  C   UNL     1       1.233   5.167  19.605  0.00  0.00    +0.000 C 
ATOM     13  N   UNL     1       2.300   5.989  20.209  0.00  0.00    +0.000 NA
ATOM     14  C   UNL     1       3.547   5.292  19.822  0.00  0.00    +0.000 C 
ATOM     15  H   UNL     1       5.035   1.879  17.612  0.00  0.00    +0.000 HD
ENDROOT
BRANCH  13  16
ATOM     16  C   UNL     1       2.211   7.376  19.720  0.00  0.00    +0.000 C 
BRANCH  16  17
ATOM     17  C   UNL     1       1.331   8.319  20.574  0.00  0.00    +0.000 C 
BRANCH  17  18
ATOM     18  N   UNL     1       1.077   9.632  19.926  0.00  0.00    +0.000 NA
ATOM     19  C   UNL     1      -0.286   9.676  19.377  0.00  0.00    +0.000 C 
ATOM     20  C   UNL     1      -0.702  11.057  18.870  0.00  0.00    +0.000 C 
ATOM     21  C   UNL     1      -0.518  12.151  19.929  0.00  0.00    +0.000 C 
ATOM     22  C   UNL     1       0.949  12.086  20.393  0.00  0.00    +0.000 C 
ATOM     23  C   UNL     1       1.323  10.698  20.911  0.00  0.00    +0.000 C 
BRANCH  21  24
ATOM     24  C   UNL     1      -1.535  12.167  21.073  0.00  0.00    +0.000 A 
ATOM     25  C   UNL     1      -2.815  12.738  20.961  0.00  0.00    +0.000 A 
ATOM     26  C   UNL     1      -3.693  12.782  22.049  0.00  0.00    +0.000 A 
ATOM     27  C   UNL     1      -3.295  12.276  23.279  0.00  0.00    +0.000 A 
ATOM     28 CL   UNL     1      -4.357  12.374  24.628  0.00  0.00    +0.000 Cl
ATOM     29  C   UNL     1      -2.033  11.713  23.425  0.00  0.00    +0.000 A 
ATOM     30  C   UNL     1      -1.160  11.662  22.331  0.00  0.00    +0.000 A 
ENDBRANCH  21  24
ENDBRANCH  17  18
ENDBRANCH  16  17
ENDBRANCH  13  16
TORSDOF 4
ENDMDL
MODEL 7
REMARK VINA RESULT:      -7.9      1.899      2.395
REMARK  Name = 
REMARK  4 active torsions:
REMARK  status: ('A' for Active; 'I' for Inactive)
REMARK    1  A    between atoms: N_13  and  C_14
REMARK    2  A    between atoms: C_14  and  C_15
REMARK    3  A    between atoms: C_15  and  N_16
REMARK    4  A    between atoms: C_19  and  C_20
REMARK                            x       y       z     vdW  Elec       q    Type
REMARK                         _______ _______ _______ _____ _____    ______ ____
ROOT
ATOM      1  O   UNL     1       7.924   4.845  19.020  0.00  0.00    +0.000 OA
ATOM      2  C   UNL     1       7.345   4.746  17.952  0.00  0.00    +0.000 C 
ATOM      3  N   UNL     1       7.961   4.515  16.730  0.00  0.00    +0.000 N 
ATOM      4  C   UNL     1       7.035   4.410  15.707  0.00  0.00    +0.000 A 
ATOM      5  C   UNL     1       7.292   4.172  14.375  0.00  0.00    +0.000 A 
ATOM      6  C   UNL     1       6.199   4.106  13.511  0.00  0.00    +0.000 A 
ATOM      7  C   UNL     1       4.892   4.281  13.995  0.00  0.00    +0.000 A 
ATOM      8  C   UNL     1       4.657   4.522  15.353  0.00  0.00    +0.000 A 
ATOM      9  C   UNL     1       5.746   4.583  16.209  0.00  0.00    +0.000 A 
ATOM     10  C   UNL     1       5.824   4.844  17.694  0.00  0.00    +0.000 C 
ATOM     11  C   UNL     1       5.066   3.848  18.569  0.00  0.00    +0.000 C 
ATOM     12  C   UNL     1       4.511   4.718  19.691  0.00  0.00    +0.000 C 
ATOM     13  N   UNL     1       4.200   6.017  19.062  0.00  0.00    +0.000 NA
ATOM     14  C   UNL     1       5.319   6.230  18.116  0.00  0.00    +0.000 C 
ATOM     15  H   UNL     1       8.960   4.416  16.634  0.00  0.00    +0.000 HD
ENDROOT
BRANCH  13  16
ATOM     16  C   UNL     1       2.875   5.966  18.421  0.00  0.00    +0.000 C 
BRANCH  16  17
ATOM     17  C   UNL     1       1.747   6.697  19.186  0.00  0.00    +0.000 C 
BRANCH  17  18
ATOM     18  N   UNL     1       1.977   8.159  19.315  0.00  0.00    +0.000 NA
ATOM     19  C   UNL     1       1.820   8.818  18.010  0.00  0.00    +0.000 C 
ATOM     20  C   UNL     1       1.841  10.345  18.084  0.00  0.00    +0.000 C 
ATOM     21  C   UNL     1       0.820  10.898  19.087  0.00  0.00    +0.000 C 
ATOM     22  C   UNL     1       1.103  10.217  20.438  0.00  0.00    +0.000 C 
ATOM     23  C   UNL     1       1.054   8.693  20.330  0.00  0.00    +0.000 C 
BRANCH  21  24
ATOM     24  C   UNL     1      -0.648  10.851  18.658  0.00  0.00    +0.000 A 
ATOM     25  C   UNL     1      -1.131   9.998  17.649  0.00  0.00    +0.000 A 
ATOM     26  C   UNL     1      -2.471  10.027  17.247  0.00  0.00    +0.000 A 
ATOM     27  C   UNL     1      -3.348  10.929  17.833  0.00  0.00    +0.000 A 
ATOM     28 CL   UNL     1      -4.984  10.997  17.306  0.00  0.00    +0.000 Cl
ATOM     29  C   UNL     1      -2.900  11.791  18.827  0.00  0.00    +0.000 A 
ATOM     30  C   UNL     1      -1.561  11.753  19.233  0.00  0.00    +0.000 A 
ENDBRANCH  21  24
ENDBRANCH  17  18
ENDBRANCH  16  17
ENDBRANCH  13  16
TORSDOF 4
ENDMDL
MODEL 8
REMARK VINA RESULT:      -7.7      2.494      3.428
REMARK  Name = 
REMARK  4 active torsions:
REMARK  status: ('A' for Active; 'I' for Inactive)
REMARK    1  A    between atoms: N_13  and  C_14
REMARK    2  A    between atoms: C_14  and  C_15
REMARK    3  A    between atoms: C_15  and  N_16
REMARK    4  A    between atoms: C_19  and  C_20
REMARK                            x       y       z     vdW  Elec       q    Type
REMARK                         _______ _______ _______ _____ _____    ______ ____
ROOT
ATOM      1  O   UNL     1       3.947   2.179  20.169  0.00  0.00    +0.000 OA
ATOM      2  C   UNL     1       4.173   3.110  19.415  0.00  0.00    +0.000 C 
ATOM      3  N   UNL     1       5.293   3.223  18.603  0.00  0.00    +0.000 N 
ATOM      4  C   UNL     1       5.245   4.370  17.830  0.00  0.00    +0.000 A 
ATOM      5  C   UNL     1       6.178   4.791  16.909  0.00  0.00    +0.000 A 
ATOM      6  C   UNL     1       5.926   5.988  16.239  0.00  0.00    +0.000 A 
ATOM      7  C   UNL     1       4.761   6.727  16.506  0.00  0.00    +0.000 A 
ATOM      8  C   UNL     1       3.827   6.277  17.447  0.00  0.00    +0.000 A 
ATOM      9  C   UNL     1       4.081   5.085  18.108  0.00  0.00    +0.000 A 
ATOM     10  C   UNL     1       3.295   4.358  19.173  0.00  0.00    +0.000 C 
ATOM     11  C   UNL     1       1.880   3.951  18.771  0.00  0.00    +0.000 C 
ATOM     12  C   UNL     1       1.080   4.149  20.053  0.00  0.00    +0.000 C 
ATOM     13  N   UNL     1       1.691   5.317  20.719  0.00  0.00    +0.000 NA
ATOM     14  C   UNL     1       3.141   5.140  20.484  0.00  0.00    +0.000 C 
ATOM     15  H   UNL     1       6.024   2.528  18.583  0.00  0.00    +0.000 HD
ENDROOT
BRANCH  13  16
ATOM     16  C   UNL     1       1.140   6.564  20.161  0.00  0.00    +0.000 C 
BRANCH  16  17
ATOM     17  C   UNL     1       1.523   7.852  20.926  0.00  0.00    +0.000 C 
BRANCH  17  18
ATOM     18  N   UNL     1       0.441   8.870  20.940  0.00  0.00    +0.000 NA
ATOM     19  C   UNL     1       0.756   9.937  21.901  0.00  0.00    +0.000 C 
ATOM     20  C   UNL     1      -0.202  11.126  21.837  0.00  0.00    +0.000 C 
ATOM     21  C   UNL     1      -0.328  11.704  20.422  0.00  0.00    +0.000 C 
ATOM     22  C   UNL     1      -0.733  10.542  19.497  0.00  0.00    +0.000 C 
ATOM     23  C   UNL     1       0.258   9.381  19.571  0.00  0.00    +0.000 C 
BRANCH  21  24
ATOM     24  C   UNL     1       0.863  12.522  19.914  0.00  0.00    +0.000 A 
ATOM     25  C   UNL     1       1.379  12.408  18.611  0.00  0.00    +0.000 A 
ATOM     26  C   UNL     1       2.505  13.132  18.205  0.00  0.00    +0.000 A 
ATOM     27  C   UNL     1       3.150  13.968  19.106  0.00  0.00    +0.000 A 
ATOM     28 CL   UNL     1       4.562  14.822  18.621  0.00  0.00    +0.000 Cl
ATOM     29  C   UNL     1       2.669  14.097  20.404  0.00  0.00    +0.000 A 
ATOM     30  C   UNL     1       1.537  13.378  20.804  0.00  0.00    +0.000 A 
ENDBRANCH  21  24
ENDBRANCH  17  18
ENDBRANCH  16  17
ENDBRANCH  13  16
TORSDOF 4
ENDMDL
MODEL 9
REMARK VINA RESULT:      -7.5      3.997      9.411
REMARK  Name = 
REMARK  4 active torsions:
REMARK  status: ('A' for Active; 'I' for Inactive)
REMARK    1  A    between atoms: N_13  and  C_14
REMARK    2  A    between atoms: C_14  and  C_15
REMARK    3  A    between atoms: C_15  and  N_16
REMARK    4  A    between atoms: C_19  and  C_20
REMARK                            x       y       z     vdW  Elec       q    Type
REMARK                         _______ _______ _______ _____ _____    ______ ____
ROOT
ATOM      1  O   UNL     1      -0.845  12.728  17.750  0.00  0.00    +0.000 OA
ATOM      2  C   UNL     1      -0.820  12.216  18.856  0.00  0.00    +0.000 C 
ATOM      3  N   UNL     1      -1.390  12.761  19.998  0.00  0.00    +0.000 N 
ATOM      4  C   UNL     1      -1.233  11.926  21.091  0.00  0.00    +0.000 A 
ATOM      5  C   UNL     1      -1.682  12.143  22.374  0.00  0.00    +0.000 A 
ATOM      6  C   UNL     1      -1.409  11.162  23.327  0.00  0.00    +0.000 A 
ATOM      7  C   UNL     1      -0.699  10.001  22.975  0.00  0.00    +0.000 A 
ATOM      8  C   UNL     1      -0.253   9.804  21.664  0.00  0.00    +0.000 A 
ATOM      9  C   UNL     1      -0.530  10.781  20.720  0.00  0.00    +0.000 A 
ATOM     10  C   UNL     1      -0.172  10.871  19.255  0.00  0.00    +0.000 C 
ATOM     11  C   UNL     1      -0.708   9.737  18.386  0.00  0.00    +0.000 C 
ATOM     12  C   UNL     1       0.414   9.504  17.381  0.00  0.00    +0.000 C 
ATOM     13  N   UNL     1       1.664   9.760  18.125  0.00  0.00    +0.000 NA
ATOM     14  C   UNL     1       1.336  10.925  18.978  0.00  0.00    +0.000 C 
ATOM     15  H   UNL     1      -1.874  13.646  19.997  0.00  0.00    +0.000 HD
ENDROOT
BRANCH  13  16
ATOM     16  C   UNL     1       2.062   8.558  18.877  0.00  0.00    +0.000 C 
BRANCH  16  17
ATOM     17  C   UNL     1       1.716   7.213  18.197  0.00  0.00    +0.000 C 
BRANCH  17  18
ATOM     18  N   UNL     1       2.507   6.069  18.722  0.00  0.00    +0.000 NA
ATOM     19  C   UNL     1       2.351   4.897  17.849  0.00  0.00    +0.000 C 
ATOM     20  C   UNL     1       3.285   3.739  18.201  0.00  0.00    +0.000 C 
ATOM     21  C   UNL     1       4.757   4.168  18.260  0.00  0.00    +0.000 C 
ATOM     22  C   UNL     1       4.842   5.344  19.250  0.00  0.00    +0.000 C 
ATOM     23  C   UNL     1       3.912   6.490  18.856  0.00  0.00    +0.000 C 
BRANCH  21  24
ATOM     24  C   UNL     1       5.443   4.429  16.917  0.00  0.00    +0.000 A 
ATOM     25  C   UNL     1       4.891   4.050  15.680  0.00  0.00    +0.000 A 
ATOM     26  C   UNL     1       5.577   4.257  14.479  0.00  0.00    +0.000 A 
ATOM     27  C   UNL     1       6.843   4.827  14.497  0.00  0.00    +0.000 A 
ATOM     28 CL   UNL     1       7.707   5.037  13.025  0.00  0.00    +0.000 Cl
ATOM     29  C   UNL     1       7.420   5.205  15.704  0.00  0.00    +0.000 A 
ATOM     30  C   UNL     1       6.726   5.005  16.903  0.00  0.00    +0.000 A 
ENDBRANCH  21  24
ENDBRANCH  17  18
ENDBRANCH  16  17
ENDBRANCH  13  16
TORSDOF 4
ENDMDL
