MODEL 1
REMARK VINA RESULT:      -7.7      0.000      0.000
REMARK  Name = 
REMARK  8 active torsions:
REMARK  status: ('A' for Active; 'I' for Inactive)
REMARK    1  A    between atoms: C_1  and  C_2
REMARK    2  A    between atoms: C_2  and  O_4
REMARK    3  A    between atoms: O_4  and  C_5
REMARK    4  A    between atoms: C_5  and  C_6
REMARK    5  A    between atoms: C_5  and  N_7
REMARK    6  A    between atoms: C_8  and  S_9
REMARK    7  A    between atoms: S_9  and  C_11
REMARK    8  A    between atoms: C_11  and  C_12
REMARK                            x       y       z     vdW  Elec       q    Type
REMARK                         _______ _______ _______ _____ _____    ______ ____
ROOT
ATOM      1  N   UNL     1       3.915   5.216  18.076  0.00  0.00    +0.000 N 
ATOM      2  C   UNL     1       5.128   4.780  18.605  0.00  0.00    +0.000 A 
ATOM      3  N   UNL     1       5.008   3.605  19.184  0.00  0.00    +0.000 NA
ATOM      4  C   UNL     1       3.688   3.270  19.075  0.00  0.00    +0.000 A 
ATOM      5  C   UNL     1       3.042   2.126  19.571  0.00  0.00    +0.000 A 
ATOM      6  C   UNL     1       1.675   1.961  19.342  0.00  0.00    +0.000 A 
ATOM      7  C   UNL     1       0.967   2.913  18.618  0.00  0.00    +0.000 A 
ATOM      8  C   UNL     1       1.599   4.059  18.114  0.00  0.00    +0.000 A 
ATOM      9  C   UNL     1       2.973   4.236  18.366  0.00  0.00    +0.000 A 
ENDROOT
BRANCH   1  10
ATOM     10  C   UNL     1       3.744   6.486  17.358  0.00  0.00    +0.000 C 
ATOM     11  C   UNL     1       4.868   6.882  16.394  0.00  0.00    +0.000 C 
BRANCH  10  12
ATOM     12  O   UNL     1       3.616   7.514  18.362  0.00  0.00    +0.000 OA
BRANCH  12  14
ATOM     13  C   UNL     1       1.905   7.677  19.960  0.00  0.00    +0.000 C 
ATOM     14  C   UNL     1       2.351   7.972  18.562  0.00  0.00    +0.000 C 
ATOM     15  O   UNL     1       1.660   8.541  17.728  0.00  0.00    +0.000 OA
ENDBRANCH  12  14
ENDBRANCH  10  12
ENDBRANCH   1  10
BRANCH   2  16
ATOM     16  S   UNL     1       6.667   5.621  18.531  0.00  0.00    +0.000 S 
ATOM     17  O   UNL     1       7.223   5.618  20.002  0.00  0.00    +0.000 OA
BRANCH  16  18
ATOM     18  C   UNL     1       7.589   4.429  17.511  0.00  0.00    +0.000 C 
BRANCH  18  19
ATOM     19  C   UNL     1       7.099   4.392  16.083  0.00  0.00    +0.000 A 
ATOM     20  C   UNL     1       6.038   3.562  15.720  0.00  0.00    +0.000 A 
ATOM     21  C   UNL     1       5.580   3.584  14.402  0.00  0.00    +0.000 A 
ATOM     22  C   UNL     1       6.190   4.428  13.484  0.00  0.00    +0.000 A 
ATOM     23  C   UNL     1       7.239   5.218  13.919  0.00  0.00    +0.000 A 
ATOM     24  N   UNL     1       7.707   5.218  15.189  0.00  0.00    +0.000 NA
ENDBRANCH  18  19
ENDBRANCH  16  18
ENDBRANCH   2  16
TORSDOF 6
ENDMDL
MODEL 2
REMARK VINA RESULT:      -7.2      1.552      1.998
REMARK  Name = 
REMARK  8 active torsions:
REMARK  status: ('A' for Active; 'I' for Inactive)
REMARK    1  A    between atoms: C_1  and  C_2
REMARK    2  A    between atoms: C_2  and  O_4
REMARK    3  A    between atoms: O_4  and  C_5
REMARK    4  A    between atoms: C_5  and  C_6
REMARK    5  A    between atoms: C_5  and  N_7
REMARK    6  A    between atoms: C_8  and  S_9
REMARK    7  A    between atoms: S_9  and  C_11
REMARK    8  A    between atoms: C_11  and  C_12
REMARK                            x       y       z     vdW  Elec       q    Type
REMARK                         _______ _______ _______ _____ _____    ______ ____
ROOT
ATOM      1  N   UNL     1       2.993   5.715  18.219  0.00  0.00    +0.000 N 
ATOM      2  C   UNL     1       3.966   5.291  17.316  0.00  0.00    +0.000 A 
ATOM      3  N   UNL     1       3.932   3.987  17.147  0.00  0.00    +0.000 NA
ATOM      4  C   UNL     1       2.949   3.530  17.976  0.00  0.00    +0.000 A 
ATOM      5  C   UNL     1       2.547   2.201  18.193  0.00  0.00    +0.000 A 
ATOM      6  C   UNL     1       1.503   1.940  19.081  0.00  0.00    +0.000 A 
ATOM      7  C   UNL     1       0.859   2.986  19.732  0.00  0.00    +0.000 A 
ATOM      8  C   UNL     1       1.248   4.318  19.524  0.00  0.00    +0.000 A 
ATOM      9  C   UNL     1       2.317   4.579  18.646  0.00  0.00    +0.000 A 
ENDROOT
BRANCH   1  10
ATOM     10  C   UNL     1       2.783   7.119  18.595  0.00  0.00    +0.000 C 
ATOM     11  C   UNL     1       2.160   7.370  19.973  0.00  0.00    +0.000 C 
BRANCH  10  12
ATOM     12  O   UNL     1       1.921   7.692  17.590  0.00  0.00    +0.000 OA
BRANCH  12  14
ATOM     13  C   UNL     1       2.678   9.905  17.793  0.00  0.00    +0.000 C 
ATOM     14  C   UNL     1       1.512   8.966  17.836  0.00  0.00    +0.000 C 
ATOM     15  O   UNL     1       0.363   9.311  18.067  0.00  0.00    +0.000 OA
ENDBRANCH  12  14
ENDBRANCH  10  12
ENDBRANCH   1  10
BRANCH   2  16
ATOM     16  S   UNL     1       5.115   6.305  16.459  0.00  0.00    +0.000 S 
ATOM     17  O   UNL     1       5.558   7.408  17.488  0.00  0.00    +0.000 OA
BRANCH  16  18
ATOM     18  C   UNL     1       6.448   5.088  16.232  0.00  0.00    +0.000 C 
BRANCH  18  19
ATOM     19  C   UNL     1       6.703   4.775  14.776  0.00  0.00    +0.000 A 
ATOM     20  C   UNL     1       5.924   3.831  14.108  0.00  0.00    +0.000 A 
ATOM     21  C   UNL     1       6.156   3.599  12.752  0.00  0.00    +0.000 A 
ATOM     22  C   UNL     1       7.155   4.309  12.100  0.00  0.00    +0.000 A 
ATOM     23  C   UNL     1       7.889   5.225  12.833  0.00  0.00    +0.000 A 
ATOM     24  N   UNL     1       7.689   5.472  14.149  0.00  0.00    +0.000 NA
ENDBRANCH  18  19
ENDBRANCH  16  18
ENDBRANCH   2  16
TORSDOF 6
ENDMDL
MODEL 3
REMARK VINA RESULT:      -7.2      1.374      1.652
REMARK  Name = 
REMARK  8 active torsions:
REMARK  status: ('A' for Active; 'I' for Inactive)
REMARK    1  A    between atoms: C_1  and  C_2
REMARK    2  A    between atoms: C_2  and  O_4
REMARK    3  A    between atoms: O_4  and  C_5
REMARK    4  A    between atoms: C_5  and  C_6
REMARK    5  A    between atoms: C_5  and  N_7
REMARK    6  A    between atoms: C_8  and  S_9
REMARK    7  A    between atoms: S_9  and  C_11
REMARK    8  A    between atoms: C_11  and  C_12
REMARK                            x       y       z     vdW  Elec       q    Type
REMARK                         _______ _______ _______ _____ _____    ______ ____
ROOT
ATOM      1  N   UNL     1       3.763   5.160  18.524  0.00  0.00    +0.000 N 
ATOM      2  C   UNL     1       4.948   4.448  18.350  0.00  0.00    +0.000 A 
ATOM      3  N   UNL     1       4.975   3.366  19.099  0.00  0.00    +0.000 NA
ATOM      4  C   UNL     1       3.811   3.377  19.811  0.00  0.00    +0.000 A 
ATOM      5  C   UNL     1       3.381   2.457  20.781  0.00  0.00    +0.000 A 
ATOM      6  C   UNL     1       2.139   2.639  21.392  0.00  0.00    +0.000 A 
ATOM      7  C   UNL     1       1.333   3.712  21.032  0.00  0.00    +0.000 A 
ATOM      8  C   UNL     1       1.747   4.637  20.062  0.00  0.00    +0.000 A 
ATOM      9  C   UNL     1       3.009   4.467  19.464  0.00  0.00    +0.000 A 
ENDROOT
BRANCH   1  10
ATOM     10  C   UNL     1       3.442   6.403  17.810  0.00  0.00    +0.000 C 
ATOM     11  C   UNL     1       4.391   6.802  16.674  0.00  0.00    +0.000 C 
BRANCH  10  12
ATOM     12  O   UNL     1       3.436   7.456  18.795  0.00  0.00    +0.000 OA
BRANCH  12  14
ATOM     13  C   UNL     1       1.769   8.696  17.704  0.00  0.00    +0.000 C 
ATOM     14  C   UNL     1       2.235   8.069  18.980  0.00  0.00    +0.000 C 
ATOM     15  O   UNL     1       1.616   8.114  20.033  0.00  0.00    +0.000 OA
ENDBRANCH  12  14
ENDBRANCH  10  12
ENDBRANCH   1  10
BRANCH   2  16
ATOM     16  S   UNL     1       6.273   4.863  17.276  0.00  0.00    +0.000 S 
ATOM     17  O   UNL     1       7.581   4.402  18.017  0.00  0.00    +0.000 OA
BRANCH  16  18
ATOM     18  C   UNL     1       5.893   3.724  15.909  0.00  0.00    +0.000 C 
BRANCH  18  19
ATOM     19  C   UNL     1       6.518   4.159  14.604  0.00  0.00    +0.000 A 
ATOM     20  C   UNL     1       6.129   3.570  13.401  0.00  0.00    +0.000 A 
ATOM     21  C   UNL     1       6.693   4.026  12.210  0.00  0.00    +0.000 A 
ATOM     22  C   UNL     1       7.627   5.052  12.248  0.00  0.00    +0.000 A 
ATOM     23  C   UNL     1       7.965   5.583  13.480  0.00  0.00    +0.000 A 
ATOM     24  N   UNL     1       7.437   5.161  14.653  0.00  0.00    +0.000 NA
ENDBRANCH  18  19
ENDBRANCH  16  18
ENDBRANCH   2  16
TORSDOF 6
ENDMDL
MODEL 4
REMARK VINA RESULT:      -7.1      2.476      5.941
REMARK  Name = 
REMARK  8 active torsions:
REMARK  status: ('A' for Active; 'I' for Inactive)
REMARK    1  A    between atoms: C_1  and  C_2
REMARK    2  A    between atoms: C_2  and  O_4
REMARK    3  A    between atoms: O_4  and  C_5
REMARK    4  A    between atoms: C_5  and  C_6
REMARK    5  A    between atoms: C_5  and  N_7
REMARK    6  A    between atoms: C_8  and  S_9
REMARK    7  A    between atoms: S_9  and  C_11
REMARK    8  A    between atoms: C_11  and  C_12
REMARK                            x       y       z     vdW  Elec       q    Type
REMARK                         _______ _______ _______ _____ _____    ______ ____
ROOT
ATOM      1  N   UNL     1       4.071   5.030  18.699  0.00  0.00    +0.000 N 
ATOM      2  C   UNL     1       3.324   6.205  18.747  0.00  0.00    +0.000 A 
ATOM      3  N   UNL     1       2.344   6.118  19.621  0.00  0.00    +0.000 NA
ATOM      4  C   UNL     1       2.413   4.855  20.134  0.00  0.00    +0.000 A 
ATOM      5  C   UNL     1       1.562   4.256  21.076  0.00  0.00    +0.000 A 
ATOM      6  C   UNL     1       1.811   2.945  21.486  0.00  0.00    +0.000 A 
ATOM      7  C   UNL     1       2.900   2.248  20.976  0.00  0.00    +0.000 A 
ATOM      8  C   UNL     1       3.761   2.835  20.037  0.00  0.00    +0.000 A 
ATOM      9  C   UNL     1       3.495   4.148  19.606  0.00  0.00    +0.000 A 
ENDROOT
BRANCH   1  10
ATOM     10  C   UNL     1       5.237   4.836  17.828  0.00  0.00    +0.000 C 
ATOM     11  C   UNL     1       5.079   3.821  16.691  0.00  0.00    +0.000 C 
BRANCH  10  12
ATOM     12  O   UNL     1       6.323   4.409  18.677  0.00  0.00    +0.000 OA
BRANCH  12  14
ATOM     13  C   UNL     1       7.361   6.419  18.052  0.00  0.00    +0.000 C 
ATOM     14  C   UNL     1       7.129   5.407  19.130  0.00  0.00    +0.000 C 
ATOM     15  O   UNL     1       7.609   5.478  20.252  0.00  0.00    +0.000 OA
ENDBRANCH  12  14
ENDBRANCH  10  12
ENDBRANCH   1  10
BRANCH   2  16
ATOM     16  S   UNL     1       3.602   7.663  17.811  0.00  0.00    +0.000 S 
ATOM     17  O   UNL     1       4.111   7.175  16.405  0.00  0.00    +0.000 OA
BRANCH  16  18
ATOM     18  C   UNL     1       1.884   8.248  17.686  0.00  0.00    +0.000 C 
BRANCH  18  19
ATOM     19  C   UNL     1       1.647   9.515  18.475  0.00  0.00    +0.000 A 
ATOM     20  C   UNL     1       2.064  10.749  17.975  0.00  0.00    +0.000 A 
ATOM     21  C   UNL     1       1.790  11.904  18.708  0.00  0.00    +0.000 A 
ATOM     22  C   UNL     1       1.112  11.801  19.915  0.00  0.00    +0.000 A 
ATOM     23  C   UNL     1       0.736  10.541  20.346  0.00  0.00    +0.000 A 
ATOM     24  N   UNL     1       0.988   9.402  19.660  0.00  0.00    +0.000 NA
ENDBRANCH  18  19
ENDBRANCH  16  18
ENDBRANCH   2  16
TORSDOF 6
ENDMDL
MODEL 5
REMARK VINA RESULT:      -7.1      1.205      1.657
REMARK  Name = 
REMARK  8 active torsions:
REMARK  status: ('A' for Active; 'I' for Inactive)
REMARK    1  A    between atoms: C_1  and  C_2
REMARK    2  A    between atoms: C_2  and  O_4
REMARK    3  A    between atoms: O_4  and  C_5
REMARK    4  A    between atoms: C_5  and  C_6
REMARK    5  A    between atoms: C_5  and  N_7
REMARK    6  A    between atoms: C_8  and  S_9
REMARK    7  A    between atoms: S_9  and  C_11
REMARK    8  A    between atoms: C_11  and  C_12
REMARK                            x       y       z     vdW  Elec       q    Type
REMARK                         _______ _______ _______ _____ _____    ______ ____
ROOT
ATOM      1  N   UNL     1       3.367   5.220  19.043  0.00  0.00    +0.000 N 
ATOM      2  C   UNL     1       4.684   4.791  18.886  0.00  0.00    +0.000 A 
ATOM      3  N   UNL     1       4.749   3.494  18.676  0.00  0.00    +0.000 NA
ATOM      4  C   UNL     1       3.461   3.044  18.732  0.00  0.00    +0.000 A 
ATOM      5  C   UNL     1       3.000   1.723  18.609  0.00  0.00    +0.000 A 
ATOM      6  C   UNL     1       1.630   1.469  18.683  0.00  0.00    +0.000 A 
ATOM      7  C   UNL     1       0.732   2.515  18.863  0.00  0.00    +0.000 A 
ATOM      8  C   UNL     1       1.178   3.839  18.984  0.00  0.00    +0.000 A 
ATOM      9  C   UNL     1       2.561   4.093  18.933  0.00  0.00    +0.000 A 
ENDROOT
BRANCH   1  10
ATOM     10  C   UNL     1       2.984   6.618  19.277  0.00  0.00    +0.000 C 
ATOM     11  C   UNL     1       2.183   6.902  20.552  0.00  0.00    +0.000 C 
BRANCH  10  12
ATOM     12  O   UNL     1       2.196   7.026  18.139  0.00  0.00    +0.000 OA
BRANCH  12  14
ATOM     13  C   UNL     1       1.187   9.143  18.057  0.00  0.00    +0.000 C 
ATOM     14  C   UNL     1       2.388   8.310  17.733  0.00  0.00    +0.000 C 
ATOM     15  O   UNL     1       3.389   8.738  17.178  0.00  0.00    +0.000 OA
ENDBRANCH  12  14
ENDBRANCH  10  12
ENDBRANCH   1  10
BRANCH   2  16
ATOM     16  S   UNL     1       6.125   5.794  18.931  0.00  0.00    +0.000 S 
ATOM     17  O   UNL     1       7.338   4.797  18.833  0.00  0.00    +0.000 OA
BRANCH  16  18
ATOM     18  C   UNL     1       5.905   6.670  17.351  0.00  0.00    +0.000 C 
BRANCH  18  19
ATOM     19  C   UNL     1       6.094   5.763  16.158  0.00  0.00    +0.000 A 
ATOM     20  C   UNL     1       5.008   5.085  15.604  0.00  0.00    +0.000 A 
ATOM     21  C   UNL     1       5.208   4.291  14.475  0.00  0.00    +0.000 A 
ATOM     22  C   UNL     1       6.481   4.192  13.929  0.00  0.00    +0.000 A 
ATOM     23  C   UNL     1       7.509   4.891  14.538  0.00  0.00    +0.000 A 
ATOM     24  N   UNL     1       7.347   5.668  15.634  0.00  0.00    +0.000 NA
ENDBRANCH  18  19
ENDBRANCH  16  18
ENDBRANCH   2  16
TORSDOF 6
ENDMDL
MODEL 6
REMARK VINA RESULT:      -7.0      1.664      2.228
REMARK  Name = 
REMARK  8 active torsions:
REMARK  status: ('A' for Active; 'I' for Inactive)
REMARK    1  A    between atoms: C_1  and  C_2
REMARK    2  A    between atoms: C_2  and  O_4
REMARK    3  A    between atoms: O_4  and  C_5
REMARK    4  A    between atoms: C_5  and  C_6
REMARK    5  A    between atoms: C_5  and  N_7
REMARK    6  A    between atoms: C_8  and  S_9
REMARK    7  A    between atoms: S_9  and  C_11
REMARK    8  A    between atoms: C_11  and  C_12
REMARK                            x       y       z     vdW  Elec       q    Type
REMARK                         _______ _______ _______ _____ _____    ______ ____
ROOT
ATOM      1  N   UNL     1       3.008   5.633  18.179  0.00  0.00    +0.000 N 
ATOM      2  C   UNL     1       3.963   5.227  17.250  0.00  0.00    +0.000 A 
ATOM      3  N   UNL     1       3.908   3.930  17.036  0.00  0.00    +0.000 NA
ATOM      4  C   UNL     1       2.929   3.458  17.862  0.00  0.00    +0.000 A 
ATOM      5  C   UNL     1       2.510   2.129  18.038  0.00  0.00    +0.000 A 
ATOM      6  C   UNL     1       1.474   1.852  18.930  0.00  0.00    +0.000 A 
ATOM      7  C   UNL     1       0.854   2.883  19.625  0.00  0.00    +0.000 A 
ATOM      8  C   UNL     1       1.259   4.216  19.458  0.00  0.00    +0.000 A 
ATOM      9  C   UNL     1       2.320   4.492  18.576  0.00  0.00    +0.000 A 
ENDROOT
BRANCH   1  10
ATOM     10  C   UNL     1       2.822   7.026  18.607  0.00  0.00    +0.000 C 
ATOM     11  C   UNL     1       2.291   7.239  20.028  0.00  0.00    +0.000 C 
BRANCH  10  12
ATOM     12  O   UNL     1       1.897   7.625  17.675  0.00  0.00    +0.000 OA
BRANCH  12  14
ATOM     13  C   UNL     1       0.429   9.429  17.987  0.00  0.00    +0.000 C 
ATOM     14  C   UNL     1       1.832   8.983  17.718  0.00  0.00    +0.000 C 
ATOM     15  O   UNL     1       2.774   9.745  17.556  0.00  0.00    +0.000 OA
ENDBRANCH  12  14
ENDBRANCH  10  12
ENDBRANCH   1  10
BRANCH   2  16
ATOM     16  S   UNL     1       5.116   6.254  16.414  0.00  0.00    +0.000 S 
ATOM     17  O   UNL     1       5.603   7.301  17.480  0.00  0.00    +0.000 OA
BRANCH  16  18
ATOM     18  C   UNL     1       6.418   5.021  16.106  0.00  0.00    +0.000 C 
BRANCH  18  19
ATOM     19  C   UNL     1       6.600   4.729  14.635  0.00  0.00    +0.000 A 
ATOM     20  C   UNL     1       7.572   5.401  13.894  0.00  0.00    +0.000 A 
ATOM     21  C   UNL     1       7.744   5.075  12.549  0.00  0.00    +0.000 A 
ATOM     22  C   UNL     1       6.946   4.094  11.978  0.00  0.00    +0.000 A 
ATOM     23  C   UNL     1       6.000   3.475  12.776  0.00  0.00    +0.000 A 
ATOM     24  N   UNL     1       5.808   3.769  14.084  0.00  0.00    +0.000 NA
ENDBRANCH  18  19
ENDBRANCH  16  18
ENDBRANCH   2  16
TORSDOF 6
ENDMDL
MODEL 7
REMARK VINA RESULT:      -7.0      2.566      4.559
REMARK  Name = 
REMARK  8 active torsions:
REMARK  status: ('A' for Active; 'I' for Inactive)
REMARK    1  A    between atoms: C_1  and  C_2
REMARK    2  A    between atoms: C_2  and  O_4
REMARK    3  A    between atoms: O_4  and  C_5
REMARK    4  A    between atoms: C_5  and  C_6
REMARK    5  A    between atoms: C_5  and  N_7
REMARK    6  A    between atoms: C_8  and  S_9
REMARK    7  A    between atoms: S_9  and  C_11
REMARK    8  A    between atoms: C_11  and  C_12
REMARK                            x       y       z     vdW  Elec       q    Type
REMARK                         _______ _______ _______ _____ _____    ______ ____
ROOT
ATOM      1  N   UNL     1       3.198   5.055  19.062  0.00  0.00    +0.000 N 
ATOM      2  C   UNL     1       3.780   5.314  17.823  0.00  0.00    +0.000 A 
ATOM      3  N   UNL     1       3.560   6.552  17.435  0.00  0.00    +0.000 NA
ATOM      4  C   UNL     1       2.787   7.114  18.410  0.00  0.00    +0.000 A 
ATOM      5  C   UNL     1       2.249   8.412  18.447  0.00  0.00    +0.000 A 
ATOM      6  C   UNL     1       1.489   8.804  19.550  0.00  0.00    +0.000 A 
ATOM      7  C   UNL     1       1.279   7.923  20.604  0.00  0.00    +0.000 A 
ATOM      8  C   UNL     1       1.812   6.626  20.582  0.00  0.00    +0.000 A 
ATOM      9  C   UNL     1       2.559   6.223  19.460  0.00  0.00    +0.000 A 
ENDROOT
BRANCH   1  10
ATOM     10  C   UNL     1       3.289   3.763  19.755  0.00  0.00    +0.000 C 
ATOM     11  C   UNL     1       4.690   3.157  19.889  0.00  0.00    +0.000 C 
BRANCH  10  12
ATOM     12  O   UNL     1       2.458   2.840  19.020  0.00  0.00    +0.000 OA
BRANCH  12  14
ATOM     13  C   UNL     1       1.193   2.932  20.995  0.00  0.00    +0.000 C 
ATOM     14  C   UNL     1       1.206   2.663  19.522  0.00  0.00    +0.000 C 
ATOM     15  O   UNL     1       0.223   2.328  18.878  0.00  0.00    +0.000 OA
ENDBRANCH  12  14
ENDBRANCH  10  12
ENDBRANCH   1  10
BRANCH   2  16
ATOM     16  S   UNL     1       4.719   4.194  16.850  0.00  0.00    +0.000 S 
ATOM     17  O   UNL     1       3.709   3.587  15.808  0.00  0.00    +0.000 OA
BRANCH  16  18
ATOM     18  C   UNL     1       5.821   5.388  16.032  0.00  0.00    +0.000 C 
BRANCH  18  19
ATOM     19  C   UNL     1       6.694   6.133  17.014  0.00  0.00    +0.000 A 
ATOM     20  C   UNL     1       7.240   5.477  18.117  0.00  0.00    +0.000 A 
ATOM     21  C   UNL     1       8.079   6.182  18.979  0.00  0.00    +0.000 A 
ATOM     22  C   UNL     1       8.350   7.520  18.723  0.00  0.00    +0.000 A 
ATOM     23  C   UNL     1       7.767   8.102  17.611  0.00  0.00    +0.000 A 
ATOM     24  N   UNL     1       6.949   7.445  16.757  0.00  0.00    +0.000 NA
ENDBRANCH  18  19
ENDBRANCH  16  18
ENDBRANCH   2  16
TORSDOF 6
ENDMDL
MODEL 8
REMARK VINA RESULT:      -6.9      2.796      6.372
REMARK  Name = 
REMARK  8 active torsions:
REMARK  status: ('A' for Active; 'I' for Inactive)
REMARK    1  A    between atoms: C_1  and  C_2
REMARK    2  A    between atoms: C_2  and  O_4
REMARK    3  A    between atoms: O_4  and  C_5
REMARK    4  A    between atoms: C_5  and  C_6
REMARK    5  A    between atoms: C_5  and  N_7
REMARK    6  A    between atoms: C_8  and  S_9
REMARK    7  A    between atoms: S_9  and  C_11
REMARK    8  A    between atoms: C_11  and  C_12
REMARK                            x       y       z     vdW  Elec       q    Type
REMARK                         _______ _______ _______ _____ _____    ______ ____
ROOT
ATOM      1  N   UNL     1       3.765   5.714  17.917  0.00  0.00    +0.000 N 
ATOM      2  C   UNL     1       2.736   6.486  18.453  0.00  0.00    +0.000 A 
ATOM      3  N   UNL     1       1.741   5.737  18.877  0.00  0.00    +0.000 NA
ATOM      4  C   UNL     1       2.093   4.451  18.584  0.00  0.00    +0.000 A 
ATOM      5  C   UNL     1       1.350   3.279  18.801  0.00  0.00    +0.000 A 
ATOM      6  C   UNL     1       1.897   2.047  18.439  0.00  0.00    +0.000 A 
ATOM      7  C   UNL     1       3.169   1.981  17.884  0.00  0.00    +0.000 A 
ATOM      8  C   UNL     1       3.925   3.143  17.665  0.00  0.00    +0.000 A 
ATOM      9  C   UNL     1       3.363   4.387  18.007  0.00  0.00    +0.000 A 
ENDROOT
BRANCH   1  10
ATOM     10  C   UNL     1       5.012   6.273  17.377  0.00  0.00    +0.000 C 
ATOM     11  C   UNL     1       5.057   6.505  15.863  0.00  0.00    +0.000 C 
BRANCH  10  12
ATOM     12  O   UNL     1       6.065   5.354  17.734  0.00  0.00    +0.000 OA
BRANCH  12  14
ATOM     13  C   UNL     1       7.788   6.862  18.251  0.00  0.00    +0.000 C 
ATOM     14  C   UNL     1       6.883   5.773  18.738  0.00  0.00    +0.000 C 
ATOM     15  O   UNL     1       6.894   5.330  19.877  0.00  0.00    +0.000 OA
ENDBRANCH  12  14
ENDBRANCH  10  12
ENDBRANCH   1  10
BRANCH   2  16
ATOM     16  S   UNL     1       2.703   8.235  18.598  0.00  0.00    +0.000 S 
ATOM     17  O   UNL     1       2.200   8.767  17.207  0.00  0.00    +0.000 OA
BRANCH  16  18
ATOM     18  C   UNL     1       1.384   8.388  19.842  0.00  0.00    +0.000 C 
BRANCH  18  19
ATOM     19  C   UNL     1       0.734   9.752  19.829  0.00  0.00    +0.000 A 
ATOM     20  C   UNL     1      -0.306  10.032  18.942  0.00  0.00    +0.000 A 
ATOM     21  C   UNL     1      -0.915  11.286  18.986  0.00  0.00    +0.000 A 
ATOM     22  C   UNL     1      -0.473  12.226  19.908  0.00  0.00    +0.000 A 
ATOM     23  C   UNL     1       0.567  11.875  20.750  0.00  0.00    +0.000 A 
ATOM     24  N   UNL     1       1.179  10.667  20.731  0.00  0.00    +0.000 NA
ENDBRANCH  18  19
ENDBRANCH  16  18
ENDBRANCH   2  16
TORSDOF 6
ENDMDL
MODEL 9
REMARK VINA RESULT:      -6.9      2.625      6.048
REMARK  Name = 
REMARK  8 active torsions:
REMARK  status: ('A' for Active; 'I' for Inactive)
REMARK    1  A    between atoms: C_1  and  C_2
REMARK    2  A    between atoms: C_2  and  O_4
REMARK    3  A    between atoms: O_4  and  C_5
REMARK    4  A    between atoms: C_5  and  C_6
REMARK    5  A    between atoms: C_5  and  N_7
REMARK    6  A    between atoms: C_8  and  S_9
REMARK    7  A    between atoms: S_9  and  C_11
REMARK    8  A    between atoms: C_11  and  C_12
REMARK                            x       y       z     vdW  Elec       q    Type
REMARK                         _______ _______ _______ _____ _____    ______ ____
ROOT
ATOM      1  N   UNL     1       3.885   5.237  18.491  0.00  0.00    +0.000 N 
ATOM      2  C   UNL     1       3.157   6.415  18.647  0.00  0.00    +0.000 A 
ATOM      3  N   UNL     1       2.226   6.289  19.568  0.00  0.00    +0.000 NA
ATOM      4  C   UNL     1       2.307   4.998  20.004  0.00  0.00    +0.000 A 
ATOM      5  C   UNL     1       1.502   4.354  20.958  0.00  0.00    +0.000 A 
ATOM      6  C   UNL     1       1.757   3.020  21.279  0.00  0.00    +0.000 A 
ATOM      7  C   UNL     1       2.806   2.342  20.670  0.00  0.00    +0.000 A 
ATOM      8  C   UNL     1       3.621   2.973  19.718  0.00  0.00    +0.000 A 
ATOM      9  C   UNL     1       3.349   4.311  19.378  0.00  0.00    +0.000 A 
ENDROOT
BRANCH   1  10
ATOM     10  C   UNL     1       4.998   5.082  17.545  0.00  0.00    +0.000 C 
ATOM     11  C   UNL     1       4.795   4.071  16.412  0.00  0.00    +0.000 C 
BRANCH  10  12
ATOM     12  O   UNL     1       6.146   4.679  18.321  0.00  0.00    +0.000 OA
BRANCH  12  14
ATOM     13  C   UNL     1       7.508   6.498  17.735  0.00  0.00    +0.000 C 
ATOM     14  C   UNL     1       7.352   5.011  17.784  0.00  0.00    +0.000 C 
ATOM     15  O   UNL     1       8.196   4.219  17.390  0.00  0.00    +0.000 OA
ENDBRANCH  12  14
ENDBRANCH  10  12
ENDBRANCH   1  10
BRANCH   2  16
ATOM     16  S   UNL     1       3.402   7.921  17.779  0.00  0.00    +0.000 S 
ATOM     17  O   UNL     1       3.870   7.509  16.336  0.00  0.00    +0.000 OA
BRANCH  16  18
ATOM     18  C   UNL     1       1.678   8.503  17.737  0.00  0.00    +0.000 C 
BRANCH  18  19
ATOM     19  C   UNL     1       1.462   9.729  18.594  0.00  0.00    +0.000 A 
ATOM     20  C   UNL     1       0.852   9.621  19.844  0.00  0.00    +0.000 A 
ATOM     21  C   UNL     1       0.708  10.764  20.629  0.00  0.00    +0.000 A 
ATOM     22  C   UNL     1       1.172  11.982  20.149  0.00  0.00    +0.000 A 
ATOM     23  C   UNL     1       1.761  12.010  18.898  0.00  0.00    +0.000 A 
ATOM     24  N   UNL     1       1.914  10.918  18.112  0.00  0.00    +0.000 NA
ENDBRANCH  18  19
ENDBRANCH  16  18
ENDBRANCH   2  16
TORSDOF 6
ENDMDL
