MODEL 1
REMARK VINA RESULT:      -7.9      0.000      0.000
REMARK  Name = 
REMARK  11 active torsions:
REMARK  status: ('A' for Active; 'I' for Inactive)
REMARK    1  A    between atoms: C_1  and  C_2
REMARK    2  A    between atoms: C_2  and  O_3
REMARK    3  A    between atoms: O_3  and  C_4
REMARK    4  A    between atoms: C_8  and  C_9
REMARK    5  A    between atoms: N_11  and  C_12
REMARK    6  A    between atoms: C_12  and  C_13
REMARK    7  A    between atoms: C_12  and  C_15
REMARK    8  A    between atoms: C_13  and  C_14
REMARK    9  A    between atoms: C_21  and  S_22
REMARK   10  A    between atoms: S_22  and  C_23
REMARK   11  A    between atoms: C_25  and  C_26
REMARK                            x       y       z     vdW  Elec       q    Type
REMARK                         _______ _______ _______ _____ _____    ______ ____
ROOT
ATOM      1  C   UNL     1      -3.771  10.388  15.592  0.00  0.00    +0.000 A 
ATOM      2  C   UNL     1      -2.453  10.129  15.915  0.00  0.00    +0.000 A 
ATOM      3  C   UNL     1      -1.960  10.515  17.156  0.00  0.00    +0.000 A 
ATOM      4  C   UNL     1      -2.730  11.225  18.108  0.00  0.00    +0.000 A 
ATOM      5  C   UNL     1      -2.274  11.643  19.404  0.00  0.00    +0.000 A 
ATOM      6  C   UNL     1      -3.175  12.265  20.305  0.00  0.00    +0.000 A 
ATOM      7  C   UNL     1      -4.465  12.565  19.827  0.00  0.00    +0.000 A 
ATOM      8  N   UNL     1      -4.884  12.167  18.590  0.00  0.00    +0.000 NA
ATOM      9  C   UNL     1      -4.061  11.503  17.765  0.00  0.00    +0.000 A 
ATOM     10  C   UNL     1      -4.560  11.070  16.528  0.00  0.00    +0.000 A 
ENDROOT
BRANCH   7  11
ATOM     11  C   UNL     1      -5.525  13.315  20.575  0.00  0.00    +0.000 A 
ATOM     12  C   UNL     1      -5.610  14.722  20.591  0.00  0.00    +0.000 A 
ATOM     13  C   UNL     1      -6.544  15.400  21.386  0.00  0.00    +0.000 A 
ATOM     14  C   UNL     1      -7.479  14.685  22.123  0.00  0.00    +0.000 A 
ATOM     15  C   UNL     1      -7.492  13.297  22.048  0.00  0.00    +0.000 A 
ATOM     16  C   UNL     1      -6.525  12.623  21.289  0.00  0.00    +0.000 A 
ENDBRANCH   7  11
BRANCH   5  17
ATOM     17  C   UNL     1      -0.853  11.363  19.818  0.00  0.00    +0.000 C 
ATOM     18  O   UNL     1       0.011  12.228  19.748  0.00  0.00    +0.000 OA
ATOM     19  N   UNL     1      -0.565  10.124  20.345  0.00  0.00    +0.000 N 
ATOM     20  H   UNL     1      -1.305   9.456  20.462  0.00  0.00    +0.000 HD
BRANCH  19  21
ATOM     21  C   UNL     1       0.790   9.776  20.781  0.00  0.00    +0.000 C 
BRANCH  21  22
ATOM     22  C   UNL     1       1.473   8.755  19.874  0.00  0.00    +0.000 A 
ATOM     23  C   UNL     1       1.798   9.007  18.527  0.00  0.00    +0.000 A 
ATOM     24  C   UNL     1       2.429   8.048  17.737  0.00  0.00    +0.000 A 
ATOM     25  C   UNL     1       2.769   6.817  18.280  0.00  0.00    +0.000 A 
ATOM     26  C   UNL     1       2.496   6.551  19.617  0.00  0.00    +0.000 A 
ATOM     27  C   UNL     1       1.857   7.513  20.409  0.00  0.00    +0.000 A 
ENDBRANCH  21  22
BRANCH  21  28
ATOM     28  C   UNL     1       0.831   9.387  22.290  0.00  0.00    +0.000 C 
ATOM     29  C   UNL     1      -0.460   9.611  23.065  0.00  0.00    +0.000 C 
ENDBRANCH  21  28
ENDBRANCH  19  21
ENDBRANCH   5  17
BRANCH   6  30
ATOM     30  S   UNL     1      -2.749  12.715  22.008  0.00  0.00    +0.000 S 
ATOM     31  C   UNL     1      -2.578  14.503  21.898  0.00  0.00    +0.000 C 
ATOM     32  O   UNL     1      -3.946  12.296  22.925  0.00  0.00    +0.000 OA
ENDBRANCH   6  30
BRANCH   1  33
ATOM     33  O   UNL     1      -4.377  10.006  14.422  0.00  0.00    +0.000 OA
BRANCH  33  35
ATOM     34  C   UNL     1      -4.327   9.804  12.008  0.00  0.00    +0.000 C 
ATOM     35  C   UNL     1      -3.514   9.924  13.280  0.00  0.00    +0.000 C 
ENDBRANCH  33  35
ENDBRANCH   1  33
TORSDOF 8
ENDMDL
MODEL 2
REMARK VINA RESULT:      -7.8      0.136      1.171
REMARK  Name = 
REMARK  11 active torsions:
REMARK  status: ('A' for Active; 'I' for Inactive)
REMARK    1  A    between atoms: C_1  and  C_2
REMARK    2  A    between atoms: C_2  and  O_3
REMARK    3  A    between atoms: O_3  and  C_4
REMARK    4  A    between atoms: C_8  and  C_9
REMARK    5  A    between atoms: N_11  and  C_12
REMARK    6  A    between atoms: C_12  and  C_13
REMARK    7  A    between atoms: C_12  and  C_15
REMARK    8  A    between atoms: C_13  and  C_14
REMARK    9  A    between atoms: C_21  and  S_22
REMARK   10  A    between atoms: S_22  and  C_23
REMARK   11  A    between atoms: C_25  and  C_26
REMARK                            x       y       z     vdW  Elec       q    Type
REMARK                         _______ _______ _______ _____ _____    ______ ____
ROOT
ATOM      1  C   UNL     1      -3.743  10.415  15.657  0.00  0.00    +0.000 A 
ATOM      2  C   UNL     1      -2.429  10.156  16.000  0.00  0.00    +0.000 A 
ATOM      3  C   UNL     1      -1.953  10.546  17.245  0.00  0.00    +0.000 A 
ATOM      4  C   UNL     1      -2.735  11.262  18.184  0.00  0.00    +0.000 A 
ATOM      5  C   UNL     1      -2.296  11.684  19.484  0.00  0.00    +0.000 A 
ATOM      6  C   UNL     1      -3.208  12.311  20.370  0.00  0.00    +0.000 A 
ATOM      7  C   UNL     1      -4.491  12.611  19.874  0.00  0.00    +0.000 A 
ATOM      8  N   UNL     1      -4.894  12.208  18.632  0.00  0.00    +0.000 NA
ATOM      9  C   UNL     1      -4.061  11.540  17.821  0.00  0.00    +0.000 A 
ATOM     10  C   UNL     1      -4.543  11.102  16.579  0.00  0.00    +0.000 A 
ENDROOT
BRANCH   7  11
ATOM     11  C   UNL     1      -5.561  13.366  20.603  0.00  0.00    +0.000 A 
ATOM     12  C   UNL     1      -6.569  12.738  21.363  0.00  0.00    +0.000 A 
ATOM     13  C   UNL     1      -7.618  13.461  21.943  0.00  0.00    +0.000 A 
ATOM     14  C   UNL     1      -7.642  14.847  21.854  0.00  0.00    +0.000 A 
ATOM     15  C   UNL     1      -6.607  15.507  21.202  0.00  0.00    +0.000 A 
ATOM     16  C   UNL     1      -5.584  14.775  20.582  0.00  0.00    +0.000 A 
ENDBRANCH   7  11
BRANCH   5  17
ATOM     17  C   UNL     1      -0.881  11.405  19.918  0.00  0.00    +0.000 C 
ATOM     18  O   UNL     1      -0.022  12.276  19.886  0.00  0.00    +0.000 OA
ATOM     19  N   UNL     1      -0.594  10.155  20.421  0.00  0.00    +0.000 N 
ATOM     20  H   UNL     1      -1.332   9.479  20.508  0.00  0.00    +0.000 HD
BRANCH  19  21
ATOM     21  C   UNL     1       0.754   9.806  20.876  0.00  0.00    +0.000 C 
BRANCH  21  22
ATOM     22  C   UNL     1       1.455   8.798  19.967  0.00  0.00    +0.000 A 
ATOM     23  C   UNL     1       1.885   7.529  20.400  0.00  0.00    +0.000 A 
ATOM     24  C   UNL     1       2.515   6.637  19.534  0.00  0.00    +0.000 A 
ATOM     25  C   UNL     1       2.715   6.985  18.205  0.00  0.00    +0.000 A 
ATOM     26  C   UNL     1       2.269   8.216  17.737  0.00  0.00    +0.000 A 
ATOM     27  C   UNL     1       1.641   9.114  18.610  0.00  0.00    +0.000 A 
ENDBRANCH  21  22
BRANCH  21  28
ATOM     28  C   UNL     1       0.773   9.399  22.380  0.00  0.00    +0.000 C 
ATOM     29  C   UNL     1      -0.484   9.737  23.171  0.00  0.00    +0.000 C 
ENDBRANCH  21  28
ENDBRANCH  19  21
ENDBRANCH   5  17
BRANCH   6  30
ATOM     30  S   UNL     1      -2.805  12.768  22.077  0.00  0.00    +0.000 S 
ATOM     31  C   UNL     1      -2.599  14.552  21.955  0.00  0.00    +0.000 C 
ATOM     32  O   UNL     1      -4.026  12.379  22.975  0.00  0.00    +0.000 OA
ENDBRANCH   6  30
BRANCH   1  33
ATOM     33  O   UNL     1      -4.333  10.030  14.481  0.00  0.00    +0.000 OA
BRANCH  33  35
ATOM     34  C   UNL     1      -4.252   9.816  12.068  0.00  0.00    +0.000 C 
ATOM     35  C   UNL     1      -3.455   9.946  13.350  0.00  0.00    +0.000 C 
ENDBRANCH  33  35
ENDBRANCH   1  33
TORSDOF 8
ENDMDL
MODEL 3
REMARK VINA RESULT:      -6.2      2.581      4.128
REMARK  Name = 
REMARK  11 active torsions:
REMARK  status: ('A' for Active; 'I' for Inactive)
REMARK    1  A    between atoms: C_1  and  C_2
REMARK    2  A    between atoms: C_2  and  O_3
REMARK    3  A    between atoms: O_3  and  C_4
REMARK    4  A    between atoms: C_8  and  C_9
REMARK    5  A    between atoms: N_11  and  C_12
REMARK    6  A    between atoms: C_12  and  C_13
REMARK    7  A    between atoms: C_12  and  C_15
REMARK    8  A    between atoms: C_13  and  C_14
REMARK    9  A    between atoms: C_21  and  S_22
REMARK   10  A    between atoms: S_22  and  C_23
REMARK   11  A    between atoms: C_25  and  C_26
REMARK                            x       y       z     vdW  Elec       q    Type
REMARK                         _______ _______ _______ _____ _____    ______ ____
ROOT
ATOM      1  C   UNL     1      -3.646  10.578  16.068  0.00  0.00    +0.000 A 
ATOM      2  C   UNL     1      -2.290  10.565  16.337  0.00  0.00    +0.000 A 
ATOM      3  C   UNL     1      -1.822  11.083  17.538  0.00  0.00    +0.000 A 
ATOM      4  C   UNL     1      -2.665  11.691  18.500  0.00  0.00    +0.000 A 
ATOM      5  C   UNL     1      -2.237  12.236  19.757  0.00  0.00    +0.000 A 
ATOM      6  C   UNL     1      -3.195  12.732  20.678  0.00  0.00    +0.000 A 
ATOM      7  C   UNL     1      -4.536  12.785  20.251  0.00  0.00    +0.000 A 
ATOM      8  N   UNL     1      -4.929  12.267  19.050  0.00  0.00    +0.000 NA
ATOM      9  C   UNL     1      -4.037  11.720  18.211  0.00  0.00    +0.000 A 
ATOM     10  C   UNL     1      -4.503  11.154  17.015  0.00  0.00    +0.000 A 
ENDROOT
BRANCH   7  11
ATOM     11  C   UNL     1      -5.679  13.372  21.021  0.00  0.00    +0.000 A 
ATOM     12  C   UNL     1      -6.529  12.608  21.846  0.00  0.00    +0.000 A 
ATOM     13  C   UNL     1      -7.655  13.164  22.466  0.00  0.00    +0.000 A 
ATOM     14  C   UNL     1      -7.915  14.523  22.350  0.00  0.00    +0.000 A 
ATOM     15  C   UNL     1      -7.038  15.327  21.630  0.00  0.00    +0.000 A 
ATOM     16  C   UNL     1      -5.939  14.757  20.972  0.00  0.00    +0.000 A 
ENDBRANCH   7  11
BRANCH   5  17
ATOM     17  C   UNL     1      -0.773  12.224  20.113  0.00  0.00    +0.000 C 
ATOM     18  O   UNL     1      -0.270  11.276  20.702  0.00  0.00    +0.000 OA
ATOM     19  N   UNL     1       0.003  13.282  19.695  0.00  0.00    +0.000 N 
ATOM     20  H   UNL     1      -0.416  14.013  19.148  0.00  0.00    +0.000 HD
BRANCH  19  21
ATOM     21  C   UNL     1       1.437  13.342  19.991  0.00  0.00    +0.000 C 
BRANCH  21  22
ATOM     22  C   UNL     1       1.846  14.606  20.743  0.00  0.00    +0.000 A 
ATOM     23  C   UNL     1       1.167  15.834  20.628  0.00  0.00    +0.000 A 
ATOM     24  C   UNL     1       1.571  16.962  21.340  0.00  0.00    +0.000 A 
ATOM     25  C   UNL     1       2.656  16.885  22.202  0.00  0.00    +0.000 A 
ATOM     26  C   UNL     1       3.326  15.677  22.367  0.00  0.00    +0.000 A 
ATOM     27  C   UNL     1       2.921  14.546  21.647  0.00  0.00    +0.000 A 
ENDBRANCH  21  22
BRANCH  21  28
ATOM     28  C   UNL     1       2.303  13.069  18.724  0.00  0.00    +0.000 C 
ATOM     29  C   UNL     1       2.216  11.659  18.156  0.00  0.00    +0.000 C 
ENDBRANCH  21  28
ENDBRANCH  19  21
ENDBRANCH   5  17
BRANCH   6  30
ATOM     30  S   UNL     1      -2.785  13.322  22.341  0.00  0.00    +0.000 S 
ATOM     31  C   UNL     1      -2.549  11.784  23.244  0.00  0.00    +0.000 C 
ATOM     32  O   UNL     1      -1.461  14.152  22.239  0.00  0.00    +0.000 OA
ENDBRANCH   6  30
BRANCH   1  33
ATOM     33  O   UNL     1      -4.223  10.048  14.942  0.00  0.00    +0.000 OA
BRANCH  33  35
ATOM     34  C   UNL     1      -4.216   9.699  12.544  0.00  0.00    +0.000 C 
ATOM     35  C   UNL     1      -3.396  10.042  13.771  0.00  0.00    +0.000 C 
ENDBRANCH  33  35
ENDBRANCH   1  33
TORSDOF 8
ENDMDL
MODEL 4
REMARK VINA RESULT:      -6.2      1.842      7.103
REMARK  Name = 
REMARK  11 active torsions:
REMARK  status: ('A' for Active; 'I' for Inactive)
REMARK    1  A    between atoms: C_1  and  C_2
REMARK    2  A    between atoms: C_2  and  O_3
REMARK    3  A    between atoms: O_3  and  C_4
REMARK    4  A    between atoms: C_8  and  C_9
REMARK    5  A    between atoms: N_11  and  C_12
REMARK    6  A    between atoms: C_12  and  C_13
REMARK    7  A    between atoms: C_12  and  C_15
REMARK    8  A    between atoms: C_13  and  C_14
REMARK    9  A    between atoms: C_21  and  S_22
REMARK   10  A    between atoms: S_22  and  C_23
REMARK   11  A    between atoms: C_25  and  C_26
REMARK                            x       y       z     vdW  Elec       q    Type
REMARK                         _______ _______ _______ _____ _____    ______ ____
ROOT
ATOM      1  C   UNL     1      -3.772  10.511  15.707  0.00  0.00    +0.000 A 
ATOM      2  C   UNL     1      -4.240  11.496  16.555  0.00  0.00    +0.000 A 
ATOM      3  C   UNL     1      -3.512  11.831  17.690  0.00  0.00    +0.000 A 
ATOM      4  C   UNL     1      -2.320  11.167  18.069  0.00  0.00    +0.000 A 
ATOM      5  C   UNL     1      -1.526  11.474  19.225  0.00  0.00    +0.000 A 
ATOM      6  C   UNL     1      -0.299  10.798  19.442  0.00  0.00    +0.000 A 
ATOM      7  C   UNL     1       0.025   9.746  18.564  0.00  0.00    +0.000 A 
ATOM      8  N   UNL     1      -0.742   9.460  17.470  0.00  0.00    +0.000 NA
ATOM      9  C   UNL     1      -1.861  10.154  17.214  0.00  0.00    +0.000 A 
ATOM     10  C   UNL     1      -2.582   9.855  16.048  0.00  0.00    +0.000 A 
ENDROOT
BRANCH   7  11
ATOM     11  C   UNL     1       1.210   8.837  18.682  0.00  0.00    +0.000 A 
ATOM     12  C   UNL     1       2.224   8.758  17.706  0.00  0.00    +0.000 A 
ATOM     13  C   UNL     1       3.262   7.822  17.789  0.00  0.00    +0.000 A 
ATOM     14  C   UNL     1       3.366   6.993  18.899  0.00  0.00    +0.000 A 
ATOM     15  C   UNL     1       2.443   7.117  19.932  0.00  0.00    +0.000 A 
ATOM     16  C   UNL     1       1.379   8.023  19.821  0.00  0.00    +0.000 A 
ENDBRANCH   7  11
BRANCH   5  17
ATOM     17  C   UNL     1      -1.977  12.557  20.170  0.00  0.00    +0.000 C 
ATOM     18  O   UNL     1      -1.616  13.717  20.026  0.00  0.00    +0.000 OA
ATOM     19  N   UNL     1      -2.868  12.217  21.165  0.00  0.00    +0.000 N 
ATOM     20  H   UNL     1      -3.208  11.274  21.218  0.00  0.00    +0.000 HD
BRANCH  19  21
ATOM     21  C   UNL     1      -3.363  13.213  22.119  0.00  0.00    +0.000 C 
BRANCH  21  22
ATOM     22  C   UNL     1      -4.822  12.996  22.515  0.00  0.00    +0.000 A 
ATOM     23  C   UNL     1      -5.864  12.828  21.583  0.00  0.00    +0.000 A 
ATOM     24  C   UNL     1      -7.181  12.625  21.989  0.00  0.00    +0.000 A 
ATOM     25  C   UNL     1      -7.488  12.566  23.341  0.00  0.00    +0.000 A 
ATOM     26  C   UNL     1      -6.477  12.691  24.287  0.00  0.00    +0.000 A 
ATOM     27  C   UNL     1      -5.154  12.900  23.877  0.00  0.00    +0.000 A 
ENDBRANCH  21  22
BRANCH  21  28
ATOM     28  C   UNL     1      -3.060  14.668  21.649  0.00  0.00    +0.000 C 
ATOM     29  C   UNL     1      -3.501  15.774  22.598  0.00  0.00    +0.000 C 
ENDBRANCH  21  28
ENDBRANCH  19  21
ENDBRANCH   5  17
BRANCH   6  30
ATOM     30  S   UNL     1       0.846  11.191  20.790  0.00  0.00    +0.000 S 
ATOM     31  C   UNL     1       1.655  12.679  20.182  0.00  0.00    +0.000 C 
ATOM     32  O   UNL     1      -0.008  11.471  22.072  0.00  0.00    +0.000 OA
ENDBRANCH   6  30
BRANCH   1  33
ATOM     33  O   UNL     1      -4.378  10.137  14.535  0.00  0.00    +0.000 OA
BRANCH  33  35
ATOM     34  C   UNL     1      -4.291   9.764  12.142  0.00  0.00    +0.000 C 
ATOM     35  C   UNL     1      -3.498   9.952  13.419  0.00  0.00    +0.000 C 
ENDBRANCH  33  35
ENDBRANCH   1  33
TORSDOF 8
ENDMDL
MODEL 5
REMARK VINA RESULT:      -6.1      4.136      8.079
REMARK  Name = 
REMARK  11 active torsions:
REMARK  status: ('A' for Active; 'I' for Inactive)
REMARK    1  A    between atoms: C_1  and  C_2
REMARK    2  A    between atoms: C_2  and  O_3
REMARK    3  A    between atoms: O_3  and  C_4
REMARK    4  A    between atoms: C_8  and  C_9
REMARK    5  A    between atoms: N_11  and  C_12
REMARK    6  A    between atoms: C_12  and  C_13
REMARK    7  A    between atoms: C_12  and  C_15
REMARK    8  A    between atoms: C_13  and  C_14
REMARK    9  A    between atoms: C_21  and  S_22
REMARK   10  A    between atoms: S_22  and  C_23
REMARK   11  A    between atoms: C_25  and  C_26
REMARK                            x       y       z     vdW  Elec       q    Type
REMARK                         _______ _______ _______ _____ _____    ______ ____
ROOT
ATOM      1  C   UNL     1       0.500   8.940  21.464  0.00  0.00    +0.000 A 
ATOM      2  C   UNL     1      -0.536   9.246  22.328  0.00  0.00    +0.000 A 
ATOM      3  C   UNL     1      -0.883  10.574  22.542  0.00  0.00    +0.000 A 
ATOM      4  C   UNL     1      -0.187  11.661  21.960  0.00  0.00    +0.000 A 
ATOM      5  C   UNL     1      -0.506  13.048  22.142  0.00  0.00    +0.000 A 
ATOM      6  C   UNL     1       0.210  14.040  21.425  0.00  0.00    +0.000 A 
ATOM      7  C   UNL     1       1.307  13.615  20.652  0.00  0.00    +0.000 A 
ATOM      8  N   UNL     1       1.603  12.291  20.491  0.00  0.00    +0.000 NA
ATOM      9  C   UNL     1       0.875  11.344  21.101  0.00  0.00    +0.000 A 
ATOM     10  C   UNL     1       1.189   9.999  20.858  0.00  0.00    +0.000 A 
ENDROOT
BRANCH   7  11
ATOM     11  C   UNL     1       2.257  14.506  19.912  0.00  0.00    +0.000 A 
ATOM     12  C   UNL     1       3.404  15.073  20.503  0.00  0.00    +0.000 A 
ATOM     13  C   UNL     1       4.214  15.989  19.821  0.00  0.00    +0.000 A 
ATOM     14  C   UNL     1       3.949  16.300  18.493  0.00  0.00    +0.000 A 
ATOM     15  C   UNL     1       2.887  15.678  17.846  0.00  0.00    +0.000 A 
ATOM     16  C   UNL     1       2.051  14.798  18.548  0.00  0.00    +0.000 A 
ENDBRANCH   7  11
BRANCH   5  17
ATOM     17  C   UNL     1      -1.642  13.437  23.053  0.00  0.00    +0.000 C 
ATOM     18  O   UNL     1      -1.462  13.624  24.249  0.00  0.00    +0.000 OA
ATOM     19  N   UNL     1      -2.881  13.644  22.489  0.00  0.00    +0.000 N 
ATOM     20  H   UNL     1      -2.989  13.557  21.494  0.00  0.00    +0.000 HD
BRANCH  19  21
ATOM     21  C   UNL     1      -4.035  14.034  23.303  0.00  0.00    +0.000 C 
BRANCH  21  22
ATOM     22  C   UNL     1      -5.328  13.331  22.895  0.00  0.00    +0.000 A 
ATOM     23  C   UNL     1      -5.546  12.787  21.615  0.00  0.00    +0.000 A 
ATOM     24  C   UNL     1      -6.739  12.146  21.287  0.00  0.00    +0.000 A 
ATOM     25  C   UNL     1      -7.740  12.016  22.240  0.00  0.00    +0.000 A 
ATOM     26  C   UNL     1      -7.542  12.510  23.524  0.00  0.00    +0.000 A 
ATOM     27  C   UNL     1      -6.344  13.158  23.851  0.00  0.00    +0.000 A 
ENDBRANCH  21  22
BRANCH  21  28
ATOM     28  C   UNL     1      -4.179  15.583  23.402  0.00  0.00    +0.000 C 
ATOM     29  C   UNL     1      -3.960  16.180  24.786  0.00  0.00    +0.000 C 
ENDBRANCH  21  28
ENDBRANCH  19  21
ENDBRANCH   5  17
BRANCH   6  30
ATOM     30  S   UNL     1      -0.189  15.807  21.475  0.00  0.00    +0.000 S 
ATOM     31  C   UNL     1      -1.542  15.926  20.295  0.00  0.00    +0.000 C 
ATOM     32  O   UNL     1      -0.649  16.150  22.931  0.00  0.00    +0.000 OA
ENDBRANCH   6  30
BRANCH   1  33
ATOM     33  O   UNL     1       0.893   7.668  21.137  0.00  0.00    +0.000 OA
BRANCH  33  35
ATOM     34  C   UNL     1       2.315   6.137  19.910  0.00  0.00    +0.000 C 
ATOM     35  C   UNL     1       1.888   7.577  20.110  0.00  0.00    +0.000 C 
ENDBRANCH  33  35
ENDBRANCH   1  33
TORSDOF 8
ENDMDL
MODEL 6
REMARK VINA RESULT:      -5.9      3.597      7.622
REMARK  Name = 
REMARK  11 active torsions:
REMARK  status: ('A' for Active; 'I' for Inactive)
REMARK    1  A    between atoms: C_1  and  C_2
REMARK    2  A    between atoms: C_2  and  O_3
REMARK    3  A    between atoms: O_3  and  C_4
REMARK    4  A    between atoms: C_8  and  C_9
REMARK    5  A    between atoms: N_11  and  C_12
REMARK    6  A    between atoms: C_12  and  C_13
REMARK    7  A    between atoms: C_12  and  C_15
REMARK    8  A    between atoms: C_13  and  C_14
REMARK    9  A    between atoms: C_21  and  S_22
REMARK   10  A    between atoms: S_22  and  C_23
REMARK   11  A    between atoms: C_25  and  C_26
REMARK                            x       y       z     vdW  Elec       q    Type
REMARK                         _______ _______ _______ _____ _____    ______ ____
ROOT
ATOM      1  C   UNL     1      -3.004  11.369  17.909  0.00  0.00    +0.000 A 
ATOM      2  C   UNL     1      -3.610  11.543  19.139  0.00  0.00    +0.000 A 
ATOM      3  C   UNL     1      -3.017  12.367  20.088  0.00  0.00    +0.000 A 
ATOM      4  C   UNL     1      -1.770  13.008  19.886  0.00  0.00    +0.000 A 
ATOM      5  C   UNL     1      -1.116  13.872  20.828  0.00  0.00    +0.000 A 
ATOM      6  C   UNL     1       0.087  14.530  20.467  0.00  0.00    +0.000 A 
ATOM      7  C   UNL     1       0.661  14.197  19.226  0.00  0.00    +0.000 A 
ATOM      8  N   UNL     1       0.030  13.369  18.341  0.00  0.00    +0.000 NA
ATOM      9  C   UNL     1      -1.151  12.809  18.644  0.00  0.00    +0.000 A 
ATOM     10  C   UNL     1      -1.780  12.011  17.678  0.00  0.00    +0.000 A 
ENDROOT
BRANCH   7  11
ATOM     11  C   UNL     1       1.978  14.690  18.706  0.00  0.00    +0.000 A 
ATOM     12  C   UNL     1       3.130  13.881  18.629  0.00  0.00    +0.000 A 
ATOM     13  C   UNL     1       4.373  14.398  18.244  0.00  0.00    +0.000 A 
ATOM     14  C   UNL     1       4.482  15.722  17.839  0.00  0.00    +0.000 A 
ATOM     15  C   UNL     1       3.345  16.520  17.802  0.00  0.00    +0.000 A 
ATOM     16  C   UNL     1       2.112  16.011  18.234  0.00  0.00    +0.000 A 
ENDBRANCH   7  11
BRANCH   5  17
ATOM     17  C   UNL     1      -1.745  14.117  22.174  0.00  0.00    +0.000 C 
ATOM     18  O   UNL     1      -1.454  13.433  23.147  0.00  0.00    +0.000 OA
ATOM     19  N   UNL     1      -2.610  15.182  22.299  0.00  0.00    +0.000 N 
ATOM     20  H   UNL     1      -2.777  15.775  21.506  0.00  0.00    +0.000 HD
BRANCH  19  21
ATOM     21  C   UNL     1      -3.256  15.496  23.576  0.00  0.00    +0.000 C 
BRANCH  21  22
ATOM     22  C   UNL     1      -4.650  14.886  23.714  0.00  0.00    +0.000 A 
ATOM     23  C   UNL     1      -5.839  15.632  23.604  0.00  0.00    +0.000 A 
ATOM     24  C   UNL     1      -7.091  15.033  23.729  0.00  0.00    +0.000 A 
ATOM     25  C   UNL     1      -7.186  13.666  23.949  0.00  0.00    +0.000 A 
ATOM     26  C   UNL     1      -6.032  12.895  24.025  0.00  0.00    +0.000 A 
ATOM     27  C   UNL     1      -4.774  13.499  23.904  0.00  0.00    +0.000 A 
ENDBRANCH  21  22
BRANCH  21  28
ATOM     28  C   UNL     1      -3.216  17.022  23.887  0.00  0.00    +0.000 C 
ATOM     29  C   UNL     1      -3.149  17.394  25.362  0.00  0.00    +0.000 C 
ENDBRANCH  21  28
ENDBRANCH  19  21
ENDBRANCH   5  17
BRANCH   6  30
ATOM     30  S   UNL     1       0.930  15.740  21.521  0.00  0.00    +0.000 S 
ATOM     31  C   UNL     1       0.051  17.261  21.133  0.00  0.00    +0.000 C 
ATOM     32  O   UNL     1       0.720  15.304  23.009  0.00  0.00    +0.000 OA
ENDBRANCH   6  30
BRANCH   1  33
ATOM     33  O   UNL     1      -3.524  10.624  16.882  0.00  0.00    +0.000 OA
BRANCH  33  35
ATOM     34  C   UNL     1      -3.109  10.111  14.550  0.00  0.00    +0.000 C 
ATOM     35  C   UNL     1      -2.563  10.087  15.963  0.00  0.00    +0.000 C 
ENDBRANCH  33  35
ENDBRANCH   1  33
TORSDOF 8
ENDMDL
MODEL 7
REMARK VINA RESULT:      -5.9      3.380      7.341
REMARK  Name = 
REMARK  11 active torsions:
REMARK  status: ('A' for Active; 'I' for Inactive)
REMARK    1  A    between atoms: C_1  and  C_2
REMARK    2  A    between atoms: C_2  and  O_3
REMARK    3  A    between atoms: O_3  and  C_4
REMARK    4  A    between atoms: C_8  and  C_9
REMARK    5  A    between atoms: N_11  and  C_12
REMARK    6  A    between atoms: C_12  and  C_13
REMARK    7  A    between atoms: C_12  and  C_15
REMARK    8  A    between atoms: C_13  and  C_14
REMARK    9  A    between atoms: C_21  and  S_22
REMARK   10  A    between atoms: S_22  and  C_23
REMARK   11  A    between atoms: C_25  and  C_26
REMARK                            x       y       z     vdW  Elec       q    Type
REMARK                         _______ _______ _______ _____ _____    ______ ____
ROOT
ATOM      1  C   UNL     1       1.122  10.181  18.250  0.00  0.00    +0.000 A 
ATOM      2  C   UNL     1      -0.199  10.000  18.614  0.00  0.00    +0.000 A 
ATOM      3  C   UNL     1      -0.846  10.974  19.364  0.00  0.00    +0.000 A 
ATOM      4  C   UNL     1      -0.202  12.143  19.837  0.00  0.00    +0.000 A 
ATOM      5  C   UNL     1      -0.822  13.182  20.609  0.00  0.00    +0.000 A 
ATOM      6  C   UNL     1      -0.091  14.351  20.940  0.00  0.00    +0.000 A 
ATOM      7  C   UNL     1       1.275  14.379  20.599  0.00  0.00    +0.000 A 
ATOM      8  N   UNL     1       1.854  13.381  19.869  0.00  0.00    +0.000 NA
ATOM      9  C   UNL     1       1.144  12.311  19.481  0.00  0.00    +0.000 A 
ATOM     10  C   UNL     1       1.775  11.342  18.686  0.00  0.00    +0.000 A 
ENDROOT
BRANCH   7  11
ATOM     11  C   UNL     1       2.246  15.463  20.955  0.00  0.00    +0.000 A 
ATOM     12  C   UNL     1       2.473  16.593  20.144  0.00  0.00    +0.000 A 
ATOM     13  C   UNL     1       3.465  17.535  20.445  0.00  0.00    +0.000 A 
ATOM     14  C   UNL     1       4.202  17.419  21.617  0.00  0.00    +0.000 A 
ATOM     15  C   UNL     1       3.932  16.374  22.493  0.00  0.00    +0.000 A 
ATOM     16  C   UNL     1       2.971  15.408  22.163  0.00  0.00    +0.000 A 
ENDBRANCH   7  11
BRANCH   5  17
ATOM     17  C   UNL     1      -2.267  13.047  21.013  0.00  0.00    +0.000 C 
ATOM     18  O   UNL     1      -2.596  12.383  21.988  0.00  0.00    +0.000 OA
ATOM     19  N   UNL     1      -3.208  13.749  20.293  0.00  0.00    +0.000 N 
ATOM     20  H   UNL     1      -2.907  14.346  19.544  0.00  0.00    +0.000 HD
BRANCH  19  21
ATOM     21  C   UNL     1      -4.633  13.681  20.627  0.00  0.00    +0.000 C 
BRANCH  21  22
ATOM     22  C   UNL     1      -5.362  12.535  19.930  0.00  0.00    +0.000 A 
ATOM     23  C   UNL     1      -4.986  12.024  18.673  0.00  0.00    +0.000 A 
ATOM     24  C   UNL     1      -5.676  10.971  18.076  0.00  0.00    +0.000 A 
ATOM     25  C   UNL     1      -6.752  10.387  18.731  0.00  0.00    +0.000 A 
ATOM     26  C   UNL     1      -7.126  10.844  19.990  0.00  0.00    +0.000 A 
ATOM     27  C   UNL     1      -6.434  11.906  20.586  0.00  0.00    +0.000 A 
ENDBRANCH  21  22
BRANCH  21  28
ATOM     28  C   UNL     1      -5.337  15.060  20.451  0.00  0.00    +0.000 C 
ATOM     29  C   UNL     1      -6.285  15.171  19.264  0.00  0.00    +0.000 C 
ENDBRANCH  21  28
ENDBRANCH  19  21
ENDBRANCH   5  17
BRANCH   6  30
ATOM     30  S   UNL     1      -0.806  15.780  21.795  0.00  0.00    +0.000 S 
ATOM     31  C   UNL     1      -1.533  16.711  20.438  0.00  0.00    +0.000 C 
ATOM     32  O   UNL     1      -1.891  15.246  22.788  0.00  0.00    +0.000 OA
ENDBRANCH   6  30
BRANCH   1  33
ATOM     33  O   UNL     1       1.842   9.314  17.468  0.00  0.00    +0.000 OA
BRANCH  33  35
ATOM     34  C   UNL     1       3.512   7.561  17.554  0.00  0.00    +0.000 C 
ATOM     35  C   UNL     1       2.190   8.071  18.090  0.00  0.00    +0.000 C 
ENDBRANCH  33  35
ENDBRANCH   1  33
TORSDOF 8
ENDMDL
MODEL 8
REMARK VINA RESULT:      -5.9      4.227      8.200
REMARK  Name = 
REMARK  11 active torsions:
REMARK  status: ('A' for Active; 'I' for Inactive)
REMARK    1  A    between atoms: C_1  and  C_2
REMARK    2  A    between atoms: C_2  and  O_3
REMARK    3  A    between atoms: O_3  and  C_4
REMARK    4  A    between atoms: C_8  and  C_9
REMARK    5  A    between atoms: N_11  and  C_12
REMARK    6  A    between atoms: C_12  and  C_13
REMARK    7  A    between atoms: C_12  and  C_15
REMARK    8  A    between atoms: C_13  and  C_14
REMARK    9  A    between atoms: C_21  and  S_22
REMARK   10  A    between atoms: S_22  and  C_23
REMARK   11  A    between atoms: C_25  and  C_26
REMARK                            x       y       z     vdW  Elec       q    Type
REMARK                         _______ _______ _______ _____ _____    ______ ____
ROOT
ATOM      1  C   UNL     1       0.996   9.812  18.279  0.00  0.00    +0.000 A 
ATOM      2  C   UNL     1      -0.235   9.983  18.884  0.00  0.00    +0.000 A 
ATOM      3  C   UNL     1      -0.532  11.185  19.513  0.00  0.00    +0.000 A 
ATOM      4  C   UNL     1       0.394  12.251  19.623  0.00  0.00    +0.000 A 
ATOM      5  C   UNL     1       0.138  13.515  20.255  0.00  0.00    +0.000 A 
ATOM      6  C   UNL     1       1.119  14.538  20.214  0.00  0.00    +0.000 A 
ATOM      7  C   UNL     1       2.370  14.214  19.655  0.00  0.00    +0.000 A 
ATOM      8  N   UNL     1       2.602  13.006  19.062  0.00  0.00    +0.000 NA
ATOM      9  C   UNL     1       1.648  12.064  19.024  0.00  0.00    +0.000 A 
ATOM     10  C   UNL     1       1.921  10.862  18.354  0.00  0.00    +0.000 A 
ENDROOT
BRANCH   7  11
ATOM     11  C   UNL     1       3.572  15.109  19.616  0.00  0.00    +0.000 A 
ATOM     12  C   UNL     1       4.544  15.143  20.637  0.00  0.00    +0.000 A 
ATOM     13  C   UNL     1       5.597  16.066  20.627  0.00  0.00    +0.000 A 
ATOM     14  C   UNL     1       5.759  16.927  19.548  0.00  0.00    +0.000 A 
ATOM     15  C   UNL     1       4.880  16.848  18.474  0.00  0.00    +0.000 A 
ATOM     16  C   UNL     1       3.800  15.955  18.511  0.00  0.00    +0.000 A 
ENDBRANCH   7  11
BRANCH   5  17
ATOM     17  C   UNL     1      -1.196  13.763  20.909  0.00  0.00    +0.000 C 
ATOM     18  O   UNL     1      -2.159  14.149  20.260  0.00  0.00    +0.000 OA
ATOM     19  N   UNL     1      -1.322  13.477  22.250  0.00  0.00    +0.000 N 
ATOM     20  H   UNL     1      -0.539  13.090  22.745  0.00  0.00    +0.000 HD
BRANCH  19  21
ATOM     21  C   UNL     1      -2.589  13.680  22.958  0.00  0.00    +0.000 C 
BRANCH  21  22
ATOM     22  C   UNL     1      -2.575  14.896  23.882  0.00  0.00    +0.000 A 
ATOM     23  C   UNL     1      -1.710  15.024  24.985  0.00  0.00    +0.000 A 
ATOM     24  C   UNL     1      -1.726  16.156  25.799  0.00  0.00    +0.000 A 
ATOM     25  C   UNL     1      -2.597  17.199  25.518  0.00  0.00    +0.000 A 
ATOM     26  C   UNL     1      -3.439  17.119  24.414  0.00  0.00    +0.000 A 
ATOM     27  C   UNL     1      -3.425  15.979  23.600  0.00  0.00    +0.000 A 
ENDBRANCH  21  22
BRANCH  21  28
ATOM     28  C   UNL     1      -3.078  12.377  23.659  0.00  0.00    +0.000 C 
ATOM     29  C   UNL     1      -4.285  12.532  24.574  0.00  0.00    +0.000 C 
ENDBRANCH  21  28
ENDBRANCH  19  21
ENDBRANCH   5  17
BRANCH   6  30
ATOM     30  S   UNL     1       0.860  16.211  20.861  0.00  0.00    +0.000 S 
ATOM     31  C   UNL     1      -0.255  16.923  19.641  0.00  0.00    +0.000 C 
ATOM     32  O   UNL     1       0.184  16.078  22.266  0.00  0.00    +0.000 OA
ENDBRANCH   6  30
BRANCH   1  33
ATOM     33  O   UNL     1       1.376   8.691  17.586  0.00  0.00    +0.000 OA
BRANCH  33  35
ATOM     34  C   UNL     1       2.602   6.786  18.445  0.00  0.00    +0.000 C 
ATOM     35  C   UNL     1       2.685   8.194  17.892  0.00  0.00    +0.000 C 
ENDBRANCH  33  35
ENDBRANCH   1  33
TORSDOF 8
ENDMDL
MODEL 9
REMARK VINA RESULT:      -5.9      4.548      8.452
REMARK  Name = 
REMARK  11 active torsions:
REMARK  status: ('A' for Active; 'I' for Inactive)
REMARK    1  A    between atoms: C_1  and  C_2
REMARK    2  A    between atoms: C_2  and  O_3
REMARK    3  A    between atoms: O_3  and  C_4
REMARK    4  A    between atoms: C_8  and  C_9
REMARK    5  A    between atoms: N_11  and  C_12
REMARK    6  A    between atoms: C_12  and  C_13
REMARK    7  A    between atoms: C_12  and  C_15
REMARK    8  A    between atoms: C_13  and  C_14
REMARK    9  A    between atoms: C_21  and  S_22
REMARK   10  A    between atoms: S_22  and  C_23
REMARK   11  A    between atoms: C_25  and  C_26
REMARK                            x       y       z     vdW  Elec       q    Type
REMARK                         _______ _______ _______ _____ _____    ______ ____
ROOT
ATOM      1  C   UNL     1       0.062   9.507  21.703  0.00  0.00    +0.000 A 
ATOM      2  C   UNL     1      -0.847  10.033  22.602  0.00  0.00    +0.000 A 
ATOM      3  C   UNL     1      -0.948  11.410  22.753  0.00  0.00    +0.000 A 
ATOM      4  C   UNL     1      -0.116  12.327  22.066  0.00  0.00    +0.000 A 
ATOM      5  C   UNL     1      -0.181  13.757  22.179  0.00  0.00    +0.000 A 
ATOM      6  C   UNL     1       0.646  14.570  21.364  0.00  0.00    +0.000 A 
ATOM      7  C   UNL     1       1.601  13.921  20.558  0.00  0.00    +0.000 A 
ATOM      8  N   UNL     1       1.656  12.560  20.464  0.00  0.00    +0.000 NA
ATOM      9  C   UNL     1       0.818  11.786  21.171  0.00  0.00    +0.000 A 
ATOM     10  C   UNL     1       0.881  10.396  20.995  0.00  0.00    +0.000 A 
ENDROOT
BRANCH   7  11
ATOM     11  C   UNL     1       2.640  14.593  19.713  0.00  0.00    +0.000 A 
ATOM     12  C   UNL     1       3.918  14.944  20.192  0.00  0.00    +0.000 A 
ATOM     13  C   UNL     1       4.829  15.670  19.414  0.00  0.00    +0.000 A 
ATOM     14  C   UNL     1       4.519  15.991  18.098  0.00  0.00    +0.000 A 
ATOM     15  C   UNL     1       3.309  15.569  17.559  0.00  0.00    +0.000 A 
ATOM     16  C   UNL     1       2.382  14.885  18.358  0.00  0.00    +0.000 A 
ENDBRANCH   7  11
BRANCH   5  17
ATOM     17  C   UNL     1      -1.171  14.384  23.126  0.00  0.00    +0.000 C 
ATOM     18  O   UNL     1      -0.899  14.558  24.307  0.00  0.00    +0.000 OA
ATOM     19  N   UNL     1      -2.370  14.822  22.610  0.00  0.00    +0.000 N 
ATOM     20  H   UNL     1      -2.541  14.737  21.624  0.00  0.00    +0.000 HD
BRANCH  19  21
ATOM     21  C   UNL     1      -3.383  15.452  23.460  0.00  0.00    +0.000 C 
BRANCH  21  22
ATOM     22  C   UNL     1      -4.594  14.559  23.721  0.00  0.00    +0.000 A 
ATOM     23  C   UNL     1      -5.923  14.969  23.506  0.00  0.00    +0.000 A 
ATOM     24  C   UNL     1      -6.999  14.117  23.750  0.00  0.00    +0.000 A 
ATOM     25  C   UNL     1      -6.770  12.823  24.199  0.00  0.00    +0.000 A 
ATOM     26  C   UNL     1      -5.467  12.375  24.386  0.00  0.00    +0.000 A 
ATOM     27  C   UNL     1      -4.388  13.235  24.145  0.00  0.00    +0.000 A 
ENDBRANCH  21  22
BRANCH  21  28
ATOM     28  C   UNL     1      -3.763  16.876  22.953  0.00  0.00    +0.000 C 
ATOM     29  C   UNL     1      -3.795  17.051  21.440  0.00  0.00    +0.000 C 
ENDBRANCH  21  28
ENDBRANCH  19  21
ENDBRANCH   5  17
BRANCH   6  30
ATOM     30  S   UNL     1       0.560  16.380  21.326  0.00  0.00    +0.000 S 
ATOM     31  C   UNL     1      -0.568  16.679  19.956  0.00  0.00    +0.000 C 
ATOM     32  O   UNL     1      -0.038  16.857  22.692  0.00  0.00    +0.000 OA
ENDBRANCH   6  30
BRANCH   1  33
ATOM     33  O   UNL     1       0.210   8.170  21.435  0.00  0.00    +0.000 OA
BRANCH  33  35
ATOM     34  C   UNL     1       1.542   6.289  20.686  0.00  0.00    +0.000 C 
ATOM     35  C   UNL     1       1.482   7.789  20.894  0.00  0.00    +0.000 C 
ENDBRANCH  33  35
ENDBRANCH   1  33
TORSDOF 8
ENDMDL
