MODEL 1
REMARK VINA RESULT:      -5.1      0.000      0.000
REMARK  Name = 
REMARK  5 active torsions:
REMARK  status: ('A' for Active; 'I' for Inactive)
REMARK    1  A    between atoms: C_1  and  C_2
REMARK    2  A    between atoms: C_2  and  O_3
REMARK    3  A    between atoms: C_2  and  C_4
REMARK    4  A    between atoms: C_2  and  C_6
REMARK    5  A    between atoms: C_4  and  N_5
REMARK                            x       y       z     vdW  Elec       q    Type
REMARK                         _______ _______ _______ _____ _____    ______ ____
ROOT
ATOM      1  C   UNL     1       3.962   3.955  17.488  0.00  0.00    +0.000 C 
ATOM      2  C   UNL     1       4.418   4.103  18.950  0.00  0.00    +0.000 C 
ENDROOT
BRANCH   2   3
ATOM      3  C   UNL     1       3.189   4.097  19.895  0.00  0.00    +0.000 C 
ATOM      4  C   UNL     1       1.838   4.229  19.184  0.00  0.00    +0.000 C 
ATOM      5  C   UNL     1       0.823   3.852  20.253  0.00  0.00    +0.000 C 
ATOM      6  C   UNL     1       1.526   2.832  21.144  0.00  0.00    +0.000 C 
ATOM      7  C   UNL     1       2.987   2.804  20.695  0.00  0.00    +0.000 C 
ENDBRANCH   2   3
BRANCH   2   8
ATOM      8  O   UNL     1       5.261   2.984  19.259  0.00  0.00    +0.000 OA
ATOM      9  H   UNL     1       6.160   3.352  19.341  0.00  0.00    +0.000 HD
ENDBRANCH   2   8
BRANCH   2  10
ATOM     10  C   UNL     1       5.258   5.399  19.129  0.00  0.00    +0.000 C 
BRANCH  10  11
ATOM     11  N   UNL     1       6.612   5.130  19.644  0.00  0.00    +0.000 NA
ATOM     12  H   UNL     1       6.637   5.383  20.632  0.00  0.00    +0.000 HD
ATOM     13  H   UNL     1       7.265   5.769  19.191  0.00  0.00    +0.000 HD
ENDBRANCH  10  11
ENDBRANCH   2  10
TORSDOF 4
ENDMDL
MODEL 2
REMARK VINA RESULT:      -5.0      0.493      1.349
REMARK  Name = 
REMARK  5 active torsions:
REMARK  status: ('A' for Active; 'I' for Inactive)
REMARK    1  A    between atoms: C_1  and  C_2
REMARK    2  A    between atoms: C_2  and  O_3
REMARK    3  A    between atoms: C_2  and  C_4
REMARK    4  A    between atoms: C_2  and  C_6
REMARK    5  A    between atoms: C_4  and  N_5
REMARK                            x       y       z     vdW  Elec       q    Type
REMARK                         _______ _______ _______ _____ _____    ______ ____
ROOT
ATOM      1  C   UNL     1       4.417   3.505  17.298  0.00  0.00    +0.000 C 
ATOM      2  C   UNL     1       4.366   3.658  18.828  0.00  0.00    +0.000 C 
ENDROOT
BRANCH   2   3
ATOM      3  C   UNL     1       2.946   3.321  19.350  0.00  0.00    +0.000 C 
ATOM      4  C   UNL     1       2.900   2.837  20.804  0.00  0.00    +0.000 C 
ATOM      5  C   UNL     1       1.426   2.913  21.169  0.00  0.00    +0.000 C 
ATOM      6  C   UNL     1       0.861   4.075  20.358  0.00  0.00    +0.000 C 
ATOM      7  C   UNL     1       1.968   4.503  19.394  0.00  0.00    +0.000 C 
ENDBRANCH   2   3
BRANCH   2   8
ATOM      8  O   UNL     1       5.311   2.736  19.390  0.00  0.00    +0.000 OA
ATOM      9  H   UNL     1       6.170   2.975  18.996  0.00  0.00    +0.000 HD
ENDBRANCH   2   8
BRANCH   2  10
ATOM     10  C   UNL     1       4.791   5.094  19.245  0.00  0.00    +0.000 C 
BRANCH  10  11
ATOM     11  N   UNL     1       6.209   5.173  19.640  0.00  0.00    +0.000 NA
ATOM     12  H   UNL     1       6.782   4.939  18.829  0.00  0.00    +0.000 HD
ATOM     13  H   UNL     1       6.398   4.434  20.318  0.00  0.00    +0.000 HD
ENDBRANCH  10  11
ENDBRANCH   2  10
TORSDOF 4
ENDMDL
MODEL 3
REMARK VINA RESULT:      -5.0      1.056      1.245
REMARK  Name = 
REMARK  5 active torsions:
REMARK  status: ('A' for Active; 'I' for Inactive)
REMARK    1  A    between atoms: C_1  and  C_2
REMARK    2  A    between atoms: C_2  and  O_3
REMARK    3  A    between atoms: C_2  and  C_4
REMARK    4  A    between atoms: C_2  and  C_6
REMARK    5  A    between atoms: C_4  and  N_5
REMARK                            x       y       z     vdW  Elec       q    Type
REMARK                         _______ _______ _______ _____ _____    ______ ____
ROOT
ATOM      1  C   UNL     1       3.930   2.994  17.633  0.00  0.00    +0.000 C 
ATOM      2  C   UNL     1       4.456   3.400  19.021  0.00  0.00    +0.000 C 
ENDROOT
BRANCH   2   3
ATOM      3  C   UNL     1       3.272   3.752  19.957  0.00  0.00    +0.000 C 
ATOM      4  C   UNL     1       2.870   5.231  19.948  0.00  0.00    +0.000 C 
ATOM      5  C   UNL     1       1.518   5.248  20.645  0.00  0.00    +0.000 C 
ATOM      6  C   UNL     1       0.868   3.908  20.311  0.00  0.00    +0.000 C 
ATOM      7  C   UNL     1       1.940   3.073  19.610  0.00  0.00    +0.000 C 
ENDBRANCH   2   3
BRANCH   2   8
ATOM      8  O   UNL     1       5.172   2.279  19.560  0.00  0.00    +0.000 OA
ATOM      9  H   UNL     1       6.115   2.508  19.472  0.00  0.00    +0.000 HD
ENDBRANCH   2   8
BRANCH   2  10
ATOM     10  C   UNL     1       5.449   4.590  18.900  0.00  0.00    +0.000 C 
BRANCH  10  11
ATOM     11  N   UNL     1       6.731   4.197  18.288  0.00  0.00    +0.000 NA
ATOM     12  H   UNL     1       6.588   3.331  17.767  0.00  0.00    +0.000 HD
ATOM     13  H   UNL     1       7.384   3.952  19.033  0.00  0.00    +0.000 HD
ENDBRANCH  10  11
ENDBRANCH   2  10
TORSDOF 4
ENDMDL
MODEL 4
REMARK VINA RESULT:      -5.0      1.072      1.209
REMARK  Name = 
REMARK  5 active torsions:
REMARK  status: ('A' for Active; 'I' for Inactive)
REMARK    1  A    between atoms: C_1  and  C_2
REMARK    2  A    between atoms: C_2  and  O_3
REMARK    3  A    between atoms: C_2  and  C_4
REMARK    4  A    between atoms: C_2  and  C_6
REMARK    5  A    between atoms: C_4  and  N_5
REMARK                            x       y       z     vdW  Elec       q    Type
REMARK                         _______ _______ _______ _____ _____    ______ ____
ROOT
ATOM      1  C   UNL     1       4.870   3.969  17.087  0.00  0.00    +0.000 C 
ATOM      2  C   UNL     1       4.463   3.979  18.570  0.00  0.00    +0.000 C 
ENDROOT
BRANCH   2   3
ATOM      3  C   UNL     1       2.923   3.865  18.701  0.00  0.00    +0.000 C 
ATOM      4  C   UNL     1       2.353   2.488  18.343  0.00  0.00    +0.000 C 
ATOM      5  C   UNL     1       0.928   2.532  18.874  0.00  0.00    +0.000 C 
ATOM      6  C   UNL     1       0.975   3.440  20.099  0.00  0.00    +0.000 C 
ATOM      7  C   UNL     1       2.372   4.062  20.120  0.00  0.00    +0.000 C 
ENDBRANCH   2   3
BRANCH   2   8
ATOM      8  O   UNL     1       5.079   2.846  19.199  0.00  0.00    +0.000 OA
ATOM      9  H   UNL     1       4.849   2.917  20.144  0.00  0.00    +0.000 HD
ENDBRANCH   2   8
BRANCH   2  10
ATOM     10  C   UNL     1       4.993   5.262  19.271  0.00  0.00    +0.000 C 
BRANCH  10  11
ATOM     11  N   UNL     1       6.424   5.172  19.611  0.00  0.00    +0.000 NA
ATOM     12  H   UNL     1       6.893   4.628  18.886  0.00  0.00    +0.000 HD
ATOM     13  H   UNL     1       6.521   4.618  20.462  0.00  0.00    +0.000 HD
ENDBRANCH  10  11
ENDBRANCH   2  10
TORSDOF 4
ENDMDL
MODEL 5
REMARK VINA RESULT:      -5.0      2.279      3.400
REMARK  Name = 
REMARK  5 active torsions:
REMARK  status: ('A' for Active; 'I' for Inactive)
REMARK    1  A    between atoms: C_1  and  C_2
REMARK    2  A    between atoms: C_2  and  O_3
REMARK    3  A    between atoms: C_2  and  C_4
REMARK    4  A    between atoms: C_2  and  C_6
REMARK    5  A    between atoms: C_4  and  N_5
REMARK                            x       y       z     vdW  Elec       q    Type
REMARK                         _______ _______ _______ _____ _____    ______ ____
ROOT
ATOM      1  C   UNL     1       7.175   5.885  16.569  0.00  0.00    +0.000 C 
ATOM      2  C   UNL     1       7.245   5.111  17.896  0.00  0.00    +0.000 C 
ENDROOT
BRANCH   2   3
ATOM      3  C   UNL     1       5.866   4.484  18.221  0.00  0.00    +0.000 C 
ATOM      4  C   UNL     1       4.887   5.428  18.928  0.00  0.00    +0.000 C 
ATOM      5  C   UNL     1       3.547   4.716  18.818  0.00  0.00    +0.000 C 
ATOM      6  C   UNL     1       3.603   3.938  17.507  0.00  0.00    +0.000 C 
ATOM      7  C   UNL     1       5.042   4.050  17.001  0.00  0.00    +0.000 C 
ENDBRANCH   2   3
BRANCH   2   8
ATOM      8  O   UNL     1       8.218   4.067  17.741  0.00  0.00    +0.000 OA
ATOM      9  H   UNL     1       8.103   3.489  18.518  0.00  0.00    +0.000 HD
ENDBRANCH   2   8
BRANCH   2  10
ATOM     10  C   UNL     1       7.722   6.044  19.045  0.00  0.00    +0.000 C 
BRANCH  10  11
ATOM     11  N   UNL     1       8.069   5.302  20.270  0.00  0.00    +0.000 NA
ATOM     12  H   UNL     1       8.816   5.805  20.751  0.00  0.00    +0.000 HD
ATOM     13  H   UNL     1       8.483   4.408  20.002  0.00  0.00    +0.000 HD
ENDBRANCH  10  11
ENDBRANCH   2  10
TORSDOF 4
ENDMDL
MODEL 6
REMARK VINA RESULT:      -5.0      1.176      1.310
REMARK  Name = 
REMARK  5 active torsions:
REMARK  status: ('A' for Active; 'I' for Inactive)
REMARK    1  A    between atoms: C_1  and  C_2
REMARK    2  A    between atoms: C_2  and  O_3
REMARK    3  A    between atoms: C_2  and  C_4
REMARK    4  A    between atoms: C_2  and  C_6
REMARK    5  A    between atoms: C_4  and  N_5
REMARK                            x       y       z     vdW  Elec       q    Type
REMARK                         _______ _______ _______ _____ _____    ______ ____
ROOT
ATOM      1  C   UNL     1       3.501   1.667  18.186  0.00  0.00    +0.000 C 
ATOM      2  C   UNL     1       4.143   2.852  18.927  0.00  0.00    +0.000 C 
ENDROOT
BRANCH   2   3
ATOM      3  C   UNL     1       3.109   3.510  19.876  0.00  0.00    +0.000 C 
ATOM      4  C   UNL     1       1.702   3.652  19.286  0.00  0.00    +0.000 C 
ATOM      5  C   UNL     1       0.831   3.982  20.489  0.00  0.00    +0.000 C 
ATOM      6  C   UNL     1       1.483   3.274  21.673  0.00  0.00    +0.000 C 
ATOM      7  C   UNL     1       2.820   2.732  21.167  0.00  0.00    +0.000 C 
ENDBRANCH   2   3
BRANCH   2   8
ATOM      8  O   UNL     1       5.240   2.342  19.699  0.00  0.00    +0.000 OA
ATOM      9  H   UNL     1       5.034   1.401  19.850  0.00  0.00    +0.000 HD
ENDBRANCH   2   8
BRANCH   2  10
ATOM     10  C   UNL     1       4.711   3.885  17.913  0.00  0.00    +0.000 C 
BRANCH  10  11
ATOM     11  N   UNL     1       6.137   4.178  18.142  0.00  0.00    +0.000 NA
ATOM     12  H   UNL     1       6.683   3.694  17.428  0.00  0.00    +0.000 HD
ATOM     13  H   UNL     1       6.418   3.750  19.024  0.00  0.00    +0.000 HD
ENDBRANCH  10  11
ENDBRANCH   2  10
TORSDOF 4
ENDMDL
MODEL 7
REMARK VINA RESULT:      -4.9      1.675      1.941
REMARK  Name = 
REMARK  5 active torsions:
REMARK  status: ('A' for Active; 'I' for Inactive)
REMARK    1  A    between atoms: C_1  and  C_2
REMARK    2  A    between atoms: C_2  and  O_3
REMARK    3  A    between atoms: C_2  and  C_4
REMARK    4  A    between atoms: C_2  and  C_6
REMARK    5  A    between atoms: C_4  and  N_5
REMARK                            x       y       z     vdW  Elec       q    Type
REMARK                         _______ _______ _______ _____ _____    ______ ____
ROOT
ATOM      1  C   UNL     1       3.631   6.701  17.763  0.00  0.00    +0.000 C 
ATOM      2  C   UNL     1       3.724   5.199  18.081  0.00  0.00    +0.000 C 
ENDROOT
BRANCH   2   3
ATOM      3  C   UNL     1       2.336   4.658  18.509  0.00  0.00    +0.000 C 
ATOM      4  C   UNL     1       2.082   3.191  18.141  0.00  0.00    +0.000 C 
ATOM      5  C   UNL     1       0.850   2.818  18.952  0.00  0.00    +0.000 C 
ATOM      6  C   UNL     1       0.927   3.656  20.224  0.00  0.00    +0.000 C 
ATOM      7  C   UNL     1       2.081   4.639  20.022  0.00  0.00    +0.000 C 
ENDBRANCH   2   3
BRANCH   2   8
ATOM      8  O   UNL     1       4.149   4.526  16.886  0.00  0.00    +0.000 OA
ATOM      9  H   UNL     1       4.518   3.675  17.186  0.00  0.00    +0.000 HD
ENDBRANCH   2   8
BRANCH   2  10
ATOM     10  C   UNL     1       4.791   4.940  19.181  0.00  0.00    +0.000 C 
BRANCH  10  11
ATOM     11  N   UNL     1       5.635   3.769  18.888  0.00  0.00    +0.000 NA
ATOM     12  H   UNL     1       6.009   3.870  17.943  0.00  0.00    +0.000 HD
ATOM     13  H   UNL     1       5.040   2.941  18.849  0.00  0.00    +0.000 HD
ENDBRANCH  10  11
ENDBRANCH   2  10
TORSDOF 4
ENDMDL
MODEL 8
REMARK VINA RESULT:      -4.8      2.547      2.900
REMARK  Name = 
REMARK  5 active torsions:
REMARK  status: ('A' for Active; 'I' for Inactive)
REMARK    1  A    between atoms: C_1  and  C_2
REMARK    2  A    between atoms: C_2  and  O_3
REMARK    3  A    between atoms: C_2  and  C_4
REMARK    4  A    between atoms: C_2  and  C_6
REMARK    5  A    between atoms: C_4  and  N_5
REMARK                            x       y       z     vdW  Elec       q    Type
REMARK                         _______ _______ _______ _____ _____    ______ ____
ROOT
ATOM      1  C   UNL     1       5.773   3.884  15.844  0.00  0.00    +0.000 C 
ATOM      2  C   UNL     1       5.753   4.671  17.166  0.00  0.00    +0.000 C 
ENDROOT
BRANCH   2   3
ATOM      3  C   UNL     1       4.361   4.550  17.837  0.00  0.00    +0.000 C 
ATOM      4  C   UNL     1       3.538   5.844  17.837  0.00  0.00    +0.000 C 
ATOM      5  C   UNL     1       2.137   5.387  18.215  0.00  0.00    +0.000 C 
ATOM      6  C   UNL     1       2.002   3.974  17.657  0.00  0.00    +0.000 C 
ATOM      7  C   UNL     1       3.391   3.573  17.158  0.00  0.00    +0.000 C 
ENDBRANCH   2   3
BRANCH   2   8
ATOM      8  O   UNL     1       6.748   4.100  18.028  0.00  0.00    +0.000 OA
ATOM      9  H   UNL     1       7.043   3.287  17.580  0.00  0.00    +0.000 HD
ENDBRANCH   2   8
BRANCH   2  10
ATOM     10  C   UNL     1       6.130   6.159  16.919  0.00  0.00    +0.000 C 
BRANCH  10  11
ATOM     11  N   UNL     1       7.457   6.311  16.298  0.00  0.00    +0.000 NA
ATOM     12  H   UNL     1       7.725   7.295  16.348  0.00  0.00    +0.000 HD
ATOM     13  H   UNL     1       7.374   6.111  15.301  0.00  0.00    +0.000 HD
ENDBRANCH  10  11
ENDBRANCH   2  10
TORSDOF 4
ENDMDL
MODEL 9
REMARK VINA RESULT:      -4.8      2.040      2.274
REMARK  Name = 
REMARK  5 active torsions:
REMARK  status: ('A' for Active; 'I' for Inactive)
REMARK    1  A    between atoms: C_1  and  C_2
REMARK    2  A    between atoms: C_2  and  O_3
REMARK    3  A    between atoms: C_2  and  C_4
REMARK    4  A    between atoms: C_2  and  C_6
REMARK    5  A    between atoms: C_4  and  N_5
REMARK                            x       y       z     vdW  Elec       q    Type
REMARK                         _______ _______ _______ _____ _____    ______ ____
ROOT
ATOM      1  C   UNL     1       4.855   5.679  16.518  0.00  0.00    +0.000 C 
ATOM      2  C   UNL     1       5.182   4.451  17.385  0.00  0.00    +0.000 C 
ENDROOT
BRANCH   2   3
ATOM      3  C   UNL     1       3.902   3.945  18.098  0.00  0.00    +0.000 C 
ATOM      4  C   UNL     1       2.639   4.759  17.794  0.00  0.00    +0.000 C 
ATOM      5  C   UNL     1       1.507   3.883  18.307  0.00  0.00    +0.000 C 
ATOM      6  C   UNL     1       1.984   2.445  18.124  0.00  0.00    +0.000 C 
ATOM      7  C   UNL     1       3.453   2.530  17.709  0.00  0.00    +0.000 C 
ENDBRANCH   2   3
BRANCH   2   8
ATOM      8  O   UNL     1       5.680   3.423  16.516  0.00  0.00    +0.000 OA
ATOM      9  H   UNL     1       4.900   3.092  16.034  0.00  0.00    +0.000 HD
ENDBRANCH   2   8
BRANCH   2  10
ATOM     10  C   UNL     1       6.299   4.792  18.412  0.00  0.00    +0.000 C 
BRANCH  10  11
ATOM     11  N   UNL     1       7.626   4.317  17.983  0.00  0.00    +0.000 NA
ATOM     12  H   UNL     1       7.798   3.408  18.414  0.00  0.00    +0.000 HD
ATOM     13  H   UNL     1       8.336   4.935  18.379  0.00  0.00    +0.000 HD
ENDBRANCH  10  11
ENDBRANCH   2  10
TORSDOF 4
ENDMDL
