MODEL 1
REMARK VINA RESULT:      -7.8      0.000      0.000
REMARK  Name = 
REMARK  10 active torsions:
REMARK  status: ('A' for Active; 'I' for Inactive)
REMARK    1  A    between atoms: C_1  and  O_2
REMARK    2  A    between atoms: O_2  and  C_3
REMARK    3  A    between atoms: C_3  and  C_5
REMARK    4  A    between atoms: C_8  and  C_9
REMARK    5  A    between atoms: C_10  and  C_11
REMARK    6  A    between atoms: C_11  and  C_13
REMARK    7  A    between atoms: C_22  and  O_23
REMARK    8  A    between atoms: N_26  and  C_27
REMARK    9  A    between atoms: C_27  and  C_28
REMARK   10  A    between atoms: C_28  and  N_29
REMARK                            x       y       z     vdW  Elec       q    Type
REMARK                         _______ _______ _______ _____ _____    ______ ____
ROOT
ATOM      1  C   UNL     1      -0.167  10.866  20.373  0.00  0.00    +0.000 C 
ATOM      2  C   UNL     1       0.218   9.996  21.532  0.00  0.00    +0.000 C 
ATOM      3  C   UNL     1      -0.522  10.242  22.627  0.00  0.00    +0.000 C 
ATOM      4  C   UNL     1      -1.507  11.281  22.281  0.00  0.00    +0.000 C 
ATOM      5  O   UNL     1      -2.332  11.755  23.043  0.00  0.00    +0.000 OA
ATOM      6  N   UNL     1      -1.276  11.624  20.959  0.00  0.00    +0.000 N 
ENDROOT
BRANCH   1  10
ATOM      7  C   UNL     1       2.833  13.575  18.773  0.00  0.00    +0.000 A 
ATOM      8  C   UNL     1       2.324  13.744  20.064  0.00  0.00    +0.000 A 
ATOM      9  C   UNL     1       1.397  12.836  20.586  0.00  0.00    +0.000 A 
ATOM     10  C   UNL     1       0.958  11.737  19.830  0.00  0.00    +0.000 A 
ATOM     11  C   UNL     1       1.552  11.523  18.572  0.00  0.00    +0.000 A 
ATOM     12  C   UNL     1       2.459  12.446  18.037  0.00  0.00    +0.000 A 
BRANCH   7  13
ATOM     13  C   UNL     1       3.734  14.630  18.229  0.00  0.00    +0.000 C 
ATOM     14  O   UNL     1       3.407  15.397  17.337  0.00  0.00    +0.000 OA
BRANCH  13  16
ATOM     15  C   UNL     1       6.050  14.623  17.917  0.00  0.00    +0.000 C 
ATOM     16  O   UNL     1       4.950  14.583  18.829  0.00  0.00    +0.000 OA
ENDBRANCH  13  16
ENDBRANCH   7  13
ENDBRANCH   1  10
BRANCH   2  17
ATOM     17  C   UNL     1       1.375   9.091  21.681  0.00  0.00    +0.000 C 
ATOM     18  O   UNL     1       2.120   9.346  22.637  0.00  0.00    +0.000 OA
BRANCH  17  19
ATOM     19  C   UNL     1       1.687   7.945  20.851  0.00  0.00    +0.000 A 
ATOM     20  C   UNL     1       1.391   6.635  21.184  0.00  0.00    +0.000 A 
ATOM     21  C   UNL     1       1.800   5.818  20.121  0.00  0.00    +0.000 A 
ATOM     22  C   UNL     1       1.736   4.435  19.867  0.00  0.00    +0.000 A 
ATOM     23  C   UNL     1       2.269   3.945  18.675  0.00  0.00    +0.000 A 
ATOM     24  C   UNL     1       2.859   4.815  17.753  0.00  0.00    +0.000 A 
ATOM     25  C   UNL     1       2.917   6.203  17.984  0.00  0.00    +0.000 A 
ATOM     26  C   UNL     1       2.367   6.672  19.180  0.00  0.00    +0.000 A 
ATOM     27  O   UNL     1       2.286   7.981  19.616  0.00  0.00    +0.000 OA
ENDBRANCH  17  19
ENDBRANCH   2  17
BRANCH   3  28
ATOM     28  O   UNL     1      -0.388   9.741  23.896  0.00  0.00    +0.000 OA
ATOM     29  H   UNL     1       0.246  10.317  24.376  0.00  0.00    +0.000 HD
ENDBRANCH   3  28
BRANCH   6  30
ATOM     30  C   UNL     1      -2.008  12.725  20.339  0.00  0.00    +0.000 C 
BRANCH  30  31
ATOM     31  C   UNL     1      -2.404  12.530  18.860  0.00  0.00    +0.000 C 
BRANCH  31  32
ATOM     32  N   UNL     1      -3.063  11.226  18.626  0.00  0.00    +0.000 NA
ATOM     33  C   UNL     1      -2.428  10.416  17.557  0.00  0.00    +0.000 C 
ATOM     34  C   UNL     1      -2.714  10.930  16.139  0.00  0.00    +0.000 C 
ATOM     35  O   UNL     1      -4.123  10.954  15.886  0.00  0.00    +0.000 OA
ATOM     36  C   UNL     1      -4.796  11.781  16.841  0.00  0.00    +0.000 C 
ATOM     37  C   UNL     1      -4.499  11.356  18.293  0.00  0.00    +0.000 C 
ENDBRANCH  31  32
ENDBRANCH  30  31
ENDBRANCH   6  30
TORSDOF 9
ENDMDL
MODEL 2
REMARK VINA RESULT:      -7.3      0.801      1.446
REMARK  Name = 
REMARK  10 active torsions:
REMARK  status: ('A' for Active; 'I' for Inactive)
REMARK    1  A    between atoms: C_1  and  O_2
REMARK    2  A    between atoms: O_2  and  C_3
REMARK    3  A    between atoms: C_3  and  C_5
REMARK    4  A    between atoms: C_8  and  C_9
REMARK    5  A    between atoms: C_10  and  C_11
REMARK    6  A    between atoms: C_11  and  C_13
REMARK    7  A    between atoms: C_22  and  O_23
REMARK    8  A    between atoms: N_26  and  C_27
REMARK    9  A    between atoms: C_27  and  C_28
REMARK   10  A    between atoms: C_28  and  N_29
REMARK                            x       y       z     vdW  Elec       q    Type
REMARK                         _______ _______ _______ _____ _____    ______ ____
ROOT
ATOM      1  C   UNL     1      -0.210  10.813  20.540  0.00  0.00    +0.000 C 
ATOM      2  C   UNL     1       0.242   9.923  21.658  0.00  0.00    +0.000 C 
ATOM      3  C   UNL     1      -0.425  10.158  22.803  0.00  0.00    +0.000 C 
ATOM      4  C   UNL     1      -1.422  11.208  22.535  0.00  0.00    +0.000 C 
ATOM      5  O   UNL     1      -2.193  11.676  23.355  0.00  0.00    +0.000 OA
ATOM      6  N   UNL     1      -1.273  11.569  21.207  0.00  0.00    +0.000 N 
ENDROOT
BRANCH   1  10
ATOM      7  C   UNL     1       2.699  13.523  18.779  0.00  0.00    +0.000 A 
ATOM      8  C   UNL     1       2.247  13.702  20.091  0.00  0.00    +0.000 A 
ATOM      9  C   UNL     1       1.349  12.794  20.663  0.00  0.00    +0.000 A 
ATOM     10  C   UNL     1       0.884  11.684  19.938  0.00  0.00    +0.000 A 
ATOM     11  C   UNL     1       1.423  11.461  18.657  0.00  0.00    +0.000 A 
ATOM     12  C   UNL     1       2.300  12.384  18.073  0.00  0.00    +0.000 A 
BRANCH   7  13
ATOM     13  C   UNL     1       3.569  14.576  18.186  0.00  0.00    +0.000 C 
ATOM     14  O   UNL     1       3.132  15.586  17.657  0.00  0.00    +0.000 OA
BRANCH  13  16
ATOM     15  C   UNL     1       5.645  15.106  19.119  0.00  0.00    +0.000 C 
ATOM     16  O   UNL     1       4.878  14.235  18.284  0.00  0.00    +0.000 OA
ENDBRANCH  13  16
ENDBRANCH   7  13
ENDBRANCH   1  10
BRANCH   2  17
ATOM     17  C   UNL     1       1.399   9.008  21.719  0.00  0.00    +0.000 C 
ATOM     18  O   UNL     1       2.238   9.282  22.588  0.00  0.00    +0.000 OA
BRANCH  17  19
ATOM     19  C   UNL     1       1.616   7.835  20.898  0.00  0.00    +0.000 A 
ATOM     20  C   UNL     1       2.154   7.862  19.622  0.00  0.00    +0.000 A 
ATOM     21  C   UNL     1       2.252   6.539  19.170  0.00  0.00    +0.000 A 
ATOM     22  C   UNL     1       2.740   5.940  17.992  0.00  0.00    +0.000 A 
ATOM     23  C   UNL     1       2.669   4.553  17.865  0.00  0.00    +0.000 A 
ATOM     24  C   UNL     1       2.121   3.776  18.889  0.00  0.00    +0.000 A 
ATOM     25  C   UNL     1       1.644   4.357  20.080  0.00  0.00    +0.000 A 
ATOM     26  C   UNL     1       1.735   5.747  20.190  0.00  0.00    +0.000 A 
ATOM     27  O   UNL     1       1.357   6.536  21.259  0.00  0.00    +0.000 OA
ENDBRANCH  17  19
ENDBRANCH   2  17
BRANCH   3  28
ATOM     28  O   UNL     1      -0.213   9.636  24.052  0.00  0.00    +0.000 OA
ATOM     29  H   UNL     1      -0.664  10.223  24.698  0.00  0.00    +0.000 HD
ENDBRANCH   3  28
BRANCH   6  30
ATOM     30  C   UNL     1      -2.036  12.684  20.651  0.00  0.00    +0.000 C 
BRANCH  30  31
ATOM     31  C   UNL     1      -3.432  12.340  20.091  0.00  0.00    +0.000 C 
BRANCH  31  32
ATOM     32  N   UNL     1      -3.479  12.432  18.615  0.00  0.00    +0.000 NA
ATOM     33  C   UNL     1      -4.743  11.932  18.021  0.00  0.00    +0.000 C 
ATOM     34  C   UNL     1      -4.869  10.401  18.031  0.00  0.00    +0.000 C 
ATOM     35  O   UNL     1      -3.785   9.802  17.312  0.00  0.00    +0.000 OA
ATOM     36  C   UNL     1      -2.527  10.185  17.878  0.00  0.00    +0.000 C 
ATOM     37  C   UNL     1      -2.363  11.715  17.956  0.00  0.00    +0.000 C 
ENDBRANCH  31  32
ENDBRANCH  30  31
ENDBRANCH   6  30
TORSDOF 9
ENDMDL
MODEL 3
REMARK VINA RESULT:      -7.3      1.917      2.534
REMARK  Name = 
REMARK  10 active torsions:
REMARK  status: ('A' for Active; 'I' for Inactive)
REMARK    1  A    between atoms: C_1  and  O_2
REMARK    2  A    between atoms: O_2  and  C_3
REMARK    3  A    between atoms: C_3  and  C_5
REMARK    4  A    between atoms: C_8  and  C_9
REMARK    5  A    between atoms: C_10  and  C_11
REMARK    6  A    between atoms: C_11  and  C_13
REMARK    7  A    between atoms: C_22  and  O_23
REMARK    8  A    between atoms: N_26  and  C_27
REMARK    9  A    between atoms: C_27  and  C_28
REMARK   10  A    between atoms: C_28  and  N_29
REMARK                            x       y       z     vdW  Elec       q    Type
REMARK                         _______ _______ _______ _____ _____    ______ ____
ROOT
ATOM      1  C   UNL     1      -0.172  10.986  20.559  0.00  0.00    +0.000 C 
ATOM      2  C   UNL     1       0.221  10.038  21.652  0.00  0.00    +0.000 C 
ATOM      3  C   UNL     1      -0.488  10.231  22.779  0.00  0.00    +0.000 C 
ATOM      4  C   UNL     1      -1.459  11.309  22.522  0.00  0.00    +0.000 C 
ATOM      5  O   UNL     1      -2.255  11.751  23.331  0.00  0.00    +0.000 OA
ATOM      6  N   UNL     1      -1.251  11.728  21.218  0.00  0.00    +0.000 N 
ENDROOT
BRANCH   1  10
ATOM      7  C   UNL     1       2.849  13.734  19.069  0.00  0.00    +0.000 A 
ATOM      8  C   UNL     1       2.415  13.790  20.398  0.00  0.00    +0.000 A 
ATOM      9  C   UNL     1       1.479  12.868  20.878  0.00  0.00    +0.000 A 
ATOM     10  C   UNL     1       0.957  11.866  20.043  0.00  0.00    +0.000 A 
ATOM     11  C   UNL     1       1.476  11.759  18.739  0.00  0.00    +0.000 A 
ATOM     12  C   UNL     1       2.391  12.699  18.248  0.00  0.00    +0.000 A 
BRANCH   7  13
ATOM     13  C   UNL     1       3.763  14.805  18.583  0.00  0.00    +0.000 C 
ATOM     14  O   UNL     1       4.619  14.620  17.732  0.00  0.00    +0.000 OA
BRANCH  13  16
ATOM     15  C   UNL     1       4.721  16.712  19.536  0.00  0.00    +0.000 C 
ATOM     16  O   UNL     1       3.535  15.970  19.239  0.00  0.00    +0.000 OA
ENDBRANCH  13  16
ENDBRANCH   7  13
ENDBRANCH   1  10
BRANCH   2  17
ATOM     17  C   UNL     1       1.362   9.103  21.717  0.00  0.00    +0.000 C 
ATOM     18  O   UNL     1       2.194   9.353  22.600  0.00  0.00    +0.000 OA
BRANCH  17  19
ATOM     19  C   UNL     1       1.569   7.936  20.885  0.00  0.00    +0.000 A 
ATOM     20  C   UNL     1       2.104   7.972  19.608  0.00  0.00    +0.000 A 
ATOM     21  C   UNL     1       2.193   6.653  19.143  0.00  0.00    +0.000 A 
ATOM     22  C   UNL     1       2.674   6.061  17.959  0.00  0.00    +0.000 A 
ATOM     23  C   UNL     1       2.594   4.676  17.819  0.00  0.00    +0.000 A 
ATOM     24  C   UNL     1       2.043   3.893  18.837  0.00  0.00    +0.000 A 
ATOM     25  C   UNL     1       1.573   4.466  20.035  0.00  0.00    +0.000 A 
ATOM     26  C   UNL     1       1.673   5.855  20.157  0.00  0.00    +0.000 A 
ATOM     27  O   UNL     1       1.303   6.636  21.235  0.00  0.00    +0.000 OA
ENDBRANCH  17  19
ENDBRANCH   2  17
BRANCH   3  28
ATOM     28  O   UNL     1      -0.334   9.650  24.011  0.00  0.00    +0.000 OA
ATOM     29  H   UNL     1      -0.131   8.700  23.867  0.00  0.00    +0.000 HD
ENDBRANCH   3  28
BRANCH   6  30
ATOM     30  C   UNL     1      -1.975  12.879  20.685  0.00  0.00    +0.000 C 
BRANCH  30  31
ATOM     31  C   UNL     1      -3.425  12.617  20.226  0.00  0.00    +0.000 C 
BRANCH  31  32
ATOM     32  N   UNL     1      -4.314  13.766  20.505  0.00  0.00    +0.000 NA
ATOM     33  C   UNL     1      -4.533  14.018  21.951  0.00  0.00    +0.000 C 
ATOM     34  C   UNL     1      -5.467  13.000  22.623  0.00  0.00    +0.000 C 
ATOM     35  O   UNL     1      -6.749  12.996  21.984  0.00  0.00    +0.000 OA
ATOM     36  C   UNL     1      -6.622  12.686  20.592  0.00  0.00    +0.000 C 
ATOM     37  C   UNL     1      -5.645  13.634  19.870  0.00  0.00    +0.000 C 
ENDBRANCH  31  32
ENDBRANCH  30  31
ENDBRANCH   6  30
TORSDOF 9
ENDMDL
MODEL 4
REMARK VINA RESULT:      -7.2      2.728      7.719
REMARK  Name = 
REMARK  10 active torsions:
REMARK  status: ('A' for Active; 'I' for Inactive)
REMARK    1  A    between atoms: C_1  and  O_2
REMARK    2  A    between atoms: O_2  and  C_3
REMARK    3  A    between atoms: C_3  and  C_5
REMARK    4  A    between atoms: C_8  and  C_9
REMARK    5  A    between atoms: C_10  and  C_11
REMARK    6  A    between atoms: C_11  and  C_13
REMARK    7  A    between atoms: C_22  and  O_23
REMARK    8  A    between atoms: N_26  and  C_27
REMARK    9  A    between atoms: C_27  and  C_28
REMARK   10  A    between atoms: C_28  and  N_29
REMARK                            x       y       z     vdW  Elec       q    Type
REMARK                         _______ _______ _______ _____ _____    ______ ____
ROOT
ATOM      1  C   UNL     1       0.663  10.753  19.917  0.00  0.00    +0.000 C 
ATOM      2  C   UNL     1       0.410  11.057  21.363  0.00  0.00    +0.000 C 
ATOM      3  C   UNL     1       0.630   9.992  22.156  0.00  0.00    +0.000 C 
ATOM      4  C   UNL     1       1.094   8.884  21.305  0.00  0.00    +0.000 C 
ATOM      5  O   UNL     1       1.375   7.763  21.694  0.00  0.00    +0.000 OA
ATOM      6  N   UNL     1       1.105   9.359  20.004  0.00  0.00    +0.000 N 
ENDROOT
BRANCH   1  10
ATOM      7  C   UNL     1      -2.639  11.148  17.116  0.00  0.00    +0.000 A 
ATOM      8  C   UNL     1      -2.544  10.043  17.968  0.00  0.00    +0.000 A 
ATOM      9  C   UNL     1      -1.504   9.952  18.899  0.00  0.00    +0.000 A 
ATOM     10  C   UNL     1      -0.537  10.966  19.003  0.00  0.00    +0.000 A 
ATOM     11  C   UNL     1      -0.701  12.117  18.211  0.00  0.00    +0.000 A 
ATOM     12  C   UNL     1      -1.725  12.196  17.258  0.00  0.00    +0.000 A 
BRANCH   7  13
ATOM     13  C   UNL     1      -3.702  11.141  16.073  0.00  0.00    +0.000 C 
ATOM     14  O   UNL     1      -4.895  11.096  16.332  0.00  0.00    +0.000 OA
BRANCH  13  16
ATOM     15  C   UNL     1      -3.041   9.855  14.236  0.00  0.00    +0.000 C 
ATOM     16  O   UNL     1      -3.160  11.151  14.829  0.00  0.00    +0.000 OA
ENDBRANCH  13  16
ENDBRANCH   7  13
ENDBRANCH   1  10
BRANCH   2  17
ATOM     17  C   UNL     1      -0.207  12.249  21.977  0.00  0.00    +0.000 C 
ATOM     18  O   UNL     1       0.558  13.210  22.137  0.00  0.00    +0.000 OA
BRANCH  17  19
ATOM     19  C   UNL     1      -1.593  12.399  22.368  0.00  0.00    +0.000 A 
ATOM     20  C   UNL     1      -2.629  12.664  21.487  0.00  0.00    +0.000 A 
ATOM     21  C   UNL     1      -3.821  12.692  22.223  0.00  0.00    +0.000 A 
ATOM     22  C   UNL     1      -5.176  12.877  21.887  0.00  0.00    +0.000 A 
ATOM     23  C   UNL     1      -6.130  12.860  22.905  0.00  0.00    +0.000 A 
ATOM     24  C   UNL     1      -5.743  12.664  24.233  0.00  0.00    +0.000 A 
ATOM     25  C   UNL     1      -4.394  12.461  24.585  0.00  0.00    +0.000 A 
ATOM     26  C   UNL     1      -3.457  12.472  23.548  0.00  0.00    +0.000 A 
ATOM     27  O   UNL     1      -2.093  12.276  23.640  0.00  0.00    +0.000 OA
ENDBRANCH  17  19
ENDBRANCH   2  17
BRANCH   3  28
ATOM     28  O   UNL     1       0.394   9.849  23.499  0.00  0.00    +0.000 OA
ATOM     29  H   UNL     1       1.209  10.124  23.974  0.00  0.00    +0.000 HD
ENDBRANCH   3  28
BRANCH   6  30
ATOM     30  C   UNL     1       1.402   8.463  18.890  0.00  0.00    +0.000 C 
BRANCH  30  31
ATOM     31  C   UNL     1       2.506   7.413  19.138  0.00  0.00    +0.000 C 
BRANCH  31  32
ATOM     32  N   UNL     1       2.699   6.522  17.973  0.00  0.00    +0.000 NA
ATOM     33  C   UNL     1       2.305   5.113  18.222  0.00  0.00    +0.000 C 
ATOM     34  C   UNL     1       3.294   4.340  19.107  0.00  0.00    +0.000 C 
ATOM     35  O   UNL     1       4.597   4.327  18.512  0.00  0.00    +0.000 OA
ATOM     36  C   UNL     1       5.075   5.661  18.308  0.00  0.00    +0.000 C 
ATOM     37  C   UNL     1       4.094   6.512  17.478  0.00  0.00    +0.000 C 
ENDBRANCH  31  32
ENDBRANCH  30  31
ENDBRANCH   6  30
TORSDOF 9
ENDMDL
MODEL 5
REMARK VINA RESULT:      -7.2      2.686      7.595
REMARK  Name = 
REMARK  10 active torsions:
REMARK  status: ('A' for Active; 'I' for Inactive)
REMARK    1  A    between atoms: C_1  and  O_2
REMARK    2  A    between atoms: O_2  and  C_3
REMARK    3  A    between atoms: C_3  and  C_5
REMARK    4  A    between atoms: C_8  and  C_9
REMARK    5  A    between atoms: C_10  and  C_11
REMARK    6  A    between atoms: C_11  and  C_13
REMARK    7  A    between atoms: C_22  and  O_23
REMARK    8  A    between atoms: N_26  and  C_27
REMARK    9  A    between atoms: C_27  and  C_28
REMARK   10  A    between atoms: C_28  and  N_29
REMARK                            x       y       z     vdW  Elec       q    Type
REMARK                         _______ _______ _______ _____ _____    ______ ____
ROOT
ATOM      1  C   UNL     1       0.749  10.506  19.732  0.00  0.00    +0.000 C 
ATOM      2  C   UNL     1       0.575  10.866  21.178  0.00  0.00    +0.000 C 
ATOM      3  C   UNL     1       0.768   9.814  21.995  0.00  0.00    +0.000 C 
ATOM      4  C   UNL     1       1.133   8.656  21.160  0.00  0.00    +0.000 C 
ATOM      5  O   UNL     1       1.367   7.533  21.573  0.00  0.00    +0.000 OA
ATOM      6  N   UNL     1       1.115   9.092  19.846  0.00  0.00    +0.000 N 
ENDROOT
BRANCH   1  10
ATOM      7  C   UNL     1      -2.621  11.036  17.037  0.00  0.00    +0.000 A 
ATOM      8  C   UNL     1      -2.487   9.875  17.806  0.00  0.00    +0.000 A 
ATOM      9  C   UNL     1      -1.425   9.738  18.706  0.00  0.00    +0.000 A 
ATOM     10  C   UNL     1      -0.474  10.760  18.862  0.00  0.00    +0.000 A 
ATOM     11  C   UNL     1      -0.676  11.962  18.158  0.00  0.00    +0.000 A 
ATOM     12  C   UNL     1      -1.723  12.089  17.235  0.00  0.00    +0.000 A 
BRANCH   7  13
ATOM     13  C   UNL     1      -3.707  11.083  16.019  0.00  0.00    +0.000 C 
ATOM     14  O   UNL     1      -4.894  11.095  16.305  0.00  0.00    +0.000 OA
BRANCH  13  16
ATOM     15  C   UNL     1      -3.557   9.920  13.998  0.00  0.00    +0.000 C 
ATOM     16  O   UNL     1      -3.193  11.071  14.763  0.00  0.00    +0.000 OA
ENDBRANCH  13  16
ENDBRANCH   7  13
ENDBRANCH   1  10
BRANCH   2  17
ATOM     17  C   UNL     1       0.053  12.108  21.778  0.00  0.00    +0.000 C 
ATOM     18  O   UNL     1       0.876  13.029  21.876  0.00  0.00    +0.000 OA
BRANCH  17  19
ATOM     19  C   UNL     1      -1.306  12.349  22.221  0.00  0.00    +0.000 A 
ATOM     20  C   UNL     1      -2.313  12.852  21.415  0.00  0.00    +0.000 A 
ATOM     21  C   UNL     1      -3.488  12.900  22.177  0.00  0.00    +0.000 A 
ATOM     22  C   UNL     1      -4.817  13.280  21.906  0.00  0.00    +0.000 A 
ATOM     23  C   UNL     1      -5.758  13.214  22.933  0.00  0.00    +0.000 A 
ATOM     24  C   UNL     1      -5.384  12.782  24.208  0.00  0.00    +0.000 A 
ATOM     25  C   UNL     1      -4.063  12.383  24.493  0.00  0.00    +0.000 A 
ATOM     26  C   UNL     1      -3.140  12.447  23.446  0.00  0.00    +0.000 A 
ATOM     27  O   UNL     1      -1.805  12.093  23.474  0.00  0.00    +0.000 OA
ENDBRANCH  17  19
ENDBRANCH   2  17
BRANCH   3  28
ATOM     28  O   UNL     1       0.581   9.723  23.349  0.00  0.00    +0.000 OA
ATOM     29  H   UNL     1       0.830  10.589  23.741  0.00  0.00    +0.000 HD
ENDBRANCH   3  28
BRANCH   6  30
ATOM     30  C   UNL     1       1.314   8.148  18.749  0.00  0.00    +0.000 C 
BRANCH  30  31
ATOM     31  C   UNL     1       2.780   7.811  18.401  0.00  0.00    +0.000 C 
BRANCH  31  32
ATOM     32  N   UNL     1       3.241   6.574  19.070  0.00  0.00    +0.000 NA
ATOM     33  C   UNL     1       4.470   5.992  18.476  0.00  0.00    +0.000 C 
ATOM     34  C   UNL     1       4.235   5.296  17.127  0.00  0.00    +0.000 C 
ATOM     35  O   UNL     1       3.278   4.240  17.265  0.00  0.00    +0.000 OA
ATOM     36  C   UNL     1       2.036   4.743  17.769  0.00  0.00    +0.000 C 
ATOM     37  C   UNL     1       2.211   5.511  19.093  0.00  0.00    +0.000 C 
ENDBRANCH  31  32
ENDBRANCH  30  31
ENDBRANCH   6  30
TORSDOF 9
ENDMDL
MODEL 6
REMARK VINA RESULT:      -7.1      1.710      2.096
REMARK  Name = 
REMARK  10 active torsions:
REMARK  status: ('A' for Active; 'I' for Inactive)
REMARK    1  A    between atoms: C_1  and  O_2
REMARK    2  A    between atoms: O_2  and  C_3
REMARK    3  A    between atoms: C_3  and  C_5
REMARK    4  A    between atoms: C_8  and  C_9
REMARK    5  A    between atoms: C_10  and  C_11
REMARK    6  A    between atoms: C_11  and  C_13
REMARK    7  A    between atoms: C_22  and  O_23
REMARK    8  A    between atoms: N_26  and  C_27
REMARK    9  A    between atoms: C_27  and  C_28
REMARK   10  A    between atoms: C_28  and  N_29
REMARK                            x       y       z     vdW  Elec       q    Type
REMARK                         _______ _______ _______ _____ _____    ______ ____
ROOT
ATOM      1  C   UNL     1      -0.160  10.972  20.491  0.00  0.00    +0.000 C 
ATOM      2  C   UNL     1       0.217  10.056  21.617  0.00  0.00    +0.000 C 
ATOM      3  C   UNL     1      -0.510  10.282  22.727  0.00  0.00    +0.000 C 
ATOM      4  C   UNL     1      -1.476  11.352  22.423  0.00  0.00    +0.000 C 
ATOM      5  O   UNL     1      -2.284  11.818  23.207  0.00  0.00    +0.000 OA
ATOM      6  N   UNL     1      -1.248  11.732  21.111  0.00  0.00    +0.000 N 
ENDROOT
BRANCH   1  10
ATOM      7  C   UNL     1       2.889  13.678  18.980  0.00  0.00    +0.000 A 
ATOM      8  C   UNL     1       2.470  13.735  20.313  0.00  0.00    +0.000 A 
ATOM      9  C   UNL     1       1.524  12.826  20.800  0.00  0.00    +0.000 A 
ATOM     10  C   UNL     1       0.978  11.836  19.966  0.00  0.00    +0.000 A 
ATOM     11  C   UNL     1       1.481  11.726  18.657  0.00  0.00    +0.000 A 
ATOM     12  C   UNL     1       2.407  12.653  18.160  0.00  0.00    +0.000 A 
BRANCH   7  13
ATOM     13  C   UNL     1       3.815  14.736  18.489  0.00  0.00    +0.000 C 
ATOM     14  O   UNL     1       4.851  14.494  17.889  0.00  0.00    +0.000 OA
BRANCH  13  16
ATOM     15  C   UNL     1       4.381  16.833  19.352  0.00  0.00    +0.000 C 
ATOM     16  O   UNL     1       3.366  15.969  18.833  0.00  0.00    +0.000 OA
ENDBRANCH  13  16
ENDBRANCH   7  13
ENDBRANCH   1  10
BRANCH   2  17
ATOM     17  C   UNL     1       1.355   9.123  21.727  0.00  0.00    +0.000 C 
ATOM     18  O   UNL     1       2.145   9.367  22.650  0.00  0.00    +0.000 OA
BRANCH  17  19
ATOM     19  C   UNL     1       1.605   7.964  20.894  0.00  0.00    +0.000 A 
ATOM     20  C   UNL     1       1.259   6.668  21.235  0.00  0.00    +0.000 A 
ATOM     21  C   UNL     1       1.616   5.834  20.168  0.00  0.00    +0.000 A 
ATOM     22  C   UNL     1       1.488   4.453  19.917  0.00  0.00    +0.000 A 
ATOM     23  C   UNL     1       1.981   3.940  18.717  0.00  0.00    +0.000 A 
ATOM     24  C   UNL     1       2.591   4.782  17.785  0.00  0.00    +0.000 A 
ATOM     25  C   UNL     1       2.711   6.168  18.011  0.00  0.00    +0.000 A 
ATOM     26  C   UNL     1       2.202   6.661  19.215  0.00  0.00    +0.000 A 
ATOM     27  O   UNL     1       2.184   7.973  19.650  0.00  0.00    +0.000 OA
ENDBRANCH  17  19
ENDBRANCH   2  17
BRANCH   3  28
ATOM     28  O   UNL     1      -0.375   9.737  23.977  0.00  0.00    +0.000 OA
ATOM     29  H   UNL     1       0.539   9.923  24.285  0.00  0.00    +0.000 HD
ENDBRANCH   3  28
BRANCH   6  30
ATOM     30  C   UNL     1      -1.963  12.868  20.534  0.00  0.00    +0.000 C 
BRANCH  30  31
ATOM     31  C   UNL     1      -3.433  12.615  20.138  0.00  0.00    +0.000 C 
BRANCH  31  32
ATOM     32  N   UNL     1      -4.377  13.367  20.994  0.00  0.00    +0.000 NA
ATOM     33  C   UNL     1      -5.401  12.517  21.650  0.00  0.00    +0.000 C 
ATOM     34  C   UNL     1      -6.499  12.022  20.697  0.00  0.00    +0.000 C 
ATOM     35  O   UNL     1      -7.177  13.130  20.093  0.00  0.00    +0.000 OA
ATOM     36  C   UNL     1      -6.257  13.960  19.376  0.00  0.00    +0.000 C 
ATOM     37  C   UNL     1      -5.091  14.439  20.263  0.00  0.00    +0.000 C 
ENDBRANCH  31  32
ENDBRANCH  30  31
ENDBRANCH   6  30
TORSDOF 9
ENDMDL
MODEL 7
REMARK VINA RESULT:      -7.1      2.746      7.769
REMARK  Name = 
REMARK  10 active torsions:
REMARK  status: ('A' for Active; 'I' for Inactive)
REMARK    1  A    between atoms: C_1  and  O_2
REMARK    2  A    between atoms: O_2  and  C_3
REMARK    3  A    between atoms: C_3  and  C_5
REMARK    4  A    between atoms: C_8  and  C_9
REMARK    5  A    between atoms: C_10  and  C_11
REMARK    6  A    between atoms: C_11  and  C_13
REMARK    7  A    between atoms: C_22  and  O_23
REMARK    8  A    between atoms: N_26  and  C_27
REMARK    9  A    between atoms: C_27  and  C_28
REMARK   10  A    between atoms: C_28  and  N_29
REMARK                            x       y       z     vdW  Elec       q    Type
REMARK                         _______ _______ _______ _____ _____    ______ ____
ROOT
ATOM      1  C   UNL     1       0.624  10.710  19.817  0.00  0.00    +0.000 C 
ATOM      2  C   UNL     1       0.375  11.019  21.263  0.00  0.00    +0.000 C 
ATOM      3  C   UNL     1       0.636   9.970  22.064  0.00  0.00    +0.000 C 
ATOM      4  C   UNL     1       1.127   8.869  21.219  0.00  0.00    +0.000 C 
ATOM      5  O   UNL     1       1.447   7.761  21.616  0.00  0.00    +0.000 OA
ATOM      6  N   UNL     1       1.111   9.331  19.914  0.00  0.00    +0.000 N 
ENDROOT
BRANCH   1  10
ATOM      7  C   UNL     1      -2.703  10.990  17.033  0.00  0.00    +0.000 A 
ATOM      8  C   UNL     1      -2.519   9.853  17.825  0.00  0.00    +0.000 A 
ATOM      9  C   UNL     1      -1.474   9.795  18.753  0.00  0.00    +0.000 A 
ATOM     10  C   UNL     1      -0.590  10.875  18.913  0.00  0.00    +0.000 A 
ATOM     11  C   UNL     1      -0.845  12.050  18.183  0.00  0.00    +0.000 A 
ATOM     12  C   UNL     1      -1.874  12.099  17.233  0.00  0.00    +0.000 A 
BRANCH   7  13
ATOM     13  C   UNL     1      -3.764  10.955  15.988  0.00  0.00    +0.000 C 
ATOM     14  O   UNL     1      -3.719  10.222  15.012  0.00  0.00    +0.000 OA
BRANCH  13  16
ATOM     15  C   UNL     1      -5.516  11.552  17.414  0.00  0.00    +0.000 C 
ATOM     16  O   UNL     1      -4.737  11.861  16.255  0.00  0.00    +0.000 OA
ENDBRANCH  13  16
ENDBRANCH   7  13
ENDBRANCH   1  10
BRANCH   2  17
ATOM     17  C   UNL     1      -0.273  12.197  21.872  0.00  0.00    +0.000 C 
ATOM     18  O   UNL     1       0.476  13.163  22.071  0.00  0.00    +0.000 OA
BRANCH  17  19
ATOM     19  C   UNL     1      -1.674  12.330  22.215  0.00  0.00    +0.000 A 
ATOM     20  C   UNL     1      -2.169  12.297  23.508  0.00  0.00    +0.000 A 
ATOM     21  C   UNL     1      -3.553  12.504  23.444  0.00  0.00    +0.000 A 
ATOM     22  C   UNL     1      -4.574  12.607  24.408  0.00  0.00    +0.000 A 
ATOM     23  C   UNL     1      -5.886  12.807  23.978  0.00  0.00    +0.000 A 
ATOM     24  C   UNL     1      -6.178  12.900  22.615  0.00  0.00    +0.000 A 
ATOM     25  C   UNL     1      -5.166  12.816  21.638  0.00  0.00    +0.000 A 
ATOM     26  C   UNL     1      -3.858  12.626  22.092  0.00  0.00    +0.000 A 
ATOM     27  O   UNL     1      -2.706  12.536  21.334  0.00  0.00    +0.000 OA
ENDBRANCH  17  19
ENDBRANCH   2  17
BRANCH   3  28
ATOM     28  O   UNL     1       0.417   9.832  23.410  0.00  0.00    +0.000 OA
ATOM     29  H   UNL     1      -0.280   9.151  23.529  0.00  0.00    +0.000 HD
ENDBRANCH   3  28
BRANCH   6  30
ATOM     30  C   UNL     1       1.426   8.434  18.806  0.00  0.00    +0.000 C 
BRANCH  30  31
ATOM     31  C   UNL     1       2.615   7.474  19.025  0.00  0.00    +0.000 C 
BRANCH  31  32
ATOM     32  N   UNL     1       2.768   6.512  17.911  0.00  0.00    +0.000 NA
ATOM     33  C   UNL     1       2.285   5.145  18.228  0.00  0.00    +0.000 C 
ATOM     34  C   UNL     1       3.216   4.363  19.167  0.00  0.00    +0.000 C 
ATOM     35  O   UNL     1       4.522   4.240  18.594  0.00  0.00    +0.000 OA
ATOM     36  C   UNL     1       5.083   5.529  18.327  0.00  0.00    +0.000 C 
ATOM     37  C   UNL     1       4.166   6.392  17.439  0.00  0.00    +0.000 C 
ENDBRANCH  31  32
ENDBRANCH  30  31
ENDBRANCH   6  30
TORSDOF 9
ENDMDL
MODEL 8
REMARK VINA RESULT:      -7.0      2.621      6.065
REMARK  Name = 
REMARK  10 active torsions:
REMARK  status: ('A' for Active; 'I' for Inactive)
REMARK    1  A    between atoms: C_1  and  O_2
REMARK    2  A    between atoms: O_2  and  C_3
REMARK    3  A    between atoms: C_3  and  C_5
REMARK    4  A    between atoms: C_8  and  C_9
REMARK    5  A    between atoms: C_10  and  C_11
REMARK    6  A    between atoms: C_11  and  C_13
REMARK    7  A    between atoms: C_22  and  O_23
REMARK    8  A    between atoms: N_26  and  C_27
REMARK    9  A    between atoms: C_27  and  C_28
REMARK   10  A    between atoms: C_28  and  N_29
REMARK                            x       y       z     vdW  Elec       q    Type
REMARK                         _______ _______ _______ _____ _____    ______ ____
ROOT
ATOM      1  C   UNL     1       1.063  12.166  20.836  0.00  0.00    +0.000 C 
ATOM      2  C   UNL     1       1.191  11.070  19.820  0.00  0.00    +0.000 C 
ATOM      3  C   UNL     1       1.796  11.483  18.692  0.00  0.00    +0.000 C 
ATOM      4  C   UNL     1       2.168  12.897  18.873  0.00  0.00    +0.000 C 
ATOM      5  O   UNL     1       2.723  13.594  18.041  0.00  0.00    +0.000 OA
ATOM      6  N   UNL     1       1.729  13.266  20.133  0.00  0.00    +0.000 N 
ENDROOT
BRANCH   1  10
ATOM      7  C   UNL     1      -3.065  12.748  22.068  0.00  0.00    +0.000 A 
ATOM      8  C   UNL     1      -2.079  12.393  22.994  0.00  0.00    +0.000 A 
ATOM      9  C   UNL     1      -0.745  12.258  22.594  0.00  0.00    +0.000 A 
ATOM     10  C   UNL     1      -0.366  12.477  21.259  0.00  0.00    +0.000 A 
ATOM     11  C   UNL     1      -1.349  12.931  20.360  0.00  0.00    +0.000 A 
ATOM     12  C   UNL     1      -2.689  13.039  20.753  0.00  0.00    +0.000 A 
BRANCH   7  13
ATOM     13  C   UNL     1      -4.482  12.773  22.526  0.00  0.00    +0.000 C 
ATOM     14  O   UNL     1      -4.840  12.369  23.622  0.00  0.00    +0.000 OA
BRANCH  13  16
ATOM     15  C   UNL     1      -6.374  12.388  21.209  0.00  0.00    +0.000 C 
ATOM     16  O   UNL     1      -5.296  13.260  21.556  0.00  0.00    +0.000 OA
ENDBRANCH  13  16
ENDBRANCH   7  13
ENDBRANCH   1  10
BRANCH   2  17
ATOM     17  C   UNL     1       0.593   9.720  19.818  0.00  0.00    +0.000 C 
ATOM     18  O   UNL     1      -0.645   9.696  19.844  0.00  0.00    +0.000 OA
BRANCH  17  19
ATOM     19  C   UNL     1       1.306   8.460  19.756  0.00  0.00    +0.000 A 
ATOM     20  C   UNL     1       1.207   7.459  20.708  0.00  0.00    +0.000 A 
ATOM     21  C   UNL     1       2.000   6.385  20.284  0.00  0.00    +0.000 A 
ATOM     22  C   UNL     1       2.269   5.102  20.800  0.00  0.00    +0.000 A 
ATOM     23  C   UNL     1       3.146   4.268  20.104  0.00  0.00    +0.000 A 
ATOM     24  C   UNL     1       3.745   4.703  18.919  0.00  0.00    +0.000 A 
ATOM     25  C   UNL     1       3.473   5.976  18.380  0.00  0.00    +0.000 A 
ATOM     26  C   UNL     1       2.585   6.790  19.088  0.00  0.00    +0.000 A 
ATOM     27  O   UNL     1       2.150   8.058  18.752  0.00  0.00    +0.000 OA
ENDBRANCH  17  19
ENDBRANCH   2  17
BRANCH   3  28
ATOM     28  O   UNL     1       1.981  10.812  17.512  0.00  0.00    +0.000 OA
ATOM     29  H   UNL     1       2.444   9.971  17.719  0.00  0.00    +0.000 HD
ENDBRANCH   3  28
BRANCH   6  30
ATOM     30  C   UNL     1       1.833  14.653  20.578  0.00  0.00    +0.000 C 
BRANCH  30  31
ATOM     31  C   UNL     1       0.977  15.681  19.808  0.00  0.00    +0.000 C 
BRANCH  31  32
ATOM     32  N   UNL     1       1.619  17.013  19.754  0.00  0.00    +0.000 NA
ATOM     33  C   UNL     1       0.792  18.051  19.092  0.00  0.00    +0.000 C 
ATOM     34  C   UNL     1       0.725  17.909  17.564  0.00  0.00    +0.000 C 
ATOM     35  O   UNL     1       2.038  17.971  16.994  0.00  0.00    +0.000 OA
ATOM     36  C   UNL     1       2.876  16.945  17.536  0.00  0.00    +0.000 C 
ATOM     37  C   UNL     1       2.935  16.992  19.076  0.00  0.00    +0.000 C 
ENDBRANCH  31  32
ENDBRANCH  30  31
ENDBRANCH   6  30
TORSDOF 9
ENDMDL
MODEL 9
REMARK VINA RESULT:      -7.0      2.702      7.619
REMARK  Name = 
REMARK  10 active torsions:
REMARK  status: ('A' for Active; 'I' for Inactive)
REMARK    1  A    between atoms: C_1  and  O_2
REMARK    2  A    between atoms: O_2  and  C_3
REMARK    3  A    between atoms: C_3  and  C_5
REMARK    4  A    between atoms: C_8  and  C_9
REMARK    5  A    between atoms: C_10  and  C_11
REMARK    6  A    between atoms: C_11  and  C_13
REMARK    7  A    between atoms: C_22  and  O_23
REMARK    8  A    between atoms: N_26  and  C_27
REMARK    9  A    between atoms: C_27  and  C_28
REMARK   10  A    between atoms: C_28  and  N_29
REMARK                            x       y       z     vdW  Elec       q    Type
REMARK                         _______ _______ _______ _____ _____    ______ ____
ROOT
ATOM      1  C   UNL     1       0.804  10.355  19.589  0.00  0.00    +0.000 C 
ATOM      2  C   UNL     1       0.645  10.747  21.027  0.00  0.00    +0.000 C 
ATOM      3  C   UNL     1       0.901   9.728  21.868  0.00  0.00    +0.000 C 
ATOM      4  C   UNL     1       1.299   8.564  21.058  0.00  0.00    +0.000 C 
ATOM      5  O   UNL     1       1.590   7.465  21.496  0.00  0.00    +0.000 OA
ATOM      6  N   UNL     1       1.234   8.961  19.733  0.00  0.00    +0.000 N 
ENDROOT
BRANCH   1  10
ATOM      7  C   UNL     1      -2.886  11.033  17.392  0.00  0.00    +0.000 A 
ATOM      8  C   UNL     1      -1.909  12.029  17.486  0.00  0.00    +0.000 A 
ATOM      9  C   UNL     1      -0.704  11.781  18.153  0.00  0.00    +0.000 A 
ATOM     10  C   UNL     1      -0.447  10.531  18.739  0.00  0.00    +0.000 A 
ATOM     11  C   UNL     1      -1.395   9.507  18.551  0.00  0.00    +0.000 A 
ATOM     12  C   UNL     1      -2.613   9.762  17.908  0.00  0.00    +0.000 A 
BRANCH   7  13
ATOM     13  C   UNL     1      -4.190  11.386  16.765  0.00  0.00    +0.000 C 
ATOM     14  O   UNL     1      -4.401  11.305  15.565  0.00  0.00    +0.000 OA
BRANCH  13  16
ATOM     15  C   UNL     1      -6.111  12.656  17.164  0.00  0.00    +0.000 C 
ATOM     16  O   UNL     1      -5.069  11.834  17.696  0.00  0.00    +0.000 OA
ENDBRANCH  13  16
ENDBRANCH   7  13
ENDBRANCH   1  10
BRANCH   2  17
ATOM     17  C   UNL     1       0.081  11.983  21.605  0.00  0.00    +0.000 C 
ATOM     18  O   UNL     1       0.881  12.923  21.711  0.00  0.00    +0.000 OA
BRANCH  17  19
ATOM     19  C   UNL     1      -1.291  12.195  22.017  0.00  0.00    +0.000 A 
ATOM     20  C   UNL     1      -1.732  12.134  23.328  0.00  0.00    +0.000 A 
ATOM     21  C   UNL     1      -3.100  12.439  23.335  0.00  0.00    +0.000 A 
ATOM     22  C   UNL     1      -4.071  12.566  24.348  0.00  0.00    +0.000 A 
ATOM     23  C   UNL     1      -5.382  12.876  23.987  0.00  0.00    +0.000 A 
ATOM     24  C   UNL     1      -5.722  13.055  22.644  0.00  0.00    +0.000 A 
ATOM     25  C   UNL     1      -4.761  12.949  21.619  0.00  0.00    +0.000 A 
ATOM     26  C   UNL     1      -3.452  12.647  22.005  0.00  0.00    +0.000 A 
ATOM     27  O   UNL     1      -2.342  12.514  21.193  0.00  0.00    +0.000 OA
ENDBRANCH  17  19
ENDBRANCH   2  17
BRANCH   3  28
ATOM     28  O   UNL     1       0.747   9.668  23.229  0.00  0.00    +0.000 OA
ATOM     29  H   UNL     1       0.561   8.733  23.465  0.00  0.00    +0.000 HD
ENDBRANCH   3  28
BRANCH   6  30
ATOM     30  C   UNL     1       1.451   7.996  18.658  0.00  0.00    +0.000 C 
BRANCH  30  31
ATOM     31  C   UNL     1       2.923   7.671  18.324  0.00  0.00    +0.000 C 
BRANCH  31  32
ATOM     32  N   UNL     1       3.385   6.434  18.989  0.00  0.00    +0.000 NA
ATOM     33  C   UNL     1       4.607   5.847  18.384  0.00  0.00    +0.000 C 
ATOM     34  C   UNL     1       4.359   5.152  17.038  0.00  0.00    +0.000 C 
ATOM     35  O   UNL     1       3.399   4.099  17.184  0.00  0.00    +0.000 OA
ATOM     36  C   UNL     1       2.163   4.607  17.697  0.00  0.00    +0.000 C 
ATOM     37  C   UNL     1       2.352   5.374  19.021  0.00  0.00    +0.000 C 
ENDBRANCH  31  32
ENDBRANCH  30  31
ENDBRANCH   6  30
TORSDOF 9
ENDMDL
