MODEL 1
REMARK VINA RESULT:      -7.8      0.000      0.000
REMARK  Name = 
REMARK  5 active torsions:
REMARK  status: ('A' for Active; 'I' for Inactive)
REMARK    1  A    between atoms: C_1  and  O_2
REMARK    2  A    between atoms: O_2  and  C_3
REMARK    3  A    between atoms: C_6  and  N_7
REMARK    4  A    between atoms: C_10  and  C_11
REMARK    5  A    between atoms: C_15  and  N_16
REMARK                            x       y       z     vdW  Elec       q    Type
REMARK                         _______ _______ _______ _____ _____    ______ ____
ROOT
ATOM      1  N   UNL     1       1.154   9.345  19.232  0.00  0.00    +0.000 N 
ATOM      2  C   UNL     1       1.990   9.599  18.064  0.00  0.00    +0.000 C 
ATOM      3  C   UNL     1       2.600   8.338  17.555  0.00  0.00    +0.000 C 
ATOM      4  C   UNL     1       2.766   7.289  18.369  0.00  0.00    +0.000 C 
ATOM      5  N   UNL     1       2.314   7.363  19.652  0.00  0.00    +0.000 N 
ATOM      6  C   UNL     1       1.459   8.326  20.126  0.00  0.00    +0.000 C 
ATOM      7  O   UNL     1       1.006   8.211  21.263  0.00  0.00    +0.000 OA
ATOM      8  H   UNL     1       2.481   6.597  20.297  0.00  0.00    +0.000 HD
ENDROOT
BRANCH   1  12
ATOM      9  C   UNL     1      -1.849  12.221  19.990  0.00  0.00    +0.000 A 
ATOM     10  C   UNL     1      -0.687  12.199  20.764  0.00  0.00    +0.000 A 
ATOM     11  C   UNL     1       0.312  11.255  20.518  0.00  0.00    +0.000 A 
ATOM     12  C   UNL     1       0.128  10.280  19.533  0.00  0.00    +0.000 A 
ATOM     13  C   UNL     1      -1.061  10.270  18.796  0.00  0.00    +0.000 A 
ATOM     14  C   UNL     1      -2.040  11.251  19.010  0.00  0.00    +0.000 A 
BRANCH   9  16
ATOM     15  C   UNL     1      -4.110  12.828  20.278  0.00  0.00    +0.000 C 
ATOM     16  O   UNL     1      -2.740  13.208  20.309  0.00  0.00    +0.000 OA
ENDBRANCH   9  16
ENDBRANCH   1  12
BRANCH   4  17
ATOM     17  C   UNL     1       3.408   6.048  17.942  0.00  0.00    +0.000 A 
ATOM     18  C   UNL     1       2.637   4.894  17.739  0.00  0.00    +0.000 A 
ATOM     19  C   UNL     1       3.239   3.688  17.386  0.00  0.00    +0.000 A 
ATOM     20  C   UNL     1       4.626   3.618  17.234  0.00  0.00    +0.000 A 
ATOM     21  C   UNL     1       5.399   4.774  17.428  0.00  0.00    +0.000 A 
ATOM     22  C   UNL     1       4.799   5.990  17.781  0.00  0.00    +0.000 A 
BRANCH  21  23
ATOM     23  N   UNL     1       6.858   4.707  17.276  0.00  0.00    +0.000 N 
ATOM     24  O   UNL     1       7.530   4.443  18.284  0.00  0.00    +0.000 OA
ATOM     25  O   UNL     1       7.332   4.914  16.150  0.00  0.00    +0.000 OA
ENDBRANCH  21  23
ENDBRANCH   4  17
TORSDOF 4
ENDMDL
MODEL 2
REMARK VINA RESULT:      -7.7      2.184      2.617
REMARK  Name = 
REMARK  5 active torsions:
REMARK  status: ('A' for Active; 'I' for Inactive)
REMARK    1  A    between atoms: C_1  and  O_2
REMARK    2  A    between atoms: O_2  and  C_3
REMARK    3  A    between atoms: C_6  and  N_7
REMARK    4  A    between atoms: C_10  and  C_11
REMARK    5  A    between atoms: C_15  and  N_16
REMARK                            x       y       z     vdW  Elec       q    Type
REMARK                         _______ _______ _______ _____ _____    ______ ____
ROOT
ATOM      1  N   UNL     1       1.319   9.182  19.402  0.00  0.00    +0.000 N 
ATOM      2  C   UNL     1       2.077   9.003  18.170  0.00  0.00    +0.000 C 
ATOM      3  C   UNL     1       2.425   7.569  17.955  0.00  0.00    +0.000 C 
ATOM      4  C   UNL     1       2.490   6.726  18.991  0.00  0.00    +0.000 C 
ATOM      5  N   UNL     1       2.173   7.176  20.238  0.00  0.00    +0.000 N 
ATOM      6  C   UNL     1       1.533   8.360  20.503  0.00  0.00    +0.000 C 
ATOM      7  O   UNL     1       1.170   8.595  21.654  0.00  0.00    +0.000 OA
ATOM      8  H   UNL     1       2.270   6.563  21.041  0.00  0.00    +0.000 HD
ENDROOT
BRANCH   1  12
ATOM      9  C   UNL     1      -1.155  12.570  19.912  0.00  0.00    +0.000 A 
ATOM     10  C   UNL     1      -1.686  11.384  19.404  0.00  0.00    +0.000 A 
ATOM     11  C   UNL     1      -0.877  10.258  19.235  0.00  0.00    +0.000 A 
ATOM     12  C   UNL     1       0.490  10.330  19.516  0.00  0.00    +0.000 A 
ATOM     13  C   UNL     1       1.031  11.536  19.973  0.00  0.00    +0.000 A 
ATOM     14  C   UNL     1       0.207  12.649  20.190  0.00  0.00    +0.000 A 
BRANCH   9  16
ATOM     15  C   UNL     1      -2.827  13.561  21.247  0.00  0.00    +0.000 C 
ATOM     16  O   UNL     1      -2.051  13.593  20.056  0.00  0.00    +0.000 OA
ENDBRANCH   9  16
ENDBRANCH   1  12
BRANCH   4  17
ATOM     17  C   UNL     1       2.880   5.325  18.850  0.00  0.00    +0.000 A 
ATOM     18  C   UNL     1       2.895   4.726  17.582  0.00  0.00    +0.000 A 
ATOM     19  C   UNL     1       3.209   3.377  17.434  0.00  0.00    +0.000 A 
ATOM     20  C   UNL     1       3.512   2.604  18.558  0.00  0.00    +0.000 A 
ATOM     21  C   UNL     1       3.507   3.203  19.828  0.00  0.00    +0.000 A 
ATOM     22  C   UNL     1       3.193   4.560  19.981  0.00  0.00    +0.000 A 
BRANCH  21  23
ATOM     23  N   UNL     1       3.818   2.395  21.014  0.00  0.00    +0.000 N 
ATOM     24  O   UNL     1       2.969   2.349  21.917  0.00  0.00    +0.000 OA
ATOM     25  O   UNL     1       4.907   1.806  21.043  0.00  0.00    +0.000 OA
ENDBRANCH  21  23
ENDBRANCH   4  17
TORSDOF 4
ENDMDL
MODEL 3
REMARK VINA RESULT:      -7.7      2.004      2.237
REMARK  Name = 
REMARK  5 active torsions:
REMARK  status: ('A' for Active; 'I' for Inactive)
REMARK    1  A    between atoms: C_1  and  O_2
REMARK    2  A    between atoms: O_2  and  C_3
REMARK    3  A    between atoms: C_6  and  N_7
REMARK    4  A    between atoms: C_10  and  C_11
REMARK    5  A    between atoms: C_15  and  N_16
REMARK                            x       y       z     vdW  Elec       q    Type
REMARK                         _______ _______ _______ _____ _____    ______ ____
ROOT
ATOM      1  N   UNL     1       1.191   9.198  19.593  0.00  0.00    +0.000 N 
ATOM      2  C   UNL     1       1.957   9.185  18.352  0.00  0.00    +0.000 C 
ATOM      3  C   UNL     1       2.443   7.812  18.035  0.00  0.00    +0.000 C 
ATOM      4  C   UNL     1       2.597   6.906  19.007  0.00  0.00    +0.000 C 
ATOM      5  N   UNL     1       2.243   7.231  20.282  0.00  0.00    +0.000 N 
ATOM      6  C   UNL     1       1.490   8.324  20.631  0.00  0.00    +0.000 C 
ATOM      7  O   UNL     1       1.112   8.438  21.796  0.00  0.00    +0.000 OA
ATOM      8  H   UNL     1       2.403   6.575  21.039  0.00  0.00    +0.000 HD
ENDROOT
BRANCH   1  12
ATOM      9  C   UNL     1      -1.546  12.390  20.019  0.00  0.00    +0.000 A 
ATOM     10  C   UNL     1      -0.363  12.378  20.758  0.00  0.00    +0.000 A 
ATOM     11  C   UNL     1       0.550  11.329  20.621  0.00  0.00    +0.000 A 
ATOM     12  C   UNL     1       0.253  10.247  19.787  0.00  0.00    +0.000 A 
ATOM     13  C   UNL     1      -0.959  10.236  19.089  0.00  0.00    +0.000 A 
ATOM     14  C   UNL     1      -1.849  11.314  19.189  0.00  0.00    +0.000 A 
BRANCH   9  16
ATOM     15  C   UNL     1      -3.667  13.201  20.660  0.00  0.00    +0.000 C 
ATOM     16  O   UNL     1      -2.344  13.482  20.219  0.00  0.00    +0.000 OA
ENDBRANCH   9  16
ENDBRANCH   1  12
BRANCH   4  17
ATOM     17  C   UNL     1       3.122   5.565  18.765  0.00  0.00    +0.000 A 
ATOM     18  C   UNL     1       3.369   5.134  17.453  0.00  0.00    +0.000 A 
ATOM     19  C   UNL     1       3.816   3.839  17.200  0.00  0.00    +0.000 A 
ATOM     20  C   UNL     1       4.022   2.953  18.260  0.00  0.00    +0.000 A 
ATOM     21  C   UNL     1       3.785   3.384  19.574  0.00  0.00    +0.000 A 
ATOM     22  C   UNL     1       3.336   4.686  19.835  0.00  0.00    +0.000 A 
BRANCH  21  23
ATOM     23  N   UNL     1       3.992   2.454  20.693  0.00  0.00    +0.000 N 
ATOM     24  O   UNL     1       3.142   2.442  21.595  0.00  0.00    +0.000 OA
ATOM     25  O   UNL     1       5.002   1.737  20.667  0.00  0.00    +0.000 OA
ENDBRANCH  21  23
ENDBRANCH   4  17
TORSDOF 4
ENDMDL
MODEL 4
REMARK VINA RESULT:      -7.7      3.607      5.594
REMARK  Name = 
REMARK  5 active torsions:
REMARK  status: ('A' for Active; 'I' for Inactive)
REMARK    1  A    between atoms: C_1  and  O_2
REMARK    2  A    between atoms: O_2  and  C_3
REMARK    3  A    between atoms: C_6  and  N_7
REMARK    4  A    between atoms: C_10  and  C_11
REMARK    5  A    between atoms: C_15  and  N_16
REMARK                            x       y       z     vdW  Elec       q    Type
REMARK                         _______ _______ _______ _____ _____    ______ ____
ROOT
ATOM      1  N   UNL     1       3.933   5.889  17.803  0.00  0.00    +0.000 N 
ATOM      2  C   UNL     1       5.246   6.504  17.648  0.00  0.00    +0.000 C 
ATOM      3  C   UNL     1       5.848   6.163  16.328  0.00  0.00    +0.000 C 
ATOM      4  C   UNL     1       5.469   5.058  15.677  0.00  0.00    +0.000 C 
ATOM      5  N   UNL     1       4.481   4.281  16.202  0.00  0.00    +0.000 N 
ATOM      6  C   UNL     1       3.642   4.663  17.218  0.00  0.00    +0.000 C 
ATOM      7  O   UNL     1       2.695   3.935  17.512  0.00  0.00    +0.000 OA
ATOM      8  H   UNL     1       4.220   3.411  15.748  0.00  0.00    +0.000 HD
ENDROOT
BRANCH   1  12
ATOM      9  C   UNL     1       1.354   7.748  20.587  0.00  0.00    +0.000 A 
ATOM     10  C   UNL     1       1.811   6.450  20.814  0.00  0.00    +0.000 A 
ATOM     11  C   UNL     1       2.666   5.828  19.901  0.00  0.00    +0.000 A 
ATOM     12  C   UNL     1       3.022   6.481  18.717  0.00  0.00    +0.000 A 
ATOM     13  C   UNL     1       2.518   7.762  18.467  0.00  0.00    +0.000 A 
ATOM     14  C   UNL     1       1.701   8.403  19.408  0.00  0.00    +0.000 A 
BRANCH   9  16
ATOM     15  C   UNL     1       1.109   9.308  22.339  0.00  0.00    +0.000 C 
ATOM     16  O   UNL     1       0.545   8.258  21.564  0.00  0.00    +0.000 OA
ENDBRANCH   9  16
ENDBRANCH   1  12
BRANCH   4  17
ATOM     17  C   UNL     1       6.063   4.642  14.408  0.00  0.00    +0.000 A 
ATOM     18  C   UNL     1       7.266   5.220  13.975  0.00  0.00    +0.000 A 
ATOM     19  C   UNL     1       7.818   4.877  12.742  0.00  0.00    +0.000 A 
ATOM     20  C   UNL     1       7.170   3.950  11.922  0.00  0.00    +0.000 A 
ATOM     21  C   UNL     1       5.971   3.364  12.357  0.00  0.00    +0.000 A 
ATOM     22  C   UNL     1       5.413   3.704  13.597  0.00  0.00    +0.000 A 
BRANCH  21  23
ATOM     23  N   UNL     1       5.281   2.394  11.496  0.00  0.00    +0.000 N 
ATOM     24  O   UNL     1       4.144   2.685  11.099  0.00  0.00    +0.000 OA
ATOM     25  O   UNL     1       5.878   1.345  11.216  0.00  0.00    +0.000 OA
ENDBRANCH  21  23
ENDBRANCH   4  17
TORSDOF 4
ENDMDL
MODEL 5
REMARK VINA RESULT:      -7.6      0.474      1.257
REMARK  Name = 
REMARK  5 active torsions:
REMARK  status: ('A' for Active; 'I' for Inactive)
REMARK    1  A    between atoms: C_1  and  O_2
REMARK    2  A    between atoms: O_2  and  C_3
REMARK    3  A    between atoms: C_6  and  N_7
REMARK    4  A    between atoms: C_10  and  C_11
REMARK    5  A    between atoms: C_15  and  N_16
REMARK                            x       y       z     vdW  Elec       q    Type
REMARK                         _______ _______ _______ _____ _____    ______ ____
ROOT
ATOM      1  N   UNL     1       1.119   9.515  19.278  0.00  0.00    +0.000 N 
ATOM      2  C   UNL     1       1.959   9.687  18.099  0.00  0.00    +0.000 C 
ATOM      3  C   UNL     1       2.485   8.379  17.617  0.00  0.00    +0.000 C 
ATOM      4  C   UNL     1       2.594   7.342  18.456  0.00  0.00    +0.000 C 
ATOM      5  N   UNL     1       2.159   7.476  19.740  0.00  0.00    +0.000 N 
ATOM      6  C   UNL     1       1.369   8.501  20.195  0.00  0.00    +0.000 C 
ATOM      7  O   UNL     1       0.919   8.442  21.338  0.00  0.00    +0.000 OA
ATOM      8  H   UNL     1       2.283   6.718  20.403  0.00  0.00    +0.000 HD
ENDROOT
BRANCH   1  12
ATOM      9  C   UNL     1      -1.799  12.408  20.267  0.00  0.00    +0.000 A 
ATOM     10  C   UNL     1      -2.033  11.502  19.232  0.00  0.00    +0.000 A 
ATOM     11  C   UNL     1      -1.076  10.540  18.901  0.00  0.00    +0.000 A 
ATOM     12  C   UNL     1       0.155  10.518  19.563  0.00  0.00    +0.000 A 
ATOM     13  C   UNL     1       0.408  11.463  20.563  0.00  0.00    +0.000 A 
ATOM     14  C   UNL     1      -0.574  12.394  20.928  0.00  0.00    +0.000 A 
BRANCH   9  16
ATOM     15  C   UNL     1      -3.391  13.203  21.815  0.00  0.00    +0.000 C 
ATOM     16  O   UNL     1      -2.820  13.283  20.515  0.00  0.00    +0.000 OA
ENDBRANCH   9  16
ENDBRANCH   1  12
BRANCH   4  17
ATOM     17  C   UNL     1       3.155   6.054  18.056  0.00  0.00    +0.000 A 
ATOM     18  C   UNL     1       2.313   4.943  17.893  0.00  0.00    +0.000 A 
ATOM     19  C   UNL     1       2.837   3.694  17.567  0.00  0.00    +0.000 A 
ATOM     20  C   UNL     1       4.215   3.537  17.401  0.00  0.00    +0.000 A 
ATOM     21  C   UNL     1       5.059   4.649  17.554  0.00  0.00    +0.000 A 
ATOM     22  C   UNL     1       4.537   5.908  17.880  0.00  0.00    +0.000 A 
BRANCH  21  23
ATOM     23  N   UNL     1       6.509   4.490  17.387  0.00  0.00    +0.000 N 
ATOM     24  O   UNL     1       6.947   4.388  16.232  0.00  0.00    +0.000 OA
ATOM     25  O   UNL     1       7.209   4.469  18.409  0.00  0.00    +0.000 OA
ENDBRANCH  21  23
ENDBRANCH   4  17
TORSDOF 4
ENDMDL
MODEL 6
REMARK VINA RESULT:      -7.6      2.053      2.282
REMARK  Name = 
REMARK  5 active torsions:
REMARK  status: ('A' for Active; 'I' for Inactive)
REMARK    1  A    between atoms: C_1  and  O_2
REMARK    2  A    between atoms: O_2  and  C_3
REMARK    3  A    between atoms: C_6  and  N_7
REMARK    4  A    between atoms: C_10  and  C_11
REMARK    5  A    between atoms: C_15  and  N_16
REMARK                            x       y       z     vdW  Elec       q    Type
REMARK                         _______ _______ _______ _____ _____    ______ ____
ROOT
ATOM      1  N   UNL     1       1.081   9.471  19.334  0.00  0.00    +0.000 N 
ATOM      2  C   UNL     1       1.904   9.716  18.156  0.00  0.00    +0.000 C 
ATOM      3  C   UNL     1       2.469   8.446  17.620  0.00  0.00    +0.000 C 
ATOM      4  C   UNL     1       2.620   7.382  18.417  0.00  0.00    +0.000 C 
ATOM      5  N   UNL     1       2.192   7.452  19.709  0.00  0.00    +0.000 N 
ATOM      6  C   UNL     1       1.373   8.432  20.210  0.00  0.00    +0.000 C 
ATOM      7  O   UNL     1       0.935   8.314  21.354  0.00  0.00    +0.000 OA
ATOM      8  H   UNL     1       2.348   6.673  20.341  0.00  0.00    +0.000 HD
ENDROOT
BRANCH   1  12
ATOM      9  C   UNL     1      -1.827  12.418  20.181  0.00  0.00    +0.000 A 
ATOM     10  C   UNL     1      -0.650  12.359  20.929  0.00  0.00    +0.000 A 
ATOM     11  C   UNL     1       0.318  11.391  20.654  0.00  0.00    +0.000 A 
ATOM     12  C   UNL     1       0.087  10.430  19.666  0.00  0.00    +0.000 A 
ATOM     13  C   UNL     1      -1.118  10.457  18.955  0.00  0.00    +0.000 A 
ATOM     14  C   UNL     1      -2.065  11.461  19.198  0.00  0.00    +0.000 A 
BRANCH   9  16
ATOM     15  C   UNL     1      -3.106  13.431  21.885  0.00  0.00    +0.000 C 
ATOM     16  O   UNL     1      -2.684  13.426  20.527  0.00  0.00    +0.000 OA
ENDBRANCH   9  16
ENDBRANCH   1  12
BRANCH   4  17
ATOM     17  C   UNL     1       3.219   6.129  17.963  0.00  0.00    +0.000 A 
ATOM     18  C   UNL     1       4.374   6.152  17.167  0.00  0.00    +0.000 A 
ATOM     19  C   UNL     1       4.927   4.971  16.679  0.00  0.00    +0.000 A 
ATOM     20  C   UNL     1       4.329   3.744  16.978  0.00  0.00    +0.000 A 
ATOM     21  C   UNL     1       3.178   3.718  17.782  0.00  0.00    +0.000 A 
ATOM     22  C   UNL     1       2.619   4.903  18.278  0.00  0.00    +0.000 A 
BRANCH  21  23
ATOM     23  N   UNL     1       2.539   2.432  18.095  0.00  0.00    +0.000 N 
ATOM     24  O   UNL     1       3.278   1.473  18.360  0.00  0.00    +0.000 OA
ATOM     25  O   UNL     1       1.302   2.384  18.079  0.00  0.00    +0.000 OA
ENDBRANCH  21  23
ENDBRANCH   4  17
TORSDOF 4
ENDMDL
MODEL 7
REMARK VINA RESULT:      -7.6      2.210      3.003
REMARK  Name = 
REMARK  5 active torsions:
REMARK  status: ('A' for Active; 'I' for Inactive)
REMARK    1  A    between atoms: C_1  and  O_2
REMARK    2  A    between atoms: O_2  and  C_3
REMARK    3  A    between atoms: C_6  and  N_7
REMARK    4  A    between atoms: C_10  and  C_11
REMARK    5  A    between atoms: C_15  and  N_16
REMARK                            x       y       z     vdW  Elec       q    Type
REMARK                         _______ _______ _______ _____ _____    ______ ____
ROOT
ATOM      1  N   UNL     1       1.991   7.966  19.377  0.00  0.00    +0.000 N 
ATOM      2  C   UNL     1       2.113   6.612  19.903  0.00  0.00    +0.000 C 
ATOM      3  C   UNL     1       3.362   5.957  19.421  0.00  0.00    +0.000 C 
ATOM      4  C   UNL     1       3.946   6.364  18.288  0.00  0.00    +0.000 C 
ATOM      5  N   UNL     1       3.423   7.425  17.614  0.00  0.00    +0.000 N 
ATOM      6  C   UNL     1       2.495   8.297  18.124  0.00  0.00    +0.000 C 
ATOM      7  O   UNL     1       2.202   9.301  17.477  0.00  0.00    +0.000 OA
ATOM      8  H   UNL     1       3.822   7.712  16.725  0.00  0.00    +0.000 HD
ENDROOT
BRANCH   1  12
ATOM      9  C   UNL     1      -0.524  10.589  21.535  0.00  0.00    +0.000 A 
ATOM     10  C   UNL     1      -0.485  10.643  20.141  0.00  0.00    +0.000 A 
ATOM     11  C   UNL     1       0.340   9.778  19.419  0.00  0.00    +0.000 A 
ATOM     12  C   UNL     1       1.185   8.891  20.093  0.00  0.00    +0.000 A 
ATOM     13  C   UNL     1       1.185   8.877  21.491  0.00  0.00    +0.000 A 
ATOM     14  C   UNL     1       0.318   9.710  22.212  0.00  0.00    +0.000 A 
BRANCH   9  16
ATOM     15  C   UNL     1      -0.811  12.683  22.581  0.00  0.00    +0.000 C 
ATOM     16  O   UNL     1      -1.389  11.467  22.126  0.00  0.00    +0.000 OA
ENDBRANCH   9  16
ENDBRANCH   1  12
BRANCH   4  17
ATOM     17  C   UNL     1       5.138   5.724  17.737  0.00  0.00    +0.000 A 
ATOM     18  C   UNL     1       6.193   5.357  18.585  0.00  0.00    +0.000 A 
ATOM     19  C   UNL     1       7.360   4.797  18.070  0.00  0.00    +0.000 A 
ATOM     20  C   UNL     1       7.490   4.599  16.694  0.00  0.00    +0.000 A 
ATOM     21  C   UNL     1       6.433   4.958  15.843  0.00  0.00    +0.000 A 
ATOM     22  C   UNL     1       5.256   5.519  16.356  0.00  0.00    +0.000 A 
BRANCH  21  23
ATOM     23  N   UNL     1       6.566   4.758  14.394  0.00  0.00    +0.000 N 
ATOM     24  O   UNL     1       7.431   5.418  13.800  0.00  0.00    +0.000 OA
ATOM     25  O   UNL     1       5.808   3.942  13.852  0.00  0.00    +0.000 OA
ENDBRANCH  21  23
ENDBRANCH   4  17
TORSDOF 4
ENDMDL
MODEL 8
REMARK VINA RESULT:      -7.6      2.057      2.551
REMARK  Name = 
REMARK  5 active torsions:
REMARK  status: ('A' for Active; 'I' for Inactive)
REMARK    1  A    between atoms: C_1  and  O_2
REMARK    2  A    between atoms: O_2  and  C_3
REMARK    3  A    between atoms: C_6  and  N_7
REMARK    4  A    between atoms: C_10  and  C_11
REMARK    5  A    between atoms: C_15  and  N_16
REMARK                            x       y       z     vdW  Elec       q    Type
REMARK                         _______ _______ _______ _____ _____    ______ ____
ROOT
ATOM      1  N   UNL     1       1.128   9.586  19.234  0.00  0.00    +0.000 N 
ATOM      2  C   UNL     1       2.003   9.763  18.081  0.00  0.00    +0.000 C 
ATOM      3  C   UNL     1       2.524   8.453  17.595  0.00  0.00    +0.000 C 
ATOM      4  C   UNL     1       2.594   7.404  18.422  0.00  0.00    +0.000 C 
ATOM      5  N   UNL     1       2.125   7.526  19.695  0.00  0.00    +0.000 N 
ATOM      6  C   UNL     1       1.338   8.556  20.144  0.00  0.00    +0.000 C 
ATOM      7  O   UNL     1       0.855   8.488  21.273  0.00  0.00    +0.000 OA
ATOM      8  H   UNL     1       2.220   6.757  20.350  0.00  0.00    +0.000 HD
ENDROOT
BRANCH   1  12
ATOM      9  C   UNL     1      -1.762  12.517  20.193  0.00  0.00    +0.000 A 
ATOM     10  C   UNL     1      -2.035  11.555  19.220  0.00  0.00    +0.000 A 
ATOM     11  C   UNL     1      -1.088  10.580  18.899  0.00  0.00    +0.000 A 
ATOM     12  C   UNL     1       0.171  10.599  19.507  0.00  0.00    +0.000 A 
ATOM     13  C   UNL     1       0.462  11.598  20.442  0.00  0.00    +0.000 A 
ATOM     14  C   UNL     1      -0.509  12.544  20.800  0.00  0.00    +0.000 A 
BRANCH   9  16
ATOM     15  C   UNL     1      -4.079  12.830  20.505  0.00  0.00    +0.000 C 
ATOM     16  O   UNL     1      -2.777  13.399  20.438  0.00  0.00    +0.000 OA
ENDBRANCH   9  16
ENDBRANCH   1  12
BRANCH   4  17
ATOM     17  C   UNL     1       3.147   6.113  18.019  0.00  0.00    +0.000 A 
ATOM     18  C   UNL     1       4.316   6.061  17.245  0.00  0.00    +0.000 A 
ATOM     19  C   UNL     1       4.826   4.842  16.805  0.00  0.00    +0.000 A 
ATOM     20  C   UNL     1       4.171   3.653  17.131  0.00  0.00    +0.000 A 
ATOM     21  C   UNL     1       3.006   3.701  17.913  0.00  0.00    +0.000 A 
ATOM     22  C   UNL     1       2.489   4.924  18.360  0.00  0.00    +0.000 A 
BRANCH  21  23
ATOM     23  N   UNL     1       2.307   2.454  18.255  0.00  0.00    +0.000 N 
ATOM     24  O   UNL     1       1.069   2.456  18.201  0.00  0.00    +0.000 OA
ATOM     25  O   UNL     1       2.996   1.475  18.573  0.00  0.00    +0.000 OA
ENDBRANCH  21  23
ENDBRANCH   4  17
TORSDOF 4
ENDMDL
MODEL 9
REMARK VINA RESULT:      -7.6      2.093      8.771
REMARK  Name = 
REMARK  5 active torsions:
REMARK  status: ('A' for Active; 'I' for Inactive)
REMARK    1  A    between atoms: C_1  and  O_2
REMARK    2  A    between atoms: O_2  and  C_3
REMARK    3  A    between atoms: C_6  and  N_7
REMARK    4  A    between atoms: C_10  and  C_11
REMARK    5  A    between atoms: C_15  and  N_16
REMARK                            x       y       z     vdW  Elec       q    Type
REMARK                         _______ _______ _______ _____ _____    ______ ____
ROOT
ATOM      1  N   UNL     1       3.306   6.910  18.351  0.00  0.00    +0.000 N 
ATOM      2  C   UNL     1       2.511   7.931  17.680  0.00  0.00    +0.000 C 
ATOM      3  C   UNL     1       1.812   8.803  18.666  0.00  0.00    +0.000 C 
ATOM      4  C   UNL     1       1.551   8.357  19.899  0.00  0.00    +0.000 C 
ATOM      5  N   UNL     1       1.987   7.120  20.266  0.00  0.00    +0.000 N 
ATOM      6  C   UNL     1       2.908   6.377  19.571  0.00  0.00    +0.000 C 
ATOM      7  O   UNL     1       3.334   5.337  20.072  0.00  0.00    +0.000 OA
ATOM      8  H   UNL     1       1.752   6.745  21.179  0.00  0.00    +0.000 HD
ENDROOT
BRANCH   1  12
ATOM      9  C   UNL     1       6.528   5.336  16.114  0.00  0.00    +0.000 A 
ATOM     10  C   UNL     1       5.304   4.667  16.147  0.00  0.00    +0.000 A 
ATOM     11  C   UNL     1       4.232   5.181  16.880  0.00  0.00    +0.000 A 
ATOM     12  C   UNL     1       4.398   6.342  17.642  0.00  0.00    +0.000 A 
ATOM     13  C   UNL     1       5.642   6.980  17.651  0.00  0.00    +0.000 A 
ATOM     14  C   UNL     1       6.700   6.490  16.873  0.00  0.00    +0.000 A 
BRANCH   9  16
ATOM     15  C   UNL     1       7.224   4.729  13.944  0.00  0.00    +0.000 C 
ATOM     16  O   UNL     1       7.490   4.748  15.340  0.00  0.00    +0.000 OA
ENDBRANCH   9  16
ENDBRANCH   1  12
BRANCH   4  17
ATOM     17  C   UNL     1       0.820   9.144  20.889  0.00  0.00    +0.000 A 
ATOM     18  C   UNL     1       0.882   8.796  22.247  0.00  0.00    +0.000 A 
ATOM     19  C   UNL     1       0.147   9.501  23.198  0.00  0.00    +0.000 A 
ATOM     20  C   UNL     1      -0.665  10.566  22.803  0.00  0.00    +0.000 A 
ATOM     21  C   UNL     1      -0.722  10.923  21.446  0.00  0.00    +0.000 A 
ATOM     22  C   UNL     1       0.016  10.218  20.486  0.00  0.00    +0.000 A 
BRANCH  21  23
ATOM     23  N   UNL     1      -1.580  12.037  21.023  0.00  0.00    +0.000 N 
ATOM     24  O   UNL     1      -1.316  12.588  19.944  0.00  0.00    +0.000 OA
ATOM     25  O   UNL     1      -2.517  12.359  21.766  0.00  0.00    +0.000 OA
ENDBRANCH  21  23
ENDBRANCH   4  17
TORSDOF 4
ENDMDL
