MODEL 1
REMARK VINA RESULT:      -6.9      0.000      0.000
REMARK  Name = 
REMARK  5 active torsions:
REMARK  status: ('A' for Active; 'I' for Inactive)
REMARK    1  A    between atoms: N_3  and  C_4
REMARK    2  A    between atoms: C_4  and  C_5
REMARK    3  A    between atoms: C_5  and  O_6
REMARK    4  A    between atoms: N_13  and  C_14
REMARK    5  A    between atoms: C_14  and  C_15
REMARK                            x       y       z     vdW  Elec       q    Type
REMARK                         _______ _______ _______ _____ _____    ______ ____
ROOT
ATOM      1  N   UNL     1       3.336   2.133  18.648  0.00  0.00    +0.000 NA
ATOM      2  C   UNL     1       2.998   3.333  18.947  0.00  0.00    +0.000 A 
ATOM      3  N   UNL     1       2.044   3.666  19.866  0.00  0.00    +0.000 N 
ATOM      4  C   UNL     1       2.023   5.020  19.842  0.00  0.00    +0.000 A 
ATOM      5  C   UNL     1       1.230   5.908  20.577  0.00  0.00    +0.000 A 
ATOM      6  C   UNL     1       1.376   7.285  20.332  0.00  0.00    +0.000 A 
ATOM      7  C   UNL     1       2.291   7.746  19.363  0.00  0.00    +0.000 A 
ATOM      8  C   UNL     1       3.085   6.839  18.639  0.00  0.00    +0.000 A 
ATOM      9  C   UNL     1       2.930   5.476  18.911  0.00  0.00    +0.000 A 
ATOM     10  N   UNL     1       3.551   4.423  18.346  0.00  0.00    +0.000 N 
ATOM     11  H   UNL     1       2.915   1.303  19.081  0.00  0.00    +0.000 HD
ENDROOT
BRANCH   3  12
ATOM     12  C   UNL     1       1.168   2.781  20.663  0.00  0.00    +0.000 C 
BRANCH  12  13
ATOM     13  C   UNL     1       1.723   2.407  22.040  0.00  0.00    +0.000 C 
BRANCH  13  14
ATOM     14  O   UNL     1       3.112   2.235  21.989  0.00  0.00    +0.000 OA
ATOM     15  H   UNL     1       3.481   3.042  21.543  0.00  0.00    +0.000 HD
ENDBRANCH  13  14
ENDBRANCH  12  13
ENDBRANCH   3  12
BRANCH  10  16
ATOM     16  C   UNL     1       4.574   4.424  17.287  0.00  0.00    +0.000 C 
BRANCH  16  17
ATOM     17  C   UNL     1       5.778   5.286  17.634  0.00  0.00    +0.000 A 
ATOM     18  C   UNL     1       6.588   5.011  18.760  0.00  0.00    +0.000 A 
ATOM     19  C   UNL     1       7.673   5.831  19.076  0.00  0.00    +0.000 A 
ATOM     20  C   UNL     1       7.975   6.934  18.280  0.00  0.00    +0.000 A 
ATOM     21  C   UNL     1       7.198   7.216  17.156  0.00  0.00    +0.000 A 
ATOM     22  C   UNL     1       6.108   6.399  16.824  0.00  0.00    +0.000 A 
ATOM     23 CL   UNL     1       5.163   6.817  15.398  0.00  0.00    +0.000 Cl
ENDBRANCH  16  17
ENDBRANCH  10  16
TORSDOF 5
ENDMDL
MODEL 2
REMARK VINA RESULT:      -6.7      2.660      5.980
REMARK  Name = 
REMARK  5 active torsions:
REMARK  status: ('A' for Active; 'I' for Inactive)
REMARK    1  A    between atoms: N_3  and  C_4
REMARK    2  A    between atoms: C_4  and  C_5
REMARK    3  A    between atoms: C_5  and  O_6
REMARK    4  A    between atoms: N_13  and  C_14
REMARK    5  A    between atoms: C_14  and  C_15
REMARK                            x       y       z     vdW  Elec       q    Type
REMARK                         _______ _______ _______ _____ _____    ______ ____
ROOT
ATOM      1  N   UNL     1       5.255   5.572  19.728  0.00  0.00    +0.000 NA
ATOM      2  C   UNL     1       5.460   5.262  18.501  0.00  0.00    +0.000 A 
ATOM      3  N   UNL     1       6.675   4.919  17.979  0.00  0.00    +0.000 N 
ATOM      4  C   UNL     1       6.416   4.687  16.670  0.00  0.00    +0.000 A 
ATOM      5  C   UNL     1       7.292   4.306  15.647  0.00  0.00    +0.000 A 
ATOM      6  C   UNL     1       6.771   4.169  14.348  0.00  0.00    +0.000 A 
ATOM      7  C   UNL     1       5.407   4.419  14.093  0.00  0.00    +0.000 A 
ATOM      8  C   UNL     1       4.541   4.793  15.135  0.00  0.00    +0.000 A 
ATOM      9  C   UNL     1       5.080   4.911  16.421  0.00  0.00    +0.000 A 
ATOM     10  N   UNL     1       4.470   5.268  17.566  0.00  0.00    +0.000 N 
ATOM     11  H   UNL     1       5.995   5.587  20.439  0.00  0.00    +0.000 HD
ENDROOT
BRANCH   3  12
ATOM     12  C   UNL     1       7.996   4.874  18.642  0.00  0.00    +0.000 C 
BRANCH  12  13
ATOM     13  C   UNL     1       8.200   5.933  19.728  0.00  0.00    +0.000 C 
BRANCH  13  14
ATOM     14  O   UNL     1       8.194   5.349  21.002  0.00  0.00    +0.000 OA
ATOM     15  H   UNL     1       8.823   4.582  20.964  0.00  0.00    +0.000 HD
ENDBRANCH  13  14
ENDBRANCH  12  13
ENDBRANCH   3  12
BRANCH  10  16
ATOM     16  C   UNL     1       3.059   5.628  17.777  0.00  0.00    +0.000 C 
BRANCH  16  17
ATOM     17  C   UNL     1       2.270   4.530  18.474  0.00  0.00    +0.000 A 
ATOM     18  C   UNL     1       2.093   3.256  17.886  0.00  0.00    +0.000 A 
ATOM     19  C   UNL     1       1.342   2.271  18.530  0.00  0.00    +0.000 A 
ATOM     20  C   UNL     1       0.757   2.531  19.768  0.00  0.00    +0.000 A 
ATOM     21  C   UNL     1       0.930   3.776  20.373  0.00  0.00    +0.000 A 
ATOM     22  C   UNL     1       1.686   4.773  19.740  0.00  0.00    +0.000 A 
ATOM     23 CL   UNL     1       1.855   6.325  20.554  0.00  0.00    +0.000 Cl
ENDBRANCH  16  17
ENDBRANCH  10  16
TORSDOF 5
ENDMDL
MODEL 3
REMARK VINA RESULT:      -6.7      2.799      5.864
REMARK  Name = 
REMARK  5 active torsions:
REMARK  status: ('A' for Active; 'I' for Inactive)
REMARK    1  A    between atoms: N_3  and  C_4
REMARK    2  A    between atoms: C_4  and  C_5
REMARK    3  A    between atoms: C_5  and  O_6
REMARK    4  A    between atoms: N_13  and  C_14
REMARK    5  A    between atoms: C_14  and  C_15
REMARK                            x       y       z     vdW  Elec       q    Type
REMARK                         _______ _______ _______ _____ _____    ______ ____
ROOT
ATOM      1  N   UNL     1       5.452   3.826  19.409  0.00  0.00    +0.000 NA
ATOM      2  C   UNL     1       5.660   4.005  18.157  0.00  0.00    +0.000 A 
ATOM      3  N   UNL     1       6.860   4.366  17.612  0.00  0.00    +0.000 N 
ATOM      4  C   UNL     1       6.607   4.442  16.284  0.00  0.00    +0.000 A 
ATOM      5  C   UNL     1       7.470   4.778  15.235  0.00  0.00    +0.000 A 
ATOM      6  C   UNL     1       6.942   4.825  13.932  0.00  0.00    +0.000 A 
ATOM      7  C   UNL     1       5.578   4.550  13.702  0.00  0.00    +0.000 A 
ATOM      8  C   UNL     1       4.728   4.207  14.768  0.00  0.00    +0.000 A 
ATOM      9  C   UNL     1       5.280   4.155  16.052  0.00  0.00    +0.000 A 
ATOM     10  N   UNL     1       4.677   3.873  17.223  0.00  0.00    +0.000 N 
ATOM     11  H   UNL     1       6.180   3.938  20.124  0.00  0.00    +0.000 HD
ENDROOT
BRANCH   3  12
ATOM     12  C   UNL     1       8.135   4.680  18.291  0.00  0.00    +0.000 C 
BRANCH  12  13
ATOM     13  C   UNL     1       8.075   5.884  19.234  0.00  0.00    +0.000 C 
BRANCH  13  14
ATOM     14  O   UNL     1       7.945   5.469  20.566  0.00  0.00    +0.000 OA
ATOM     15  H   UNL     1       8.575   4.712  20.688  0.00  0.00    +0.000 HD
ENDBRANCH  13  14
ENDBRANCH  12  13
ENDBRANCH   3  12
BRANCH  10  16
ATOM     16  C   UNL     1       3.266   3.536  17.468  0.00  0.00    +0.000 C 
BRANCH  16  17
ATOM     17  C   UNL     1       2.629   4.411  18.538  0.00  0.00    +0.000 A 
ATOM     18  C   UNL     1       2.765   5.818  18.523  0.00  0.00    +0.000 A 
ATOM     19  C   UNL     1       2.196   6.601  19.529  0.00  0.00    +0.000 A 
ATOM     20  C   UNL     1       1.480   6.002  20.564  0.00  0.00    +0.000 A 
ATOM     21  C   UNL     1       1.322   4.616  20.591  0.00  0.00    +0.000 A 
ATOM     22  C   UNL     1       1.884   3.818  19.584  0.00  0.00    +0.000 A 
ATOM     23 CL   UNL     1       1.655   2.076  19.684  0.00  0.00    +0.000 Cl
ENDBRANCH  16  17
ENDBRANCH  10  16
TORSDOF 5
ENDMDL
MODEL 4
REMARK VINA RESULT:      -6.7      1.756      2.323
REMARK  Name = 
REMARK  5 active torsions:
REMARK  status: ('A' for Active; 'I' for Inactive)
REMARK    1  A    between atoms: N_3  and  C_4
REMARK    2  A    between atoms: C_4  and  C_5
REMARK    3  A    between atoms: C_5  and  O_6
REMARK    4  A    between atoms: N_13  and  C_14
REMARK    5  A    between atoms: C_14  and  C_15
REMARK                            x       y       z     vdW  Elec       q    Type
REMARK                         _______ _______ _______ _____ _____    ______ ____
ROOT
ATOM      1  N   UNL     1       4.694   2.205  19.424  0.00  0.00    +0.000 NA
ATOM      2  C   UNL     1       4.181   3.352  19.171  0.00  0.00    +0.000 A 
ATOM      3  N   UNL     1       2.882   3.695  19.418  0.00  0.00    +0.000 N 
ATOM      4  C   UNL     1       2.794   4.976  18.990  0.00  0.00    +0.000 A 
ATOM      5  C   UNL     1       1.690   5.837  18.992  0.00  0.00    +0.000 A 
ATOM      6  C   UNL     1       1.854   7.123  18.446  0.00  0.00    +0.000 A 
ATOM      7  C   UNL     1       3.094   7.520  17.906  0.00  0.00    +0.000 A 
ATOM      8  C   UNL     1       4.194   6.643  17.920  0.00  0.00    +0.000 A 
ATOM      9  C   UNL     1       4.009   5.374  18.480  0.00  0.00    +0.000 A 
ATOM     10  N   UNL     1       4.890   4.362  18.594  0.00  0.00    +0.000 N 
ATOM     11  H   UNL     1       4.167   1.430  19.844  0.00  0.00    +0.000 HD
ENDROOT
BRANCH   3  12
ATOM     12  C   UNL     1       1.785   2.862  19.956  0.00  0.00    +0.000 C 
BRANCH  12  13
ATOM     13  C   UNL     1       1.645   2.898  21.479  0.00  0.00    +0.000 C 
BRANCH  13  14
ATOM     14  O   UNL     1       2.830   2.480  22.099  0.00  0.00    +0.000 OA
ATOM     15  H   UNL     1       2.693   1.532  22.359  0.00  0.00    +0.000 HD
ENDBRANCH  13  14
ENDBRANCH  12  13
ENDBRANCH   3  12
BRANCH  10  16
ATOM     16  C   UNL     1       6.296   4.320  18.162  0.00  0.00    +0.000 C 
BRANCH  16  17
ATOM     17  C   UNL     1       6.454   4.488  16.658  0.00  0.00    +0.000 A 
ATOM     18  C   UNL     1       5.986   3.512  15.749  0.00  0.00    +0.000 A 
ATOM     19  C   UNL     1       6.165   3.673  14.373  0.00  0.00    +0.000 A 
ATOM     20  C   UNL     1       6.810   4.805  13.877  0.00  0.00    +0.000 A 
ATOM     21  C   UNL     1       7.268   5.787  14.756  0.00  0.00    +0.000 A 
ATOM     22  C   UNL     1       7.090   5.641  16.139  0.00  0.00    +0.000 A 
ATOM     23 CL   UNL     1       7.702   6.913  17.191  0.00  0.00    +0.000 Cl
ENDBRANCH  16  17
ENDBRANCH  10  16
TORSDOF 5
ENDMDL
MODEL 5
REMARK VINA RESULT:      -6.7      3.242      5.723
REMARK  Name = 
REMARK  5 active torsions:
REMARK  status: ('A' for Active; 'I' for Inactive)
REMARK    1  A    between atoms: N_3  and  C_4
REMARK    2  A    between atoms: C_4  and  C_5
REMARK    3  A    between atoms: C_5  and  O_6
REMARK    4  A    between atoms: N_13  and  C_14
REMARK    5  A    between atoms: C_14  and  C_15
REMARK                            x       y       z     vdW  Elec       q    Type
REMARK                         _______ _______ _______ _____ _____    ______ ____
ROOT
ATOM      1  N   UNL     1       5.504   2.744  16.215  0.00  0.00    +0.000 NA
ATOM      2  C   UNL     1       4.920   3.822  16.586  0.00  0.00    +0.000 A 
ATOM      3  N   UNL     1       5.437   5.078  16.438  0.00  0.00    +0.000 N 
ATOM      4  C   UNL     1       4.492   5.888  16.972  0.00  0.00    +0.000 A 
ATOM      5  C   UNL     1       4.488   7.282  17.099  0.00  0.00    +0.000 A 
ATOM      6  C   UNL     1       3.389   7.884  17.737  0.00  0.00    +0.000 A 
ATOM      7  C   UNL     1       2.332   7.098  18.239  0.00  0.00    +0.000 A 
ATOM      8  C   UNL     1       2.351   5.698  18.095  0.00  0.00    +0.000 A 
ATOM      9  C   UNL     1       3.448   5.124  17.446  0.00  0.00    +0.000 A 
ATOM     10  N   UNL     1       3.705   3.825  17.203  0.00  0.00    +0.000 N 
ATOM     11  H   UNL     1       6.426   2.727  15.763  0.00  0.00    +0.000 HD
ENDROOT
BRANCH   3  12
ATOM     12  C   UNL     1       6.751   5.487  15.896  0.00  0.00    +0.000 C 
BRANCH  12  13
ATOM     13  C   UNL     1       7.083   4.900  14.523  0.00  0.00    +0.000 C 
BRANCH  13  14
ATOM     14  O   UNL     1       8.068   5.661  13.879  0.00  0.00    +0.000 OA
ATOM     15  H   UNL     1       8.869   5.079  13.801  0.00  0.00    +0.000 HD
ENDBRANCH  13  14
ENDBRANCH  12  13
ENDBRANCH   3  12
BRANCH  10  16
ATOM     16  C   UNL     1       2.890   2.651  17.554  0.00  0.00    +0.000 C 
BRANCH  16  17
ATOM     17  C   UNL     1       2.350   2.713  18.975  0.00  0.00    +0.000 A 
ATOM     18  C   UNL     1       0.985   2.969  19.238  0.00  0.00    +0.000 A 
ATOM     19  C   UNL     1       0.515   3.049  20.551  0.00  0.00    +0.000 A 
ATOM     20  C   UNL     1       1.389   2.873  21.622  0.00  0.00    +0.000 A 
ATOM     21  C   UNL     1       2.737   2.605  21.384  0.00  0.00    +0.000 A 
ATOM     22  C   UNL     1       3.222   2.517  20.072  0.00  0.00    +0.000 A 
ATOM     23 CL   UNL     1       4.936   2.186  19.843  0.00  0.00    +0.000 Cl
ENDBRANCH  16  17
ENDBRANCH  10  16
TORSDOF 5
ENDMDL
MODEL 6
REMARK VINA RESULT:      -6.7      2.850      5.507
REMARK  Name = 
REMARK  5 active torsions:
REMARK  status: ('A' for Active; 'I' for Inactive)
REMARK    1  A    between atoms: N_3  and  C_4
REMARK    2  A    between atoms: C_4  and  C_5
REMARK    3  A    between atoms: C_5  and  O_6
REMARK    4  A    between atoms: N_13  and  C_14
REMARK    5  A    between atoms: C_14  and  C_15
REMARK                            x       y       z     vdW  Elec       q    Type
REMARK                         _______ _______ _______ _____ _____    ______ ____
ROOT
ATOM      1  N   UNL     1       5.695   3.262  16.455  0.00  0.00    +0.000 NA
ATOM      2  C   UNL     1       4.973   4.265  16.792  0.00  0.00    +0.000 A 
ATOM      3  N   UNL     1       5.364   5.571  16.704  0.00  0.00    +0.000 N 
ATOM      4  C   UNL     1       4.300   6.266  17.169  0.00  0.00    +0.000 A 
ATOM      5  C   UNL     1       4.138   7.648  17.314  0.00  0.00    +0.000 A 
ATOM      6  C   UNL     1       2.934   8.119  17.869  0.00  0.00    +0.000 A 
ATOM      7  C   UNL     1       1.930   7.215  18.273  0.00  0.00    +0.000 A 
ATOM      8  C   UNL     1       2.108   5.829  18.113  0.00  0.00    +0.000 A 
ATOM      9  C   UNL     1       3.309   5.387  17.547  0.00  0.00    +0.000 A 
ATOM     10  N   UNL     1       3.720   4.127  17.309  0.00  0.00    +0.000 N 
ATOM     11  H   UNL     1       6.646   3.351  16.080  0.00  0.00    +0.000 HD
ENDROOT
BRANCH   3  12
ATOM     12  C   UNL     1       6.666   6.126  16.275  0.00  0.00    +0.000 C 
BRANCH  12  13
ATOM     13  C   UNL     1       7.506   6.726  17.404  0.00  0.00    +0.000 C 
BRANCH  13  14
ATOM     14  O   UNL     1       7.748   8.088  17.179  0.00  0.00    +0.000 OA
ATOM     15  H   UNL     1       7.513   8.263  16.230  0.00  0.00    +0.000 HD
ENDBRANCH  13  14
ENDBRANCH  12  13
ENDBRANCH   3  12
BRANCH  10  16
ATOM     16  C   UNL     1       3.009   2.867  17.577  0.00  0.00    +0.000 C 
BRANCH  16  17
ATOM     17  C   UNL     1       2.409   2.816  18.974  0.00  0.00    +0.000 A 
ATOM     18  C   UNL     1       1.018   2.948  19.189  0.00  0.00    +0.000 A 
ATOM     19  C   UNL     1       0.491   2.925  20.482  0.00  0.00    +0.000 A 
ATOM     20  C   UNL     1       1.333   2.768  21.581  0.00  0.00    +0.000 A 
ATOM     21  C   UNL     1       2.707   2.622  21.391  0.00  0.00    +0.000 A 
ATOM     22  C   UNL     1       3.250   2.638  20.098  0.00  0.00    +0.000 A 
ATOM     23 CL   UNL     1       4.993   2.458  19.930  0.00  0.00    +0.000 Cl
ENDBRANCH  16  17
ENDBRANCH  10  16
TORSDOF 5
ENDMDL
MODEL 7
REMARK VINA RESULT:      -6.7      1.034      1.090
REMARK  Name = 
REMARK  5 active torsions:
REMARK  status: ('A' for Active; 'I' for Inactive)
REMARK    1  A    between atoms: N_3  and  C_4
REMARK    2  A    between atoms: C_4  and  C_5
REMARK    3  A    between atoms: C_5  and  O_6
REMARK    4  A    between atoms: N_13  and  C_14
REMARK    5  A    between atoms: C_14  and  C_15
REMARK                            x       y       z     vdW  Elec       q    Type
REMARK                         _______ _______ _______ _____ _____    ______ ____
ROOT
ATOM      1  N   UNL     1       4.469   2.428  19.602  0.00  0.00    +0.000 NA
ATOM      2  C   UNL     1       3.890   3.569  19.660  0.00  0.00    +0.000 A 
ATOM      3  N   UNL     1       2.916   3.903  20.558  0.00  0.00    +0.000 N 
ATOM      4  C   UNL     1       2.603   5.182  20.243  0.00  0.00    +0.000 A 
ATOM      5  C   UNL     1       1.660   6.034  20.830  0.00  0.00    +0.000 A 
ATOM      6  C   UNL     1       1.498   7.319  20.281  0.00  0.00    +0.000 A 
ATOM      7  C   UNL     1       2.260   7.723  19.166  0.00  0.00    +0.000 A 
ATOM      8  C   UNL     1       3.208   6.855  18.594  0.00  0.00    +0.000 A 
ATOM      9  C   UNL     1       3.359   5.588  19.166  0.00  0.00    +0.000 A 
ATOM     10  N   UNL     1       4.175   4.583  18.796  0.00  0.00    +0.000 N 
ATOM     11  H   UNL     1       4.251   1.651  20.237  0.00  0.00    +0.000 HD
ENDROOT
BRANCH   3  12
ATOM     12  C   UNL     1       2.278   3.064  21.596  0.00  0.00    +0.000 C 
BRANCH  12  13
ATOM     13  C   UNL     1       1.071   2.259  21.110  0.00  0.00    +0.000 C 
BRANCH  13  14
ATOM     14  O   UNL     1       0.347   2.975  20.147  0.00  0.00    +0.000 OA
ATOM     15  H   UNL     1       0.842   2.877  19.292  0.00  0.00    +0.000 HD
ENDBRANCH  13  14
ENDBRANCH  12  13
ENDBRANCH   3  12
BRANCH  10  16
ATOM     16  C   UNL     1       5.139   4.550  17.684  0.00  0.00    +0.000 C 
BRANCH  16  17
ATOM     17  C   UNL     1       6.223   5.610  17.813  0.00  0.00    +0.000 A 
ATOM     18  C   UNL     1       7.174   5.575  18.858  0.00  0.00    +0.000 A 
ATOM     19  C   UNL     1       8.144   6.572  18.975  0.00  0.00    +0.000 A 
ATOM     20  C   UNL     1       8.188   7.619  18.055  0.00  0.00    +0.000 A 
ATOM     21  C   UNL     1       7.267   7.666  17.008  0.00  0.00    +0.000 A 
ATOM     22  C   UNL     1       6.292   6.668  16.876  0.00  0.00    +0.000 A 
ATOM     23 CL   UNL     1       5.155   6.794  15.537  0.00  0.00    +0.000 Cl
ENDBRANCH  16  17
ENDBRANCH  10  16
TORSDOF 5
ENDMDL
MODEL 8
REMARK VINA RESULT:      -6.6      2.501      5.863
REMARK  Name = 
REMARK  5 active torsions:
REMARK  status: ('A' for Active; 'I' for Inactive)
REMARK    1  A    between atoms: N_3  and  C_4
REMARK    2  A    between atoms: C_4  and  C_5
REMARK    3  A    between atoms: C_5  and  O_6
REMARK    4  A    between atoms: N_13  and  C_14
REMARK    5  A    between atoms: C_14  and  C_15
REMARK                            x       y       z     vdW  Elec       q    Type
REMARK                         _______ _______ _______ _____ _____    ______ ____
ROOT
ATOM      1  N   UNL     1       4.650   5.901  19.731  0.00  0.00    +0.000 NA
ATOM      2  C   UNL     1       5.067   5.563  18.567  0.00  0.00    +0.000 A 
ATOM      3  N   UNL     1       6.363   5.662  18.146  0.00  0.00    +0.000 N 
ATOM      4  C   UNL     1       6.329   5.205  16.872  0.00  0.00    +0.000 A 
ATOM      5  C   UNL     1       7.372   5.084  15.946  0.00  0.00    +0.000 A 
ATOM      6  C   UNL     1       7.061   4.614  14.657  0.00  0.00    +0.000 A 
ATOM      7  C   UNL     1       5.733   4.287  14.315  0.00  0.00    +0.000 A 
ATOM      8  C   UNL     1       4.700   4.409  15.262  0.00  0.00    +0.000 A 
ATOM      9  C   UNL     1       5.037   4.866  16.540  0.00  0.00    +0.000 A 
ATOM     10  N   UNL     1       4.236   5.082  17.601  0.00  0.00    +0.000 N 
ATOM     11  H   UNL     1       5.263   6.280  20.463  0.00  0.00    +0.000 HD
ENDROOT
BRANCH   3  12
ATOM     12  C   UNL     1       7.537   6.205  18.862  0.00  0.00    +0.000 C 
BRANCH  12  13
ATOM     13  C   UNL     1       8.330   5.170  19.663  0.00  0.00    +0.000 C 
BRANCH  13  14
ATOM     14  O   UNL     1       8.166   5.369  21.040  0.00  0.00    +0.000 OA
ATOM     15  H   UNL     1       8.884   4.851  21.488  0.00  0.00    +0.000 HD
ENDBRANCH  13  14
ENDBRANCH  12  13
ENDBRANCH   3  12
BRANCH  10  16
ATOM     16  C   UNL     1       2.781   4.888  17.703  0.00  0.00    +0.000 C 
BRANCH  16  17
ATOM     17  C   UNL     1       2.380   4.083  18.931  0.00  0.00    +0.000 A 
ATOM     18  C   UNL     1       1.691   4.675  20.013  0.00  0.00    +0.000 A 
ATOM     19  C   UNL     1       1.356   3.924  21.142  0.00  0.00    +0.000 A 
ATOM     20  C   UNL     1       1.697   2.575  21.215  0.00  0.00    +0.000 A 
ATOM     21  C   UNL     1       2.366   1.967  20.152  0.00  0.00    +0.000 A 
ATOM     22  C   UNL     1       2.703   2.707  19.010  0.00  0.00    +0.000 A 
ATOM     23 CL   UNL     1       3.555   1.881  17.710  0.00  0.00    +0.000 Cl
ENDBRANCH  16  17
ENDBRANCH  10  16
TORSDOF 5
ENDMDL
MODEL 9
REMARK VINA RESULT:      -6.6      3.153      6.103
REMARK  Name = 
REMARK  5 active torsions:
REMARK  status: ('A' for Active; 'I' for Inactive)
REMARK    1  A    between atoms: N_3  and  C_4
REMARK    2  A    between atoms: C_4  and  C_5
REMARK    3  A    between atoms: C_5  and  O_6
REMARK    4  A    between atoms: N_13  and  C_14
REMARK    5  A    between atoms: C_14  and  C_15
REMARK                            x       y       z     vdW  Elec       q    Type
REMARK                         _______ _______ _______ _____ _____    ______ ____
ROOT
ATOM      1  N   UNL     1       4.123   3.413  16.384  0.00  0.00    +0.000 NA
ATOM      2  C   UNL     1       4.986   4.207  16.901  0.00  0.00    +0.000 A 
ATOM      3  N   UNL     1       5.708   5.133  16.203  0.00  0.00    +0.000 N 
ATOM      4  C   UNL     1       6.482   5.723  17.144  0.00  0.00    +0.000 A 
ATOM      5  C   UNL     1       7.429   6.744  17.000  0.00  0.00    +0.000 A 
ATOM      6  C   UNL     1       8.137   7.156  18.143  0.00  0.00    +0.000 A 
ATOM      7  C   UNL     1       7.900   6.544  19.391  0.00  0.00    +0.000 A 
ATOM      8  C   UNL     1       6.939   5.524  19.517  0.00  0.00    +0.000 A 
ATOM      9  C   UNL     1       6.239   5.142  18.368  0.00  0.00    +0.000 A 
ATOM     10  N   UNL     1       5.296   4.191  18.227  0.00  0.00    +0.000 N 
ATOM     11  H   UNL     1       3.892   3.404  15.384  0.00  0.00    +0.000 HD
ENDROOT
BRANCH   3  12
ATOM     12  C   UNL     1       5.720   5.402  14.749  0.00  0.00    +0.000 C 
BRANCH  12  13
ATOM     13  C   UNL     1       6.831   4.686  13.977  0.00  0.00    +0.000 C 
BRANCH  13  14
ATOM     14  O   UNL     1       7.904   5.551  13.728  0.00  0.00    +0.000 OA
ATOM     15  H   UNL     1       7.989   6.133  14.529  0.00  0.00    +0.000 HD
ENDBRANCH  13  14
ENDBRANCH  12  13
ENDBRANCH   3  12
BRANCH  10  16
ATOM     16  C   UNL     1       4.740   3.296  19.254  0.00  0.00    +0.000 C 
BRANCH  16  17
ATOM     17  C   UNL     1       3.331   3.687  19.675  0.00  0.00    +0.000 A 
ATOM     18  C   UNL     1       3.062   4.924  20.305  0.00  0.00    +0.000 A 
ATOM     19  C   UNL     1       1.766   5.253  20.708  0.00  0.00    +0.000 A 
ATOM     20  C   UNL     1       0.716   4.362  20.490  0.00  0.00    +0.000 A 
ATOM     21  C   UNL     1       0.957   3.143  19.857  0.00  0.00    +0.000 A 
ATOM     22  C   UNL     1       2.252   2.802  19.443  0.00  0.00    +0.000 A 
ATOM     23 CL   UNL     1       2.487   1.242  18.660  0.00  0.00    +0.000 Cl
ENDBRANCH  16  17
ENDBRANCH  10  16
TORSDOF 5
ENDMDL
