MODEL 1
REMARK VINA RESULT:      -8.6      0.000      0.000
REMARK  Name = 
REMARK  4 active torsions:
REMARK  status: ('A' for Active; 'I' for Inactive)
REMARK    1  A    between atoms: C_2  and  C_23
REMARK    2  A    between atoms: N_3  and  C_4
REMARK    3  A    between atoms: C_7  and  N_8
REMARK    4  A    between atoms: C_9  and  C_11
REMARK                            x       y       z     vdW  Elec       q    Type
REMARK                         _______ _______ _______ _____ _____    ______ ____
ROOT
ATOM      1  C   UNL     1       2.422   7.467  19.139  0.00  0.00    +0.000 A 
ATOM      2  C   UNL     1       2.988   8.170  18.083  0.00  0.00    +0.000 A 
ATOM      3  C   UNL     1       3.679   7.522  17.076  0.00  0.00    +0.000 A 
ATOM      4  C   UNL     1       3.852   6.140  17.088  0.00  0.00    +0.000 A 
ATOM      5  C   UNL     1       3.327   5.379  18.187  0.00  0.00    +0.000 A 
ATOM      6  C   UNL     1       3.466   3.967  18.298  0.00  0.00    +0.000 A 
ATOM      7  C   UNL     1       2.937   3.237  19.368  0.00  0.00    +0.000 A 
ATOM      8  C   UNL     1       2.252   3.893  20.371  0.00  0.00    +0.000 A 
ATOM      9  C   UNL     1       2.094   5.277  20.301  0.00  0.00    +0.000 A 
ATOM     10  C   UNL     1       2.613   6.054  19.228  0.00  0.00    +0.000 A 
ENDROOT
BRANCH   1  13
ATOM     11  O   UNL     1       0.633   9.813  18.797  0.00  0.00    +0.000 OA
ATOM     12  C   UNL     1       0.863   9.278  19.874  0.00  0.00    +0.000 C 
ATOM     13  N   UNL     1       1.664   8.170  20.111  0.00  0.00    +0.000 N 
ATOM     14  H   UNL     1       1.574   7.743  21.018  0.00  0.00    +0.000 HD
BRANCH  12  15
ATOM     15  C   UNL     1       0.159   9.807  21.066  0.00  0.00    +0.000 A 
ATOM     16  C   UNL     1      -0.558  11.003  20.937  0.00  0.00    +0.000 A 
ATOM     17  C   UNL     1      -1.226  11.532  22.038  0.00  0.00    +0.000 A 
ATOM     18  C   UNL     1      -1.172  10.874  23.266  0.00  0.00    +0.000 A 
ATOM     19  C   UNL     1      -0.446   9.688  23.399  0.00  0.00    +0.000 A 
ATOM     20  C   UNL     1       0.226   9.155  22.302  0.00  0.00    +0.000 A 
ENDBRANCH  12  15
ENDBRANCH   1  13
BRANCH   4  21
ATOM     21  N   UNL     1       4.529   5.506  16.005  0.00  0.00    +0.000 N 
ATOM     22  C   UNL     1       5.872   5.637  15.667  0.00  0.00    +0.000 C 
ATOM     23  O   UNL     1       6.720   6.297  16.257  0.00  0.00    +0.000 OA
ATOM     24  H   UNL     1       3.954   4.976  15.371  0.00  0.00    +0.000 HD
BRANCH  22  25
ATOM     25  C   UNL     1       6.316   4.938  14.430  0.00  0.00    +0.000 A 
ATOM     26  C   UNL     1       7.470   5.418  13.792  0.00  0.00    +0.000 A 
ATOM     27  C   UNL     1       7.929   4.821  12.618  0.00  0.00    +0.000 A 
ATOM     28  C   UNL     1       7.243   3.734  12.084  0.00  0.00    +0.000 A 
ATOM     29  C   UNL     1       6.110   3.232  12.727  0.00  0.00    +0.000 A 
ATOM     30  C   UNL     1       5.647   3.827  13.904  0.00  0.00    +0.000 A 
ENDBRANCH  22  25
ENDBRANCH   4  21
TORSDOF 4
ENDMDL
MODEL 2
REMARK VINA RESULT:      -8.5      0.115      1.297
REMARK  Name = 
REMARK  4 active torsions:
REMARK  status: ('A' for Active; 'I' for Inactive)
REMARK    1  A    between atoms: C_2  and  C_23
REMARK    2  A    between atoms: N_3  and  C_4
REMARK    3  A    between atoms: C_7  and  N_8
REMARK    4  A    between atoms: C_9  and  C_11
REMARK                            x       y       z     vdW  Elec       q    Type
REMARK                         _______ _______ _______ _____ _____    ______ ____
ROOT
ATOM      1  C   UNL     1       2.422   7.538  19.099  0.00  0.00    +0.000 A 
ATOM      2  C   UNL     1       2.952   8.240  18.025  0.00  0.00    +0.000 A 
ATOM      3  C   UNL     1       3.648   7.597  17.018  0.00  0.00    +0.000 A 
ATOM      4  C   UNL     1       3.861   6.220  17.048  0.00  0.00    +0.000 A 
ATOM      5  C   UNL     1       3.374   5.462  18.166  0.00  0.00    +0.000 A 
ATOM      6  C   UNL     1       3.555   4.057  18.296  0.00  0.00    +0.000 A 
ATOM      7  C   UNL     1       3.063   3.328  19.384  0.00  0.00    +0.000 A 
ATOM      8  C   UNL     1       2.373   3.979  20.386  0.00  0.00    +0.000 A 
ATOM      9  C   UNL     1       2.173   5.357  20.298  0.00  0.00    +0.000 A 
ATOM     10  C   UNL     1       2.655   6.132  19.207  0.00  0.00    +0.000 A 
ENDROOT
BRANCH   1  13
ATOM     11  O   UNL     1       0.686   9.925  18.774  0.00  0.00    +0.000 OA
ATOM     12  C   UNL     1       0.883   9.362  19.842  0.00  0.00    +0.000 C 
ATOM     13  N   UNL     1       1.657   8.233  20.070  0.00  0.00    +0.000 N 
ATOM     14  H   UNL     1       1.540   7.788  20.966  0.00  0.00    +0.000 HD
BRANCH  12  15
ATOM     15  C   UNL     1       0.164   9.877  21.032  0.00  0.00    +0.000 A 
ATOM     16  C   UNL     1       0.244   9.146  22.224  0.00  0.00    +0.000 A 
ATOM     17  C   UNL     1      -0.423   9.597  23.359  0.00  0.00    +0.000 A 
ATOM     18  C   UNL     1      -1.176  10.770  23.303  0.00  0.00    +0.000 A 
ATOM     19  C   UNL     1      -1.267  11.492  22.112  0.00  0.00    +0.000 A 
ATOM     20  C   UNL     1      -0.603  11.045  20.973  0.00  0.00    +0.000 A 
ENDBRANCH  12  15
ENDBRANCH   1  13
BRANCH   4  21
ATOM     21  N   UNL     1       4.542   5.589  15.965  0.00  0.00    +0.000 N 
ATOM     22  C   UNL     1       5.898   5.673  15.669  0.00  0.00    +0.000 C 
ATOM     23  O   UNL     1       6.756   6.278  16.301  0.00  0.00    +0.000 OA
ATOM     24  H   UNL     1       3.963   5.103  15.300  0.00  0.00    +0.000 HD
BRANCH  22  25
ATOM     25  C   UNL     1       6.347   4.991  14.424  0.00  0.00    +0.000 A 
ATOM     26  C   UNL     1       5.543   3.955  13.924  0.00  0.00    +0.000 A 
ATOM     27  C   UNL     1       5.916   3.261  12.774  0.00  0.00    +0.000 A 
ATOM     28  C   UNL     1       7.090   3.608  12.110  0.00  0.00    +0.000 A 
ATOM     29  C   UNL     1       7.882   4.655  12.584  0.00  0.00    +0.000 A 
ATOM     30  C   UNL     1       7.511   5.354  13.737  0.00  0.00    +0.000 A 
ENDBRANCH  22  25
ENDBRANCH   4  21
TORSDOF 4
ENDMDL
MODEL 3
REMARK VINA RESULT:      -8.3      3.833      9.021
REMARK  Name = 
REMARK  4 active torsions:
REMARK  status: ('A' for Active; 'I' for Inactive)
REMARK    1  A    between atoms: C_2  and  C_23
REMARK    2  A    between atoms: N_3  and  C_4
REMARK    3  A    between atoms: C_7  and  N_8
REMARK    4  A    between atoms: C_9  and  C_11
REMARK                            x       y       z     vdW  Elec       q    Type
REMARK                         _______ _______ _______ _____ _____    ______ ____
ROOT
ATOM      1  C   UNL     1       1.451   8.600  19.828  0.00  0.00    +0.000 A 
ATOM      2  C   UNL     1       1.853   9.133  18.610  0.00  0.00    +0.000 A 
ATOM      3  C   UNL     1       1.640  10.464  18.301  0.00  0.00    +0.000 A 
ATOM      4  C   UNL     1       0.998  11.322  19.191  0.00  0.00    +0.000 A 
ATOM      5  C   UNL     1       0.521  10.801  20.442  0.00  0.00    +0.000 A 
ATOM      6  C   UNL     1      -0.160  11.593  21.408  0.00  0.00    +0.000 A 
ATOM      7  C   UNL     1      -0.607  11.076  22.630  0.00  0.00    +0.000 A 
ATOM      8  C   UNL     1      -0.394   9.746  22.928  0.00  0.00    +0.000 A 
ATOM      9  C   UNL     1       0.269   8.934  22.007  0.00  0.00    +0.000 A 
ATOM     10  C   UNL     1       0.742   9.423  20.757  0.00  0.00    +0.000 A 
ENDROOT
BRANCH   1  13
ATOM     11  O   UNL     1       3.267   6.722  18.416  0.00  0.00    +0.000 OA
ATOM     12  C   UNL     1       2.603   6.424  19.400  0.00  0.00    +0.000 C 
ATOM     13  N   UNL     1       1.754   7.247  20.126  0.00  0.00    +0.000 N 
ATOM     14  H   UNL     1       1.453   6.897  21.021  0.00  0.00    +0.000 HD
BRANCH  12  15
ATOM     15  C   UNL     1       2.762   5.054  19.945  0.00  0.00    +0.000 A 
ATOM     16  C   UNL     1       1.921   4.656  20.992  0.00  0.00    +0.000 A 
ATOM     17  C   UNL     1       2.046   3.379  21.533  0.00  0.00    +0.000 A 
ATOM     18  C   UNL     1       3.014   2.505  21.036  0.00  0.00    +0.000 A 
ATOM     19  C   UNL     1       3.861   2.907  20.001  0.00  0.00    +0.000 A 
ATOM     20  C   UNL     1       3.742   4.183  19.457  0.00  0.00    +0.000 A 
ENDBRANCH  12  15
ENDBRANCH   1  13
BRANCH   4  21
ATOM     21  N   UNL     1       0.842  12.698  18.853  0.00  0.00    +0.000 N 
ATOM     22  C   UNL     1       1.728  13.732  19.132  0.00  0.00    +0.000 C 
ATOM     23  O   UNL     1       2.816  13.643  19.690  0.00  0.00    +0.000 OA
ATOM     24  H   UNL     1      -0.042  12.958  18.446  0.00  0.00    +0.000 HD
BRANCH  22  25
ATOM     25  C   UNL     1       1.288  15.103  18.751  0.00  0.00    +0.000 A 
ATOM     26  C   UNL     1      -0.085  15.386  18.817  0.00  0.00    +0.000 A 
ATOM     27  C   UNL     1      -0.566  16.643  18.455  0.00  0.00    +0.000 A 
ATOM     28  C   UNL     1       0.325  17.628  18.037  0.00  0.00    +0.000 A 
ATOM     29  C   UNL     1       1.695  17.364  17.995  0.00  0.00    +0.000 A 
ATOM     30  C   UNL     1       2.181  16.106  18.358  0.00  0.00    +0.000 A 
ENDBRANCH  22  25
ENDBRANCH   4  21
TORSDOF 4
ENDMDL
MODEL 4
REMARK VINA RESULT:      -8.2      3.849      9.010
REMARK  Name = 
REMARK  4 active torsions:
REMARK  status: ('A' for Active; 'I' for Inactive)
REMARK    1  A    between atoms: C_2  and  C_23
REMARK    2  A    between atoms: N_3  and  C_4
REMARK    3  A    between atoms: C_7  and  N_8
REMARK    4  A    between atoms: C_9  and  C_11
REMARK                            x       y       z     vdW  Elec       q    Type
REMARK                         _______ _______ _______ _____ _____    ______ ____
ROOT
ATOM      1  C   UNL     1       1.355   8.580  19.978  0.00  0.00    +0.000 A 
ATOM      2  C   UNL     1       1.735   9.128  18.760  0.00  0.00    +0.000 A 
ATOM      3  C   UNL     1       1.494  10.457  18.463  0.00  0.00    +0.000 A 
ATOM      4  C   UNL     1       0.846  11.297  19.365  0.00  0.00    +0.000 A 
ATOM      5  C   UNL     1       0.392  10.759  20.617  0.00  0.00    +0.000 A 
ATOM      6  C   UNL     1      -0.294  11.532  21.596  0.00  0.00    +0.000 A 
ATOM      7  C   UNL     1      -0.719  10.999  22.818  0.00  0.00    +0.000 A 
ATOM      8  C   UNL     1      -0.478   9.670  23.105  0.00  0.00    +0.000 A 
ATOM      9  C   UNL     1       0.190   8.877  22.171  0.00  0.00    +0.000 A 
ATOM     10  C   UNL     1       0.641   9.383  20.921  0.00  0.00    +0.000 A 
ENDROOT
BRANCH   1  13
ATOM     11  O   UNL     1       3.194   6.747  18.537  0.00  0.00    +0.000 OA
ATOM     12  C   UNL     1       2.544   6.429  19.524  0.00  0.00    +0.000 C 
ATOM     13  N   UNL     1       1.686   7.231  20.263  0.00  0.00    +0.000 N 
ATOM     14  H   UNL     1       1.399   6.868  21.157  0.00  0.00    +0.000 HD
BRANCH  12  15
ATOM     15  C   UNL     1       2.733   5.059  20.057  0.00  0.00    +0.000 A 
ATOM     16  C   UNL     1       3.660   4.222  19.422  0.00  0.00    +0.000 A 
ATOM     17  C   UNL     1       3.859   2.927  19.892  0.00  0.00    +0.000 A 
ATOM     18  C   UNL     1       3.128   2.464  20.986  0.00  0.00    +0.000 A 
ATOM     19  C   UNL     1       2.194   3.293  21.611  0.00  0.00    +0.000 A 
ATOM     20  C   UNL     1       1.989   4.589  21.145  0.00  0.00    +0.000 A 
ENDBRANCH  12  15
ENDBRANCH   1  13
BRANCH   4  21
ATOM     21  N   UNL     1       0.662  12.673  19.039  0.00  0.00    +0.000 N 
ATOM     22  C   UNL     1       1.628  13.672  19.055  0.00  0.00    +0.000 C 
ATOM     23  O   UNL     1       2.818  13.545  19.321  0.00  0.00    +0.000 OA
ATOM     24  H   UNL     1      -0.286  12.964  18.862  0.00  0.00    +0.000 HD
BRANCH  22  25
ATOM     25  C   UNL     1       1.158  15.054  18.759  0.00  0.00    +0.000 A 
ATOM     26  C   UNL     1       2.133  16.027  18.488  0.00  0.00    +0.000 A 
ATOM     27  C   UNL     1       1.762  17.344  18.223  0.00  0.00    +0.000 A 
ATOM     28  C   UNL     1       0.414  17.693  18.217  0.00  0.00    +0.000 A 
ATOM     29  C   UNL     1      -0.563  16.727  18.459  0.00  0.00    +0.000 A 
ATOM     30  C   UNL     1      -0.196  15.404  18.724  0.00  0.00    +0.000 A 
ENDBRANCH  22  25
ENDBRANCH   4  21
TORSDOF 4
ENDMDL
MODEL 5
REMARK VINA RESULT:      -8.2      3.823      6.709
REMARK  Name = 
REMARK  4 active torsions:
REMARK  status: ('A' for Active; 'I' for Inactive)
REMARK    1  A    between atoms: C_2  and  C_23
REMARK    2  A    between atoms: N_3  and  C_4
REMARK    3  A    between atoms: C_7  and  N_8
REMARK    4  A    between atoms: C_9  and  C_11
REMARK                            x       y       z     vdW  Elec       q    Type
REMARK                         _______ _______ _______ _____ _____    ______ ____
ROOT
ATOM      1  C   UNL     1       0.955  11.457  19.327  0.00  0.00    +0.000 A 
ATOM      2  C   UNL     1       1.640  10.648  18.429  0.00  0.00    +0.000 A 
ATOM      3  C   UNL     1       1.816   9.297  18.668  0.00  0.00    +0.000 A 
ATOM      4  C   UNL     1       1.329   8.695  19.825  0.00  0.00    +0.000 A 
ATOM      5  C   UNL     1       0.659   9.504  20.805  0.00  0.00    +0.000 A 
ATOM      6  C   UNL     1       0.141   8.985  22.025  0.00  0.00    +0.000 A 
ATOM      7  C   UNL     1      -0.523   9.782  22.964  0.00  0.00    +0.000 A 
ATOM      8  C   UNL     1      -0.690  11.130  22.720  0.00  0.00    +0.000 A 
ATOM      9  C   UNL     1      -0.197  11.679  21.536  0.00  0.00    +0.000 A 
ATOM     10  C   UNL     1       0.479  10.902  20.555  0.00  0.00    +0.000 A 
ENDROOT
BRANCH   1  13
ATOM     11  O   UNL     1       2.771  13.781  19.672  0.00  0.00    +0.000 OA
ATOM     12  C   UNL     1       1.637  13.859  19.219  0.00  0.00    +0.000 C 
ATOM     13  N   UNL     1       0.741  12.822  19.005  0.00  0.00    +0.000 N 
ATOM     14  H   UNL     1      -0.061  13.037  18.436  0.00  0.00    +0.000 HD
BRANCH  12  15
ATOM     15  C   UNL     1       1.170  15.191  18.767  0.00  0.00    +0.000 A 
ATOM     16  C   UNL     1       2.127  16.121  18.341  0.00  0.00    +0.000 A 
ATOM     17  C   UNL     1       1.725  17.384  17.916  0.00  0.00    +0.000 A 
ATOM     18  C   UNL     1       0.371  17.722  17.923  0.00  0.00    +0.000 A 
ATOM     19  C   UNL     1      -0.582  16.800  18.360  0.00  0.00    +0.000 A 
ATOM     20  C   UNL     1      -0.186  15.536  18.788  0.00  0.00    +0.000 A 
ENDBRANCH  12  15
ENDBRANCH   1  13
BRANCH   4  21
ATOM     21  N   UNL     1       1.490   7.290  20.009  0.00  0.00    +0.000 N 
ATOM     22  C   UNL     1       2.443   6.473  19.411  0.00  0.00    +0.000 C 
ATOM     23  O   UNL     1       3.335   6.818  18.644  0.00  0.00    +0.000 OA
ATOM     24  H   UNL     1       0.785   6.831  20.563  0.00  0.00    +0.000 HD
BRANCH  22  25
ATOM     25  C   UNL     1       2.342   5.016  19.699  0.00  0.00    +0.000 A 
ATOM     26  C   UNL     1       1.338   4.598  20.587  0.00  0.00    +0.000 A 
ATOM     27  C   UNL     1       1.201   3.250  20.915  0.00  0.00    +0.000 A 
ATOM     28  C   UNL     1       2.059   2.312  20.349  0.00  0.00    +0.000 A 
ATOM     29  C   UNL     1       3.043   2.715  19.444  0.00  0.00    +0.000 A 
ATOM     30  C   UNL     1       3.183   4.065  19.111  0.00  0.00    +0.000 A 
ENDBRANCH  22  25
ENDBRANCH   4  21
TORSDOF 4
ENDMDL
MODEL 6
REMARK VINA RESULT:      -8.2      4.192      6.910
REMARK  Name = 
REMARK  4 active torsions:
REMARK  status: ('A' for Active; 'I' for Inactive)
REMARK    1  A    between atoms: C_2  and  C_23
REMARK    2  A    between atoms: N_3  and  C_4
REMARK    3  A    between atoms: C_7  and  N_8
REMARK    4  A    between atoms: C_9  and  C_11
REMARK                            x       y       z     vdW  Elec       q    Type
REMARK                         _______ _______ _______ _____ _____    ______ ____
ROOT
ATOM      1  C   UNL     1       0.879  11.575  19.476  0.00  0.00    +0.000 A 
ATOM      2  C   UNL     1       1.562  10.730  18.611  0.00  0.00    +0.000 A 
ATOM      3  C   UNL     1       1.705   9.382  18.885  0.00  0.00    +0.000 A 
ATOM      4  C   UNL     1       1.184   8.819  20.048  0.00  0.00    +0.000 A 
ATOM      5  C   UNL     1       0.514   9.666  20.995  0.00  0.00    +0.000 A 
ATOM      6  C   UNL     1      -0.036   9.188  22.218  0.00  0.00    +0.000 A 
ATOM      7  C   UNL     1      -0.699  10.022  23.125  0.00  0.00    +0.000 A 
ATOM      8  C   UNL     1      -0.833  11.367  22.845  0.00  0.00    +0.000 A 
ATOM      9  C   UNL     1      -0.307  11.876  21.657  0.00  0.00    +0.000 A 
ATOM     10  C   UNL     1       0.370  11.061  20.708  0.00  0.00    +0.000 A 
ENDROOT
BRANCH   1  13
ATOM     11  O   UNL     1       2.710  13.881  19.863  0.00  0.00    +0.000 OA
ATOM     12  C   UNL     1       1.601  13.965  19.353  0.00  0.00    +0.000 C 
ATOM     13  N   UNL     1       0.701  12.935  19.117  0.00  0.00    +0.000 N 
ATOM     14  H   UNL     1      -0.070  13.150  18.505  0.00  0.00    +0.000 HD
BRANCH  12  15
ATOM     15  C   UNL     1       1.175  15.294  18.853  0.00  0.00    +0.000 A 
ATOM     16  C   UNL     1      -0.195  15.587  18.832  0.00  0.00    +0.000 A 
ATOM     17  C   UNL     1      -0.631  16.823  18.362  0.00  0.00    +0.000 A 
ATOM     18  C   UNL     1       0.296  17.760  17.907  0.00  0.00    +0.000 A 
ATOM     19  C   UNL     1       1.660  17.463  17.915  0.00  0.00    +0.000 A 
ATOM     20  C   UNL     1       2.103  16.229  18.382  0.00  0.00    +0.000 A 
ENDBRANCH  12  15
ENDBRANCH   1  13
BRANCH   4  21
ATOM     21  N   UNL     1       1.311   7.416  20.269  0.00  0.00    +0.000 N 
ATOM     22  C   UNL     1       2.144   6.535  19.588  0.00  0.00    +0.000 C 
ATOM     23  O   UNL     1       2.941   6.810  18.698  0.00  0.00    +0.000 OA
ATOM     24  H   UNL     1       0.667   7.010  20.928  0.00  0.00    +0.000 HD
BRANCH  22  25
ATOM     25  C   UNL     1       2.022   5.095  19.948  0.00  0.00    +0.000 A 
ATOM     26  C   UNL     1       1.749   4.188  18.913  0.00  0.00    +0.000 A 
ATOM     27  C   UNL     1       1.603   2.828  19.184  0.00  0.00    +0.000 A 
ATOM     28  C   UNL     1       1.741   2.367  20.491  0.00  0.00    +0.000 A 
ATOM     29  C   UNL     1       2.040   3.259  21.522  0.00  0.00    +0.000 A 
ATOM     30  C   UNL     1       2.188   4.622  21.255  0.00  0.00    +0.000 A 
ENDBRANCH  22  25
ENDBRANCH   4  21
TORSDOF 4
ENDMDL
MODEL 7
REMARK VINA RESULT:      -8.1      3.450      5.856
REMARK  Name = 
REMARK  4 active torsions:
REMARK  status: ('A' for Active; 'I' for Inactive)
REMARK    1  A    between atoms: C_2  and  C_23
REMARK    2  A    between atoms: N_3  and  C_4
REMARK    3  A    between atoms: C_7  and  N_8
REMARK    4  A    between atoms: C_9  and  C_11
REMARK                            x       y       z     vdW  Elec       q    Type
REMARK                         _______ _______ _______ _____ _____    ______ ____
ROOT
ATOM      1  C   UNL     1       1.241  11.266  18.931  0.00  0.00    +0.000 A 
ATOM      2  C   UNL     1       1.856  10.648  17.849  0.00  0.00    +0.000 A 
ATOM      3  C   UNL     1       2.066   9.282  17.825  0.00  0.00    +0.000 A 
ATOM      4  C   UNL     1       1.684   8.470  18.890  0.00  0.00    +0.000 A 
ATOM      5  C   UNL     1       1.090   9.073  20.051  0.00  0.00    +0.000 A 
ATOM      6  C   UNL     1       0.683   8.331  21.195  0.00  0.00    +0.000 A 
ATOM      7  C   UNL     1       0.093   8.930  22.313  0.00  0.00    +0.000 A 
ATOM      8  C   UNL     1      -0.108  10.295  22.331  0.00  0.00    +0.000 A 
ATOM      9  C   UNL     1       0.277  11.060  21.230  0.00  0.00    +0.000 A 
ATOM     10  C   UNL     1       0.877  10.488  20.073  0.00  0.00    +0.000 A 
ENDROOT
BRANCH   1  13
ATOM     11  O   UNL     1       3.152  13.520  18.634  0.00  0.00    +0.000 OA
ATOM     12  C   UNL     1       1.943  13.659  18.760  0.00  0.00    +0.000 C 
ATOM     13  N   UNL     1       0.987  12.660  18.879  0.00  0.00    +0.000 N 
ATOM     14  H   UNL     1       0.028  12.947  18.764  0.00  0.00    +0.000 HD
BRANCH  12  15
ATOM     15  C   UNL     1       1.402  15.038  18.706  0.00  0.00    +0.000 A 
ATOM     16  C   UNL     1       0.023  15.217  18.873  0.00  0.00    +0.000 A 
ATOM     17  C   UNL     1      -0.521  16.497  18.822  0.00  0.00    +0.000 A 
ATOM     18  C   UNL     1       0.309  17.596  18.596  0.00  0.00    +0.000 A 
ATOM     19  C   UNL     1       1.682  17.417  18.416  0.00  0.00    +0.000 A 
ATOM     20  C   UNL     1       2.231  16.139  18.465  0.00  0.00    +0.000 A 
ENDBRANCH  12  15
ENDBRANCH   1  13
BRANCH   4  21
ATOM     21  N   UNL     1       1.874   7.059  18.804  0.00  0.00    +0.000 N 
ATOM     22  C   UNL     1       2.956   6.395  18.236  0.00  0.00    +0.000 C 
ATOM     23  O   UNL     1       3.954   6.902  17.737  0.00  0.00    +0.000 OA
ATOM     24  H   UNL     1       1.103   6.488  19.109  0.00  0.00    +0.000 HD
BRANCH  22  25
ATOM     25  C   UNL     1       2.872   4.909  18.190  0.00  0.00    +0.000 A 
ATOM     26  C   UNL     1       1.621   4.322  18.435  0.00  0.00    +0.000 A 
ATOM     27  C   UNL     1       1.477   2.935  18.427  0.00  0.00    +0.000 A 
ATOM     28  C   UNL     1       2.581   2.129  18.163  0.00  0.00    +0.000 A 
ATOM     29  C   UNL     1       3.823   2.705  17.891  0.00  0.00    +0.000 A 
ATOM     30  C   UNL     1       3.971   4.095  17.897  0.00  0.00    +0.000 A 
ENDBRANCH  22  25
ENDBRANCH   4  21
TORSDOF 4
ENDMDL
MODEL 8
REMARK VINA RESULT:      -8.0      3.211      5.799
REMARK  Name = 
REMARK  4 active torsions:
REMARK  status: ('A' for Active; 'I' for Inactive)
REMARK    1  A    between atoms: C_2  and  C_23
REMARK    2  A    between atoms: N_3  and  C_4
REMARK    3  A    between atoms: C_7  and  N_8
REMARK    4  A    between atoms: C_9  and  C_11
REMARK                            x       y       z     vdW  Elec       q    Type
REMARK                         _______ _______ _______ _____ _____    ______ ____
ROOT
ATOM      1  C   UNL     1      -0.297  10.482  21.829  0.00  0.00    +0.000 A 
ATOM      2  C   UNL     1       0.575   9.623  22.486  0.00  0.00    +0.000 A 
ATOM      3  C   UNL     1       1.342   8.706  21.790  0.00  0.00    +0.000 A 
ATOM      4  C   UNL     1       1.259   8.593  20.405  0.00  0.00    +0.000 A 
ATOM      5  C   UNL     1       0.333   9.427  19.690  0.00  0.00    +0.000 A 
ATOM      6  C   UNL     1       0.164   9.375  18.278  0.00  0.00    +0.000 A 
ATOM      7  C   UNL     1      -0.732  10.203  17.593  0.00  0.00    +0.000 A 
ATOM      8  C   UNL     1      -1.497  11.112  18.296  0.00  0.00    +0.000 A 
ATOM      9  C   UNL     1      -1.362  11.195  19.682  0.00  0.00    +0.000 A 
ATOM     10  C   UNL     1      -0.460  10.374  20.414  0.00  0.00    +0.000 A 
ENDROOT
BRANCH   1  13
ATOM     11  O   UNL     1       0.230  13.389  22.134  0.00  0.00    +0.000 OA
ATOM     12  C   UNL     1      -0.686  12.796  22.690  0.00  0.00    +0.000 C 
ATOM     13  N   UNL     1      -1.010  11.451  22.580  0.00  0.00    +0.000 N 
ATOM     14  H   UNL     1      -1.911  11.181  22.939  0.00  0.00    +0.000 HD
BRANCH  12  15
ATOM     15  C   UNL     1      -1.615  13.597  23.522  0.00  0.00    +0.000 A 
ATOM     16  C   UNL     1      -2.937  13.152  23.655  0.00  0.00    +0.000 A 
ATOM     17  C   UNL     1      -3.840  13.883  24.423  0.00  0.00    +0.000 A 
ATOM     18  C   UNL     1      -3.426  15.057  25.051  0.00  0.00    +0.000 A 
ATOM     19  C   UNL     1      -2.112  15.508  24.909  0.00  0.00    +0.000 A 
ATOM     20  C   UNL     1      -1.206  14.783  24.140  0.00  0.00    +0.000 A 
ENDBRANCH  12  15
ENDBRANCH   1  13
BRANCH   4  21
ATOM     21  N   UNL     1       2.102   7.669  19.722  0.00  0.00    +0.000 N 
ATOM     22  C   UNL     1       2.142   6.290  19.894  0.00  0.00    +0.000 C 
ATOM     23  O   UNL     1       1.440   5.618  20.641  0.00  0.00    +0.000 OA
ATOM     24  H   UNL     1       2.799   8.068  19.114  0.00  0.00    +0.000 HD
BRANCH  22  25
ATOM     25  C   UNL     1       3.182   5.555  19.122  0.00  0.00    +0.000 A 
ATOM     26  C   UNL     1       2.769   4.863  17.972  0.00  0.00    +0.000 A 
ATOM     27  C   UNL     1       3.687   4.139  17.214  0.00  0.00    +0.000 A 
ATOM     28  C   UNL     1       5.026   4.111  17.596  0.00  0.00    +0.000 A 
ATOM     29  C   UNL     1       5.450   4.817  18.722  0.00  0.00    +0.000 A 
ATOM     30  C   UNL     1       4.533   5.546  19.484  0.00  0.00    +0.000 A 
ENDBRANCH  22  25
ENDBRANCH   4  21
TORSDOF 4
ENDMDL
MODEL 9
REMARK VINA RESULT:      -7.9      3.088      5.993
REMARK  Name = 
REMARK  4 active torsions:
REMARK  status: ('A' for Active; 'I' for Inactive)
REMARK    1  A    between atoms: C_2  and  C_23
REMARK    2  A    between atoms: N_3  and  C_4
REMARK    3  A    between atoms: C_7  and  N_8
REMARK    4  A    between atoms: C_9  and  C_11
REMARK                            x       y       z     vdW  Elec       q    Type
REMARK                         _______ _______ _______ _____ _____    ______ ____
ROOT
ATOM      1  C   UNL     1      -0.449  10.791  21.780  0.00  0.00    +0.000 A 
ATOM      2  C   UNL     1       0.458   9.960  22.424  0.00  0.00    +0.000 A 
ATOM      3  C   UNL     1       1.232   9.056  21.720  0.00  0.00    +0.000 A 
ATOM      4  C   UNL     1       1.120   8.928  20.337  0.00  0.00    +0.000 A 
ATOM      5  C   UNL     1       0.158   9.732  19.636  0.00  0.00    +0.000 A 
ATOM      6  C   UNL     1      -0.042   9.663  18.229  0.00  0.00    +0.000 A 
ATOM      7  C   UNL     1      -0.973  10.462  17.557  0.00  0.00    +0.000 A 
ATOM      8  C   UNL     1      -1.743  11.359  18.269  0.00  0.00    +0.000 A 
ATOM      9  C   UNL     1      -1.579  11.458  19.651  0.00  0.00    +0.000 A 
ATOM     10  C   UNL     1      -0.641  10.666  20.369  0.00  0.00    +0.000 A 
ENDROOT
BRANCH   1  13
ATOM     11  O   UNL     1       0.249  13.610  22.402  0.00  0.00    +0.000 OA
ATOM     12  C   UNL     1      -0.762  13.050  22.803  0.00  0.00    +0.000 C 
ATOM     13  N   UNL     1      -1.169  11.750  22.538  0.00  0.00    +0.000 N 
ATOM     14  H   UNL     1      -2.121  11.525  22.776  0.00  0.00    +0.000 HD
BRANCH  12  15
ATOM     15  C   UNL     1      -1.718  13.852  23.604  0.00  0.00    +0.000 A 
ATOM     16  C   UNL     1      -1.205  14.847  24.447  0.00  0.00    +0.000 A 
ATOM     17  C   UNL     1      -2.073  15.615  25.219  0.00  0.00    +0.000 A 
ATOM     18  C   UNL     1      -3.448  15.386  25.156  0.00  0.00    +0.000 A 
ATOM     19  C   UNL     1      -3.958  14.386  24.325  0.00  0.00    +0.000 A 
ATOM     20  C   UNL     1      -3.095  13.613  23.553  0.00  0.00    +0.000 A 
ENDBRANCH  12  15
ENDBRANCH   1  13
BRANCH   4  21
ATOM     21  N   UNL     1       1.971   8.018  19.643  0.00  0.00    +0.000 N 
ATOM     22  C   UNL     1       2.150   6.667  19.919  0.00  0.00    +0.000 C 
ATOM     23  O   UNL     1       1.588   6.009  20.787  0.00  0.00    +0.000 OA
ATOM     24  H   UNL     1       2.565   8.417  18.935  0.00  0.00    +0.000 HD
BRANCH  22  25
ATOM     25  C   UNL     1       3.169   5.953  19.101  0.00  0.00    +0.000 A 
ATOM     26  C   UNL     1       3.700   4.761  19.619  0.00  0.00    +0.000 A 
ATOM     27  C   UNL     1       4.671   4.054  18.914  0.00  0.00    +0.000 A 
ATOM     28  C   UNL     1       5.110   4.528  17.680  0.00  0.00    +0.000 A 
ATOM     29  C   UNL     1       4.568   5.698  17.144  0.00  0.00    +0.000 A 
ATOM     30  C   UNL     1       3.593   6.410  17.848  0.00  0.00    +0.000 A 
ENDBRANCH  22  25
ENDBRANCH   4  21
TORSDOF 4
ENDMDL
