MODEL 1
REMARK VINA RESULT:      -6.3      0.000      0.000
REMARK  Name = 
REMARK  6 active torsions:
REMARK  status: ('A' for Active; 'I' for Inactive)
REMARK    1  A    between atoms: C_1  and  C_2
REMARK    2  A    between atoms: C_2  and  N_3
REMARK    3  A    between atoms: C_11  and  N_12
REMARK    4  A    between atoms: N_12  and  C_13
REMARK    5  A    between atoms: C_13  and  C_14
REMARK    6  A    between atoms: C_17  and  C_18
REMARK                            x       y       z     vdW  Elec       q    Type
REMARK                         _______ _______ _______ _____ _____    ______ ____
ROOT
ATOM      1  N   UNL     1       5.139   5.451  17.732  0.00  0.00    +0.000 N 
ATOM      2  N   UNL     1       4.923   6.590  17.051  0.00  0.00    +0.000 NA
ATOM      3  C   UNL     1       3.783   7.048  17.560  0.00  0.00    +0.000 A 
ATOM      4  C   UNL     1       3.291   6.253  18.622  0.00  0.00    +0.000 A 
ATOM      5  C   UNL     1       4.173   5.199  18.669  0.00  0.00    +0.000 A 
ATOM      6  C   UNL     1       4.081   3.990  19.504  0.00  0.00    +0.000 C 
ATOM      7  C   UNL     1       2.806   3.950  20.352  0.00  0.00    +0.000 C 
ATOM      8  C   UNL     1       1.805   5.127  20.330  0.00  0.00    +0.000 C 
ATOM      9  C   UNL     1       2.081   6.398  19.470  0.00  0.00    +0.000 C 
ENDROOT
BRANCH   1  11
ATOM     10  C   UNL     1       7.523   5.009  18.032  0.00  0.00    +0.000 C 
ATOM     11  C   UNL     1       6.241   4.600  17.328  0.00  0.00    +0.000 C 
ENDBRANCH   1  11
BRANCH   9  12
ATOM     12  N   UNL     1       2.187   7.544  20.382  0.00  0.00    +0.000 NA
ATOM     13  H   UNL     1       3.166   7.810  20.483  0.00  0.00    +0.000 HD
BRANCH  12  14
ATOM     14  C   UNL     1       1.418   8.711  19.952  0.00  0.00    +0.000 C 
BRANCH  14  15
ATOM     15  C   UNL     1       0.698   9.347  21.098  0.00  0.00    +0.000 A 
ATOM     16  C   UNL     1       0.436   8.842  22.354  0.00  0.00    +0.000 A 
ATOM     17  C   UNL     1      -0.329   9.748  23.147  0.00  0.00    +0.000 A 
ATOM     18  C   UNL     1      -0.622  10.914  22.477  0.00  0.00    +0.000 A 
ATOM     19  C   UNL     1      -1.395  12.098  22.940  0.00  0.00    +0.000 C 
ATOM     20  S   UNL     1       0.025  10.911  20.897  0.00  0.00    +0.000 S 
ENDBRANCH  14  15
ENDBRANCH  12  14
ENDBRANCH   9  12
TORSDOF 4
ENDMDL
MODEL 2
REMARK VINA RESULT:      -6.3      4.562      6.856
REMARK  Name = 
REMARK  6 active torsions:
REMARK  status: ('A' for Active; 'I' for Inactive)
REMARK    1  A    between atoms: C_1  and  C_2
REMARK    2  A    between atoms: C_2  and  N_3
REMARK    3  A    between atoms: C_11  and  N_12
REMARK    4  A    between atoms: N_12  and  C_13
REMARK    5  A    between atoms: C_13  and  C_14
REMARK    6  A    between atoms: C_17  and  C_18
REMARK                            x       y       z     vdW  Elec       q    Type
REMARK                         _______ _______ _______ _____ _____    ______ ____
ROOT
ATOM      1  N   UNL     1       3.194   2.665  20.095  0.00  0.00    +0.000 N 
ATOM      2  N   UNL     1       3.275   1.476  19.473  0.00  0.00    +0.000 NA
ATOM      3  C   UNL     1       3.623   1.797  18.230  0.00  0.00    +0.000 A 
ATOM      4  C   UNL     1       3.843   3.183  18.055  0.00  0.00    +0.000 A 
ATOM      5  C   UNL     1       3.504   3.718  19.276  0.00  0.00    +0.000 A 
ATOM      6  C   UNL     1       3.417   5.142  19.637  0.00  0.00    +0.000 C 
ATOM      7  C   UNL     1       3.699   6.073  18.454  0.00  0.00    +0.000 C 
ATOM      8  C   UNL     1       4.096   5.501  17.076  0.00  0.00    +0.000 C 
ATOM      9  C   UNL     1       4.250   3.964  16.860  0.00  0.00    +0.000 C 
ENDROOT
BRANCH   1  11
ATOM     10  C   UNL     1       1.181   2.891  21.461  0.00  0.00    +0.000 C 
ATOM     11  C   UNL     1       2.687   2.704  21.453  0.00  0.00    +0.000 C 
ENDBRANCH   1  11
BRANCH   9  12
ATOM     12  N   UNL     1       5.645   3.700  16.484  0.00  0.00    +0.000 NA
ATOM     13  H   UNL     1       5.676   2.943  15.802  0.00  0.00    +0.000 HD
BRANCH  12  14
ATOM     14  C   UNL     1       6.338   4.864  15.935  0.00  0.00    +0.000 C 
BRANCH  14  15
ATOM     15  C   UNL     1       7.052   5.631  17.002  0.00  0.00    +0.000 A 
ATOM     16  C   UNL     1       7.492   5.207  18.238  0.00  0.00    +0.000 A 
ATOM     17  C   UNL     1       8.086   6.265  18.987  0.00  0.00    +0.000 A 
ATOM     18  C   UNL     1       8.087   7.458  18.301  0.00  0.00    +0.000 A 
ATOM     19  C   UNL     1       8.601   8.789  18.726  0.00  0.00    +0.000 C 
ATOM     20  S   UNL     1       7.372   7.299  16.760  0.00  0.00    +0.000 S 
ENDBRANCH  14  15
ENDBRANCH  12  14
ENDBRANCH   9  12
TORSDOF 4
ENDMDL
MODEL 3
REMARK VINA RESULT:      -6.3      2.258      2.751
REMARK  Name = 
REMARK  6 active torsions:
REMARK  status: ('A' for Active; 'I' for Inactive)
REMARK    1  A    between atoms: C_1  and  C_2
REMARK    2  A    between atoms: C_2  and  N_3
REMARK    3  A    between atoms: C_11  and  N_12
REMARK    4  A    between atoms: N_12  and  C_13
REMARK    5  A    between atoms: C_13  and  C_14
REMARK    6  A    between atoms: C_17  and  C_18
REMARK                            x       y       z     vdW  Elec       q    Type
REMARK                         _______ _______ _______ _____ _____    ______ ____
ROOT
ATOM      1  N   UNL     1       5.676   5.008  16.107  0.00  0.00    +0.000 N 
ATOM      2  N   UNL     1       5.836   6.341  16.035  0.00  0.00    +0.000 NA
ATOM      3  C   UNL     1       4.812   6.818  16.737  0.00  0.00    +0.000 A 
ATOM      4  C   UNL     1       4.026   5.802  17.331  0.00  0.00    +0.000 A 
ATOM      5  C   UNL     1       4.590   4.641  16.856  0.00  0.00    +0.000 A 
ATOM      6  C   UNL     1       4.102   3.265  17.044  0.00  0.00    +0.000 C 
ATOM      7  C   UNL     1       2.784   3.205  17.823  0.00  0.00    +0.000 C 
ATOM      8  C   UNL     1       2.136   4.491  18.381  0.00  0.00    +0.000 C 
ATOM      9  C   UNL     1       2.820   5.879  18.193  0.00  0.00    +0.000 C 
ENDROOT
BRANCH   1  11
ATOM     10  C   UNL     1       6.013   4.000  13.908  0.00  0.00    +0.000 C 
ATOM     11  C   UNL     1       6.550   4.162  15.318  0.00  0.00    +0.000 C 
ENDBRANCH   1  11
BRANCH   9  12
ATOM     12  N   UNL     1       3.133   6.411  19.525  0.00  0.00    +0.000 NA
ATOM     13  H   UNL     1       3.884   7.096  19.451  0.00  0.00    +0.000 HD
BRANCH  12  14
ATOM     14  C   UNL     1       1.991   7.028  20.198  0.00  0.00    +0.000 C 
BRANCH  14  15
ATOM     15  C   UNL     1       1.654   8.357  19.600  0.00  0.00    +0.000 A 
ATOM     16  C   UNL     1       2.028   8.888  18.385  0.00  0.00    +0.000 A 
ATOM     17  C   UNL     1       1.539  10.217  18.207  0.00  0.00    +0.000 A 
ATOM     18  C   UNL     1       0.805  10.654  19.286  0.00  0.00    +0.000 A 
ATOM     19  C   UNL     1       0.134  11.965  19.500  0.00  0.00    +0.000 C 
ATOM     20  S   UNL     1       0.710   9.464  20.507  0.00  0.00    +0.000 S 
ENDBRANCH  14  15
ENDBRANCH  12  14
ENDBRANCH   9  12
TORSDOF 4
ENDMDL
MODEL 4
REMARK VINA RESULT:      -6.3      4.492      8.444
REMARK  Name = 
REMARK  6 active torsions:
REMARK  status: ('A' for Active; 'I' for Inactive)
REMARK    1  A    between atoms: C_1  and  C_2
REMARK    2  A    between atoms: C_2  and  N_3
REMARK    3  A    between atoms: C_11  and  N_12
REMARK    4  A    between atoms: N_12  and  C_13
REMARK    5  A    between atoms: C_13  and  C_14
REMARK    6  A    between atoms: C_17  and  C_18
REMARK                            x       y       z     vdW  Elec       q    Type
REMARK                         _______ _______ _______ _____ _____    ______ ____
ROOT
ATOM      1  N   UNL     1       2.832   3.802  19.880  0.00  0.00    +0.000 N 
ATOM      2  N   UNL     1       3.064   2.543  19.469  0.00  0.00    +0.000 NA
ATOM      3  C   UNL     1       3.717   2.704  18.321  0.00  0.00    +0.000 A 
ATOM      4  C   UNL     1       3.978   4.061  18.017  0.00  0.00    +0.000 A 
ATOM      5  C   UNL     1       3.343   4.744  19.028  0.00  0.00    +0.000 A 
ATOM      6  C   UNL     1       3.172   6.201  19.155  0.00  0.00    +0.000 C 
ATOM      7  C   UNL     1       3.747   6.972  17.964  0.00  0.00    +0.000 C 
ATOM      8  C   UNL     1       4.478   6.232  16.822  0.00  0.00    +0.000 C 
ATOM      9  C   UNL     1       4.677   4.687  16.866  0.00  0.00    +0.000 C 
ENDROOT
BRANCH   1  11
ATOM     10  C   UNL     1       1.557   2.678  21.635  0.00  0.00    +0.000 C 
ATOM     11  C   UNL     1       1.999   4.007  21.049  0.00  0.00    +0.000 C 
ENDBRANCH   1  11
BRANCH   9  12
ATOM     12  N   UNL     1       6.121   4.419  16.893  0.00  0.00    +0.000 NA
ATOM     13  H   UNL     1       6.290   3.442  16.656  0.00  0.00    +0.000 HD
BRANCH  12  14
ATOM     14  C   UNL     1       6.894   5.268  15.989  0.00  0.00    +0.000 C 
BRANCH  14  15
ATOM     15  C   UNL     1       6.872   4.745  14.589  0.00  0.00    +0.000 A 
ATOM     16  C   UNL     1       7.630   5.127  13.502  0.00  0.00    +0.000 A 
ATOM     17  C   UNL     1       7.268   4.415  12.320  0.00  0.00    +0.000 A 
ATOM     18  C   UNL     1       6.253   3.513  12.541  0.00  0.00    +0.000 A 
ATOM     19  C   UNL     1       5.588   2.590  11.581  0.00  0.00    +0.000 C 
ATOM     20  S   UNL     1       5.741   3.527  14.169  0.00  0.00    +0.000 S 
ENDBRANCH  14  15
ENDBRANCH  12  14
ENDBRANCH   9  12
TORSDOF 4
ENDMDL
MODEL 5
REMARK VINA RESULT:      -6.2      1.330      1.529
REMARK  Name = 
REMARK  6 active torsions:
REMARK  status: ('A' for Active; 'I' for Inactive)
REMARK    1  A    between atoms: C_1  and  C_2
REMARK    2  A    between atoms: C_2  and  N_3
REMARK    3  A    between atoms: C_11  and  N_12
REMARK    4  A    between atoms: N_12  and  C_13
REMARK    5  A    between atoms: C_13  and  C_14
REMARK    6  A    between atoms: C_17  and  C_18
REMARK                            x       y       z     vdW  Elec       q    Type
REMARK                         _______ _______ _______ _____ _____    ______ ____
ROOT
ATOM      1  N   UNL     1       5.718   5.339  16.678  0.00  0.00    +0.000 N 
ATOM      2  N   UNL     1       5.746   6.640  16.341  0.00  0.00    +0.000 NA
ATOM      3  C   UNL     1       4.572   7.098  16.765  0.00  0.00    +0.000 A 
ATOM      4  C   UNL     1       3.807   6.120  17.444  0.00  0.00    +0.000 A 
ATOM      5  C   UNL     1       4.564   4.979  17.321  0.00  0.00    +0.000 A 
ATOM      6  C   UNL     1       4.199   3.613  17.730  0.00  0.00    +0.000 C 
ATOM      7  C   UNL     1       2.780   3.524  18.301  0.00  0.00    +0.000 C 
ATOM      8  C   UNL     1       1.914   4.792  18.465  0.00  0.00    +0.000 C 
ATOM      9  C   UNL     1       2.469   6.198  18.082  0.00  0.00    +0.000 C 
ENDROOT
BRANCH   1  11
ATOM     10  C   UNL     1       6.779   4.337  14.718  0.00  0.00    +0.000 C 
ATOM     11  C   UNL     1       6.799   4.483  16.229  0.00  0.00    +0.000 C 
ENDBRANCH   1  11
BRANCH   9  12
ATOM     12  N   UNL     1       2.490   7.020  19.298  0.00  0.00    +0.000 NA
ATOM     13  H   UNL     1       3.441   7.068  19.662  0.00  0.00    +0.000 HD
BRANCH  12  14
ATOM     14  C   UNL     1       1.988   8.379  19.099  0.00  0.00    +0.000 C 
BRANCH  14  15
ATOM     15  C   UNL     1       1.215   8.859  20.286  0.00  0.00    +0.000 A 
ATOM     16  C   UNL     1       0.818   8.164  21.409  0.00  0.00    +0.000 A 
ATOM     17  C   UNL     1       0.046   8.974  22.294  0.00  0.00    +0.000 A 
ATOM     18  C   UNL     1      -0.117  10.257  21.825  0.00  0.00    +0.000 A 
ATOM     19  C   UNL     1      -0.851  11.398  22.436  0.00  0.00    +0.000 C 
ATOM     20  S   UNL     1       0.659  10.481  20.321  0.00  0.00    +0.000 S 
ENDBRANCH  14  15
ENDBRANCH  12  14
ENDBRANCH   9  12
TORSDOF 4
ENDMDL
MODEL 6
REMARK VINA RESULT:      -6.2      3.050      6.685
REMARK  Name = 
REMARK  6 active torsions:
REMARK  status: ('A' for Active; 'I' for Inactive)
REMARK    1  A    between atoms: C_1  and  C_2
REMARK    2  A    between atoms: C_2  and  N_3
REMARK    3  A    between atoms: C_11  and  N_12
REMARK    4  A    between atoms: N_12  and  C_13
REMARK    5  A    between atoms: C_13  and  C_14
REMARK    6  A    between atoms: C_17  and  C_18
REMARK                            x       y       z     vdW  Elec       q    Type
REMARK                         _______ _______ _______ _____ _____    ______ ____
ROOT
ATOM      1  N   UNL     1       2.146   5.738  19.948  0.00  0.00    +0.000 N 
ATOM      2  N   UNL     1       3.288   6.444  19.884  0.00  0.00    +0.000 NA
ATOM      3  C   UNL     1       4.100   5.661  19.179  0.00  0.00    +0.000 A 
ATOM      4  C   UNL     1       3.471   4.481  18.718  0.00  0.00    +0.000 A 
ATOM      5  C   UNL     1       2.219   4.544  19.282  0.00  0.00    +0.000 A 
ATOM      6  C   UNL     1       1.168   3.513  19.248  0.00  0.00    +0.000 C 
ATOM      7  C   UNL     1       1.614   2.234  18.531  0.00  0.00    +0.000 C 
ATOM      8  C   UNL     1       3.010   2.141  17.877  0.00  0.00    +0.000 C 
ATOM      9  C   UNL     1       3.989   3.354  17.901  0.00  0.00    +0.000 C 
ENDROOT
BRANCH   1  11
ATOM     10  C   UNL     1       1.220   7.727  21.021  0.00  0.00    +0.000 C 
ATOM     11  C   UNL     1       1.068   6.236  20.781  0.00  0.00    +0.000 C 
ENDBRANCH   1  11
BRANCH   9  12
ATOM     12  N   UNL     1       4.241   3.758  16.512  0.00  0.00    +0.000 NA
ATOM     13  H   UNL     1       3.901   4.708  16.366  0.00  0.00    +0.000 HD
BRANCH  12  14
ATOM     14  C   UNL     1       5.649   3.691  16.125  0.00  0.00    +0.000 C 
BRANCH  14  15
ATOM     15  C   UNL     1       6.462   4.733  16.825  0.00  0.00    +0.000 A 
ATOM     16  C   UNL     1       7.340   4.594  17.878  0.00  0.00    +0.000 A 
ATOM     17  C   UNL     1       7.880   5.847  18.294  0.00  0.00    +0.000 A 
ATOM     18  C   UNL     1       7.403   6.899  17.546  0.00  0.00    +0.000 A 
ATOM     19  C   UNL     1       7.708   8.351  17.660  0.00  0.00    +0.000 C 
ATOM     20  S   UNL     1       6.308   6.373  16.347  0.00  0.00    +0.000 S 
ENDBRANCH  14  15
ENDBRANCH  12  14
ENDBRANCH   9  12
TORSDOF 4
ENDMDL
MODEL 7
REMARK VINA RESULT:      -6.2      5.374      8.400
REMARK  Name = 
REMARK  6 active torsions:
REMARK  status: ('A' for Active; 'I' for Inactive)
REMARK    1  A    between atoms: C_1  and  C_2
REMARK    2  A    between atoms: C_2  and  N_3
REMARK    3  A    between atoms: C_11  and  N_12
REMARK    4  A    between atoms: N_12  and  C_13
REMARK    5  A    between atoms: C_13  and  C_14
REMARK    6  A    between atoms: C_17  and  C_18
REMARK                            x       y       z     vdW  Elec       q    Type
REMARK                         _______ _______ _______ _____ _____    ______ ____
ROOT
ATOM      1  N   UNL     1       4.333   3.912  18.829  0.00  0.00    +0.000 N 
ATOM      2  N   UNL     1       3.258   4.215  18.079  0.00  0.00    +0.000 NA
ATOM      3  C   UNL     1       3.646   5.288  17.396  0.00  0.00    +0.000 A 
ATOM      4  C   UNL     1       4.994   5.643  17.639  0.00  0.00    +0.000 A 
ATOM      5  C   UNL     1       5.388   4.756  18.613  0.00  0.00    +0.000 A 
ATOM      6  C   UNL     1       6.665   4.740  19.346  0.00  0.00    +0.000 C 
ATOM      7  C   UNL     1       7.585   5.903  18.962  0.00  0.00    +0.000 C 
ATOM      8  C   UNL     1       7.174   6.905  17.861  0.00  0.00    +0.000 C 
ATOM      9  C   UNL     1       5.828   6.742  17.091  0.00  0.00    +0.000 C 
ENDROOT
BRANCH   1  11
ATOM     10  C   UNL     1       3.383   1.708  19.286  0.00  0.00    +0.000 C 
ATOM     11  C   UNL     1       4.211   2.862  19.822  0.00  0.00    +0.000 C 
ENDBRANCH   1  11
BRANCH   9  12
ATOM     12  N   UNL     1       6.143   6.533  15.672  0.00  0.00    +0.000 NA
ATOM     13  H   UNL     1       6.452   7.412  15.258  0.00  0.00    +0.000 HD
BRANCH  12  14
ATOM     14  C   UNL     1       7.164   5.513  15.439  0.00  0.00    +0.000 C 
BRANCH  14  15
ATOM     15  C   UNL     1       6.966   4.827  14.125  0.00  0.00    +0.000 A 
ATOM     16  C   UNL     1       7.683   4.959  12.955  0.00  0.00    +0.000 A 
ATOM     17  C   UNL     1       7.140   4.163  11.902  0.00  0.00    +0.000 A 
ATOM     18  C   UNL     1       6.035   3.447  12.302  0.00  0.00    +0.000 A 
ATOM     19  C   UNL     1       5.183   2.514  11.516  0.00  0.00    +0.000 C 
ATOM     20  S   UNL     1       5.655   3.738  13.940  0.00  0.00    +0.000 S 
ENDBRANCH  14  15
ENDBRANCH  12  14
ENDBRANCH   9  12
TORSDOF 4
ENDMDL
MODEL 8
REMARK VINA RESULT:      -6.2      1.813      2.223
REMARK  Name = 
REMARK  6 active torsions:
REMARK  status: ('A' for Active; 'I' for Inactive)
REMARK    1  A    between atoms: C_1  and  C_2
REMARK    2  A    between atoms: C_2  and  N_3
REMARK    3  A    between atoms: C_11  and  N_12
REMARK    4  A    between atoms: N_12  and  C_13
REMARK    5  A    between atoms: C_13  and  C_14
REMARK    6  A    between atoms: C_17  and  C_18
REMARK                            x       y       z     vdW  Elec       q    Type
REMARK                         _______ _______ _______ _____ _____    ______ ____
ROOT
ATOM      1  N   UNL     1       5.578   4.993  16.260  0.00  0.00    +0.000 N 
ATOM      2  N   UNL     1       5.799   6.312  16.115  0.00  0.00    +0.000 NA
ATOM      3  C   UNL     1       4.791   6.872  16.779  0.00  0.00    +0.000 A 
ATOM      4  C   UNL     1       3.956   5.927  17.419  0.00  0.00    +0.000 A 
ATOM      5  C   UNL     1       4.471   4.718  17.015  0.00  0.00    +0.000 A 
ATOM      6  C   UNL     1       3.918   3.377  17.273  0.00  0.00    +0.000 C 
ATOM      7  C   UNL     1       2.592   3.419  18.040  0.00  0.00    +0.000 C 
ATOM      8  C   UNL     1       1.999   4.762  18.518  0.00  0.00    +0.000 C 
ATOM      9  C   UNL     1       2.746   6.106  18.261  0.00  0.00    +0.000 C 
ENDROOT
BRANCH   1  11
ATOM     10  C   UNL     1       6.023   4.019  14.064  0.00  0.00    +0.000 C 
ATOM     11  C   UNL     1       6.420   4.066  15.529  0.00  0.00    +0.000 C 
ENDBRANCH   1  11
BRANCH   9  12
ATOM     12  N   UNL     1       3.072   6.697  19.566  0.00  0.00    +0.000 NA
ATOM     13  H   UNL     1       3.408   7.650  19.434  0.00  0.00    +0.000 HD
BRANCH  12  14
ATOM     14  C   UNL     1       1.949   6.713  20.502  0.00  0.00    +0.000 C 
BRANCH  14  15
ATOM     15  C   UNL     1       1.345   8.077  20.612  0.00  0.00    +0.000 A 
ATOM     16  C   UNL     1       0.690   8.659  21.677  0.00  0.00    +0.000 A 
ATOM     17  C   UNL     1       0.213   9.966  21.363  0.00  0.00    +0.000 A 
ATOM     18  C   UNL     1       0.523  10.343  20.076  0.00  0.00    +0.000 A 
ATOM     19  C   UNL     1       0.206  11.610  19.363  0.00  0.00    +0.000 C 
ATOM     20  S   UNL     1       1.384   9.121  19.252  0.00  0.00    +0.000 S 
ENDBRANCH  14  15
ENDBRANCH  12  14
ENDBRANCH   9  12
TORSDOF 4
ENDMDL
MODEL 9
REMARK VINA RESULT:      -6.1      1.002      1.305
REMARK  Name = 
REMARK  6 active torsions:
REMARK  status: ('A' for Active; 'I' for Inactive)
REMARK    1  A    between atoms: C_1  and  C_2
REMARK    2  A    between atoms: C_2  and  N_3
REMARK    3  A    between atoms: C_11  and  N_12
REMARK    4  A    between atoms: N_12  and  C_13
REMARK    5  A    between atoms: C_13  and  C_14
REMARK    6  A    between atoms: C_17  and  C_18
REMARK                            x       y       z     vdW  Elec       q    Type
REMARK                         _______ _______ _______ _____ _____    ______ ____
ROOT
ATOM      1  N   UNL     1       5.536   5.491  17.508  0.00  0.00    +0.000 N 
ATOM      2  N   UNL     1       5.320   6.663  16.884  0.00  0.00    +0.000 NA
ATOM      3  C   UNL     1       4.152   7.067  17.374  0.00  0.00    +0.000 A 
ATOM      4  C   UNL     1       3.639   6.203  18.370  0.00  0.00    +0.000 A 
ATOM      5  C   UNL     1       4.542   5.167  18.391  0.00  0.00    +0.000 A 
ATOM      6  C   UNL     1       4.446   3.910  19.153  0.00  0.00    +0.000 C 
ATOM      7  C   UNL     1       3.142   3.796  19.948  0.00  0.00    +0.000 C 
ATOM      8  C   UNL     1       2.117   4.952  19.954  0.00  0.00    +0.000 C 
ATOM      9  C   UNL     1       2.396   6.275  19.178  0.00  0.00    +0.000 C 
ENDROOT
BRANCH   1  11
ATOM     10  C   UNL     1       6.611   4.386  15.612  0.00  0.00    +0.000 C 
ATOM     11  C   UNL     1       6.671   4.687  17.099  0.00  0.00    +0.000 C 
ENDBRANCH   1  11
BRANCH   9  12
ATOM     12  N   UNL     1       2.442   7.370  20.156  0.00  0.00    +0.000 NA
ATOM     13  H   UNL     1       2.512   8.261  19.667  0.00  0.00    +0.000 HD
BRANCH  12  14
ATOM     14  C   UNL     1       1.288   7.408  21.053  0.00  0.00    +0.000 C 
BRANCH  14  15
ATOM     15  C   UNL     1       0.687   8.775  21.117  0.00  0.00    +0.000 A 
ATOM     16  C   UNL     1       0.642   9.756  20.150  0.00  0.00    +0.000 A 
ATOM     17  C   UNL     1       0.020  10.949  20.624  0.00  0.00    +0.000 A 
ATOM     18  C   UNL     1      -0.394  10.841  21.932  0.00  0.00    +0.000 A 
ATOM     19  C   UNL     1      -1.072  11.848  22.792  0.00  0.00    +0.000 C 
ATOM     20  S   UNL     1      -0.031   9.304  22.582  0.00  0.00    +0.000 S 
ENDBRANCH  14  15
ENDBRANCH  12  14
ENDBRANCH   9  12
TORSDOF 4
ENDMDL
