MODEL 1
REMARK VINA RESULT:      -7.7      0.000      0.000
REMARK  Name = 
REMARK  5 active torsions:
REMARK  status: ('A' for Active; 'I' for Inactive)
REMARK    1  A    between atoms: C_1  and  C_2
REMARK    2  A    between atoms: C_2  and  C_3
REMARK    3  A    between atoms: C_9  and  C_10
REMARK    4  A    between atoms: C_10  and  C_11
REMARK    5  A    between atoms: C_11  and  N_12
REMARK                            x       y       z     vdW  Elec       q    Type
REMARK                         _______ _______ _______ _____ _____    ______ ____
ROOT
ATOM      1  C   UNL     1       5.838   3.507  12.481  0.00  0.00    +0.000 A 
ATOM      2  C   UNL     1       7.055   4.149  12.234  0.00  0.00    +0.000 A 
ATOM      3  C   UNL     1       7.681   4.926  13.214  0.00  0.00    +0.000 A 
ATOM      4  C   UNL     1       7.049   5.034  14.458  0.00  0.00    +0.000 A 
ATOM      5  N   UNL     1       7.441   5.709  15.590  0.00  0.00    +0.000 N 
ATOM      6  C   UNL     1       6.515   5.550  16.582  0.00  0.00    +0.000 A 
ATOM      7  C   UNL     1       5.488   4.762  16.096  0.00  0.00    +0.000 A 
ATOM      8  C   UNL     1       5.830   4.422  14.748  0.00  0.00    +0.000 A 
ATOM      9  C   UNL     1       5.218   3.648  13.737  0.00  0.00    +0.000 A 
ATOM     10  H   UNL     1       8.296   6.241  15.663  0.00  0.00    +0.000 HD
ENDROOT
BRANCH   1  12
ATOM     11  C   UNL     1       3.846   3.150  11.007  0.00  0.00    +0.000 C 
ATOM     12  C   UNL     1       5.211   2.627  11.429  0.00  0.00    +0.000 C 
ENDBRANCH   1  12
BRANCH   7  13
ATOM     13  C   UNL     1       4.248   4.378  16.862  0.00  0.00    +0.000 C 
BRANCH  13  14
ATOM     14  C   UNL     1       4.551   3.782  18.248  0.00  0.00    +0.000 C 
BRANCH  14  15
ATOM     15  N   UNL     1       3.812   2.542  18.568  0.00  0.00    +0.000 NA
ATOM     16  C   UNL     1       2.612   2.331  17.744  0.00  0.00    +0.000 C 
ATOM     17  C   UNL     1       1.464   2.920  18.536  0.00  0.00    +0.000 C 
ATOM     18  C   UNL     1       1.825   2.547  19.956  0.00  0.00    +0.000 C 
ATOM     19  C   UNL     1       3.348   2.572  19.974  0.00  0.00    +0.000 C 
ENDBRANCH  14  15
ENDBRANCH  13  14
ENDBRANCH   7  13
TORSDOF 4
ENDMDL
MODEL 2
REMARK VINA RESULT:      -7.6      1.422      1.715
REMARK  Name = 
REMARK  5 active torsions:
REMARK  status: ('A' for Active; 'I' for Inactive)
REMARK    1  A    between atoms: C_1  and  C_2
REMARK    2  A    between atoms: C_2  and  C_3
REMARK    3  A    between atoms: C_9  and  C_10
REMARK    4  A    between atoms: C_10  and  C_11
REMARK    5  A    between atoms: C_11  and  N_12
REMARK                            x       y       z     vdW  Elec       q    Type
REMARK                         _______ _______ _______ _____ _____    ______ ____
ROOT
ATOM      1  C   UNL     1       5.799   3.513  12.444  0.00  0.00    +0.000 A 
ATOM      2  C   UNL     1       7.022   4.115  12.134  0.00  0.00    +0.000 A 
ATOM      3  C   UNL     1       7.703   4.905  13.065  0.00  0.00    +0.000 A 
ATOM      4  C   UNL     1       7.120   5.068  14.327  0.00  0.00    +0.000 A 
ATOM      5  N   UNL     1       7.570   5.768  15.422  0.00  0.00    +0.000 N 
ATOM      6  C   UNL     1       6.677   5.664  16.451  0.00  0.00    +0.000 A 
ATOM      7  C   UNL     1       5.613   4.889  16.028  0.00  0.00    +0.000 A 
ATOM      8  C   UNL     1       5.897   4.497  14.680  0.00  0.00    +0.000 A 
ATOM      9  C   UNL     1       5.229   3.709  13.717  0.00  0.00    +0.000 A 
ATOM     10  H   UNL     1       8.440   6.279  15.447  0.00  0.00    +0.000 HD
ENDROOT
BRANCH   1  12
ATOM     11  C   UNL     1       3.794   3.215  10.976  0.00  0.00    +0.000 C 
ATOM     12  C   UNL     1       5.113   2.618  11.444  0.00  0.00    +0.000 C 
ENDBRANCH   1  12
BRANCH   7  13
ATOM     13  C   UNL     1       4.393   4.561  16.849  0.00  0.00    +0.000 C 
BRANCH  13  14
ATOM     14  C   UNL     1       4.070   5.630  17.909  0.00  0.00    +0.000 C 
BRANCH  14  15
ATOM     15  N   UNL     1       2.636   5.760  18.245  0.00  0.00    +0.000 NA
ATOM     16  C   UNL     1       2.378   6.061  19.661  0.00  0.00    +0.000 C 
ATOM     17  C   UNL     1       2.154   4.722  20.330  0.00  0.00    +0.000 C 
ATOM     18  C   UNL     1       1.385   3.959  19.276  0.00  0.00    +0.000 C 
ATOM     19  C   UNL     1       1.927   4.493  17.955  0.00  0.00    +0.000 C 
ENDBRANCH  14  15
ENDBRANCH  13  14
ENDBRANCH   7  13
TORSDOF 4
ENDMDL
MODEL 3
REMARK VINA RESULT:      -7.5      1.189      1.286
REMARK  Name = 
REMARK  5 active torsions:
REMARK  status: ('A' for Active; 'I' for Inactive)
REMARK    1  A    between atoms: C_1  and  C_2
REMARK    2  A    between atoms: C_2  and  C_3
REMARK    3  A    between atoms: C_9  and  C_10
REMARK    4  A    between atoms: C_10  and  C_11
REMARK    5  A    between atoms: C_11  and  N_12
REMARK                            x       y       z     vdW  Elec       q    Type
REMARK                         _______ _______ _______ _____ _____    ______ ____
ROOT
ATOM      1  C   UNL     1       5.824   3.502  12.495  0.00  0.00    +0.000 A 
ATOM      2  C   UNL     1       7.009   4.200  12.243  0.00  0.00    +0.000 A 
ATOM      3  C   UNL     1       7.630   4.966  13.234  0.00  0.00    +0.000 A 
ATOM      4  C   UNL     1       7.026   5.006  14.496  0.00  0.00    +0.000 A 
ATOM      5  N   UNL     1       7.420   5.656  15.642  0.00  0.00    +0.000 N 
ATOM      6  C   UNL     1       6.526   5.426  16.649  0.00  0.00    +0.000 A 
ATOM      7  C   UNL     1       5.518   4.617  16.160  0.00  0.00    +0.000 A 
ATOM      8  C   UNL     1       5.839   4.337  14.793  0.00  0.00    +0.000 A 
ATOM      9  C   UNL     1       5.231   3.576  13.770  0.00  0.00    +0.000 A 
ATOM     10  H   UNL     1       8.256   6.218  15.714  0.00  0.00    +0.000 HD
ENDROOT
BRANCH   1  12
ATOM     11  C   UNL     1       3.870   3.196  10.961  0.00  0.00    +0.000 C 
ATOM     12  C   UNL     1       5.205   2.636  11.427  0.00  0.00    +0.000 C 
ENDBRANCH   1  12
BRANCH   7  13
ATOM     13  C   UNL     1       4.313   4.158  16.941  0.00  0.00    +0.000 C 
BRANCH  13  14
ATOM     14  C   UNL     1       3.772   5.228  17.906  0.00  0.00    +0.000 C 
BRANCH  14  15
ATOM     15  N   UNL     1       3.613   4.781  19.306  0.00  0.00    +0.000 NA
ATOM     16  C   UNL     1       3.096   3.410  19.442  0.00  0.00    +0.000 C 
ATOM     17  C   UNL     1       1.596   3.552  19.582  0.00  0.00    +0.000 C 
ATOM     18  C   UNL     1       1.466   4.797  20.429  0.00  0.00    +0.000 C 
ATOM     19  C   UNL     1       2.654   5.657  20.016  0.00  0.00    +0.000 C 
ENDBRANCH  14  15
ENDBRANCH  13  14
ENDBRANCH   7  13
TORSDOF 4
ENDMDL
MODEL 4
REMARK VINA RESULT:      -7.5      0.791      1.286
REMARK  Name = 
REMARK  5 active torsions:
REMARK  status: ('A' for Active; 'I' for Inactive)
REMARK    1  A    between atoms: C_1  and  C_2
REMARK    2  A    between atoms: C_2  and  C_3
REMARK    3  A    between atoms: C_9  and  C_10
REMARK    4  A    between atoms: C_10  and  C_11
REMARK    5  A    between atoms: C_11  and  N_12
REMARK                            x       y       z     vdW  Elec       q    Type
REMARK                         _______ _______ _______ _____ _____    ______ ____
ROOT
ATOM      1  C   UNL     1       5.969   3.369  12.366  0.00  0.00    +0.000 A 
ATOM      2  C   UNL     1       7.124   4.106  12.086  0.00  0.00    +0.000 A 
ATOM      3  C   UNL     1       7.697   4.954  13.038  0.00  0.00    +0.000 A 
ATOM      4  C   UNL     1       7.077   5.036  14.291  0.00  0.00    +0.000 A 
ATOM      5  N   UNL     1       7.428   5.766  15.401  0.00  0.00    +0.000 N 
ATOM      6  C   UNL     1       6.533   5.552  16.412  0.00  0.00    +0.000 A 
ATOM      7  C   UNL     1       5.569   4.670  15.960  0.00  0.00    +0.000 A 
ATOM      8  C   UNL     1       5.919   4.330  14.614  0.00  0.00    +0.000 A 
ATOM      9  C   UNL     1       5.358   3.486  13.630  0.00  0.00    +0.000 A 
ATOM     10  H   UNL     1       8.236   6.370  15.449  0.00  0.00    +0.000 HD
ENDROOT
BRANCH   1  12
ATOM     11  C   UNL     1       6.353   1.260  11.074  0.00  0.00    +0.000 C 
ATOM     12  C   UNL     1       5.403   2.417  11.343  0.00  0.00    +0.000 C 
ENDBRANCH   1  12
BRANCH   7  13
ATOM     13  C   UNL     1       4.378   4.201  16.754  0.00  0.00    +0.000 C 
BRANCH  13  14
ATOM     14  C   UNL     1       4.681   4.015  18.252  0.00  0.00    +0.000 C 
BRANCH  14  15
ATOM     15  N   UNL     1       3.503   4.097  19.141  0.00  0.00    +0.000 NA
ATOM     16  C   UNL     1       3.192   2.840  19.839  0.00  0.00    +0.000 C 
ATOM     17  C   UNL     1       2.173   2.131  18.972  0.00  0.00    +0.000 C 
ATOM     18  C   UNL     1       1.323   3.276  18.470  0.00  0.00    +0.000 C 
ATOM     19  C   UNL     1       2.295   4.444  18.357  0.00  0.00    +0.000 C 
ENDBRANCH  14  15
ENDBRANCH  13  14
ENDBRANCH   7  13
TORSDOF 4
ENDMDL
MODEL 5
REMARK VINA RESULT:      -7.4      1.651      2.926
REMARK  Name = 
REMARK  5 active torsions:
REMARK  status: ('A' for Active; 'I' for Inactive)
REMARK    1  A    between atoms: C_1  and  C_2
REMARK    2  A    between atoms: C_2  and  C_3
REMARK    3  A    between atoms: C_9  and  C_10
REMARK    4  A    between atoms: C_10  and  C_11
REMARK    5  A    between atoms: C_11  and  N_12
REMARK                            x       y       z     vdW  Elec       q    Type
REMARK                         _______ _______ _______ _____ _____    ______ ____
ROOT
ATOM      1  C   UNL     1       6.325   4.545  14.814  0.00  0.00    +0.000 A 
ATOM      2  C   UNL     1       7.453   4.894  15.562  0.00  0.00    +0.000 A 
ATOM      3  C   UNL     1       7.464   4.792  16.956  0.00  0.00    +0.000 A 
ATOM      4  C   UNL     1       6.304   4.319  17.581  0.00  0.00    +0.000 A 
ATOM      5  N   UNL     1       6.045   4.106  18.915  0.00  0.00    +0.000 N 
ATOM      6  C   UNL     1       4.772   3.640  19.082  0.00  0.00    +0.000 A 
ATOM      7  C   UNL     1       4.174   3.549  17.839  0.00  0.00    +0.000 A 
ATOM      8  C   UNL     1       5.150   3.969  16.879  0.00  0.00    +0.000 A 
ATOM      9  C   UNL     1       5.167   4.089  15.472  0.00  0.00    +0.000 A 
ATOM     10  H   UNL     1       6.712   4.274  19.653  0.00  0.00    +0.000 HD
ENDROOT
BRANCH   1  12
ATOM     11  C   UNL     1       5.847   3.318  12.685  0.00  0.00    +0.000 C 
ATOM     12  C   UNL     1       6.358   4.609  13.308  0.00  0.00    +0.000 C 
ENDBRANCH   1  12
BRANCH   7  13
ATOM     13  C   UNL     1       2.755   3.112  17.584  0.00  0.00    +0.000 C 
BRANCH  13  14
ATOM     14  C   UNL     1       1.709   4.133  18.068  0.00  0.00    +0.000 C 
BRANCH  14  15
ATOM     15  N   UNL     1       0.890   3.689  19.216  0.00  0.00    +0.000 NA
ATOM     16  C   UNL     1       0.992   4.561  20.396  0.00  0.00    +0.000 C 
ATOM     17  C   UNL     1       2.077   3.956  21.260  0.00  0.00    +0.000 C 
ATOM     18  C   UNL     1       1.841   2.473  21.084  0.00  0.00    +0.000 C 
ATOM     19  C   UNL     1       1.319   2.342  19.659  0.00  0.00    +0.000 C 
ENDBRANCH  14  15
ENDBRANCH  13  14
ENDBRANCH   7  13
TORSDOF 4
ENDMDL
MODEL 6
REMARK VINA RESULT:      -7.4      1.393      2.237
REMARK  Name = 
REMARK  5 active torsions:
REMARK  status: ('A' for Active; 'I' for Inactive)
REMARK    1  A    between atoms: C_1  and  C_2
REMARK    2  A    between atoms: C_2  and  C_3
REMARK    3  A    between atoms: C_9  and  C_10
REMARK    4  A    between atoms: C_10  and  C_11
REMARK    5  A    between atoms: C_11  and  N_12
REMARK                            x       y       z     vdW  Elec       q    Type
REMARK                         _______ _______ _______ _____ _____    ______ ____
ROOT
ATOM      1  C   UNL     1       6.101   4.043  13.873  0.00  0.00    +0.000 A 
ATOM      2  C   UNL     1       7.151   4.821  14.371  0.00  0.00    +0.000 A 
ATOM      3  C   UNL     1       7.151   5.288  15.689  0.00  0.00    +0.000 A 
ATOM      4  C   UNL     1       6.063   4.944  16.500  0.00  0.00    +0.000 A 
ATOM      5  N   UNL     1       5.814   5.248  17.817  0.00  0.00    +0.000 N 
ATOM      6  C   UNL     1       4.622   4.710  18.211  0.00  0.00    +0.000 A 
ATOM      7  C   UNL     1       4.067   4.044  17.134  0.00  0.00    +0.000 A 
ATOM      8  C   UNL     1       4.988   4.180  16.046  0.00  0.00    +0.000 A 
ATOM      9  C   UNL     1       5.012   3.728  14.708  0.00  0.00    +0.000 A 
ATOM     10  H   UNL     1       6.436   5.792  18.399  0.00  0.00    +0.000 HD
ENDROOT
BRANCH   1  12
ATOM     11  C   UNL     1       4.755   3.313  11.893  0.00  0.00    +0.000 C 
ATOM     12  C   UNL     1       6.151   3.503  12.467  0.00  0.00    +0.000 C 
ENDBRANCH   1  12
BRANCH   7  13
ATOM     13  C   UNL     1       2.734   3.342  17.137  0.00  0.00    +0.000 C 
BRANCH  13  14
ATOM     14  C   UNL     1       1.661   4.082  17.956  0.00  0.00    +0.000 C 
BRANCH  14  15
ATOM     15  N   UNL     1       1.148   3.337  19.126  0.00  0.00    +0.000 NA
ATOM     16  C   UNL     1       0.898   4.178  20.307  0.00  0.00    +0.000 C 
ATOM     17  C   UNL     1       2.163   4.109  21.135  0.00  0.00    +0.000 C 
ATOM     18  C   UNL     1       2.587   2.668  20.958  0.00  0.00    +0.000 C 
ATOM     19  C   UNL     1       2.130   2.312  19.549  0.00  0.00    +0.000 C 
ENDBRANCH  14  15
ENDBRANCH  13  14
ENDBRANCH   7  13
TORSDOF 4
ENDMDL
MODEL 7
REMARK VINA RESULT:      -7.2      1.609      1.780
REMARK  Name = 
REMARK  5 active torsions:
REMARK  status: ('A' for Active; 'I' for Inactive)
REMARK    1  A    between atoms: C_1  and  C_2
REMARK    2  A    between atoms: C_2  and  C_3
REMARK    3  A    between atoms: C_9  and  C_10
REMARK    4  A    between atoms: C_10  and  C_11
REMARK    5  A    between atoms: C_11  and  N_12
REMARK                            x       y       z     vdW  Elec       q    Type
REMARK                         _______ _______ _______ _____ _____    ______ ____
ROOT
ATOM      1  C   UNL     1       5.951   3.533  12.453  0.00  0.00    +0.000 A 
ATOM      2  C   UNL     1       7.093   4.304  12.221  0.00  0.00    +0.000 A 
ATOM      3  C   UNL     1       7.712   5.020  13.250  0.00  0.00    +0.000 A 
ATOM      4  C   UNL     1       7.150   4.934  14.529  0.00  0.00    +0.000 A 
ATOM      5  N   UNL     1       7.553   5.511  15.710  0.00  0.00    +0.000 N 
ATOM      6  C   UNL     1       6.705   5.162  16.722  0.00  0.00    +0.000 A 
ATOM      7  C   UNL     1       5.719   4.345  16.202  0.00  0.00    +0.000 A 
ATOM      8  C   UNL     1       6.005   4.188  14.808  0.00  0.00    +0.000 A 
ATOM      9  C   UNL     1       5.398   3.480  13.747  0.00  0.00    +0.000 A 
ATOM     10  H   UNL     1       8.365   6.105  15.800  0.00  0.00    +0.000 HD
ENDROOT
BRANCH   1  12
ATOM     11  C   UNL     1       3.892   3.134  11.085  0.00  0.00    +0.000 C 
ATOM     12  C   UNL     1       5.335   2.724  11.340  0.00  0.00    +0.000 C 
ENDBRANCH   1  12
BRANCH   7  13
ATOM     13  C   UNL     1       4.563   3.771  16.981  0.00  0.00    +0.000 C 
BRANCH  13  14
ATOM     14  C   UNL     1       4.478   4.304  18.422  0.00  0.00    +0.000 C 
BRANCH  14  15
ATOM     15  N   UNL     1       3.107   4.577  18.905  0.00  0.00    +0.000 NA
ATOM     16  C   UNL     1       2.241   5.229  17.910  0.00  0.00    +0.000 C 
ATOM     17  C   UNL     1       2.360   6.714  18.174  0.00  0.00    +0.000 C 
ATOM     18  C   UNL     1       2.429   6.770  19.684  0.00  0.00    +0.000 C 
ATOM     19  C   UNL     1       3.150   5.485  20.074  0.00  0.00    +0.000 C 
ENDBRANCH  14  15
ENDBRANCH  13  14
ENDBRANCH   7  13
TORSDOF 4
ENDMDL
MODEL 8
REMARK VINA RESULT:      -7.1      3.050      6.998
REMARK  Name = 
REMARK  5 active torsions:
REMARK  status: ('A' for Active; 'I' for Inactive)
REMARK    1  A    between atoms: C_1  and  C_2
REMARK    2  A    between atoms: C_2  and  C_3
REMARK    3  A    between atoms: C_9  and  C_10
REMARK    4  A    between atoms: C_10  and  C_11
REMARK    5  A    between atoms: C_11  and  N_12
REMARK                            x       y       z     vdW  Elec       q    Type
REMARK                         _______ _______ _______ _____ _____    ______ ____
ROOT
ATOM      1  C   UNL     1       1.766   5.276  20.205  0.00  0.00    +0.000 A 
ATOM      2  C   UNL     1       1.130   4.173  20.783  0.00  0.00    +0.000 A 
ATOM      3  C   UNL     1       1.350   2.875  20.311  0.00  0.00    +0.000 A 
ATOM      4  C   UNL     1       2.237   2.715  19.241  0.00  0.00    +0.000 A 
ATOM      5  N   UNL     1       2.645   1.571  18.598  0.00  0.00    +0.000 N 
ATOM      6  C   UNL     1       3.523   1.877  17.597  0.00  0.00    +0.000 A 
ATOM      7  C   UNL     1       3.695   3.248  17.571  0.00  0.00    +0.000 A 
ATOM      8  C   UNL     1       2.887   3.785  18.625  0.00  0.00    +0.000 A 
ATOM      9  C   UNL     1       2.640   5.085  19.118  0.00  0.00    +0.000 A 
ATOM     10  H   UNL     1       2.332   0.642  18.843  0.00  0.00    +0.000 HD
ENDROOT
BRANCH   1  12
ATOM     11  C   UNL     1       2.016   7.732  19.792  0.00  0.00    +0.000 C 
ATOM     12  C   UNL     1       1.558   6.659  20.768  0.00  0.00    +0.000 C 
ENDBRANCH   1  12
BRANCH   7  13
ATOM     13  C   UNL     1       4.555   4.000  16.590  0.00  0.00    +0.000 C 
BRANCH  13  14
ATOM     14  C   UNL     1       5.928   4.394  17.164  0.00  0.00    +0.000 C 
BRANCH  14  15
ATOM     15  N   UNL     1       5.921   5.595  18.027  0.00  0.00    +0.000 NA
ATOM     16  C   UNL     1       6.056   6.862  17.291  0.00  0.00    +0.000 C 
ATOM     17  C   UNL     1       7.536   7.179  17.292  0.00  0.00    +0.000 C 
ATOM     18  C   UNL     1       7.962   6.731  18.672  0.00  0.00    +0.000 C 
ATOM     19  C   UNL     1       7.054   5.547  18.979  0.00  0.00    +0.000 C 
ENDBRANCH  14  15
ENDBRANCH  13  14
ENDBRANCH   7  13
TORSDOF 4
ENDMDL
MODEL 9
REMARK VINA RESULT:      -7.0      1.672      2.877
REMARK  Name = 
REMARK  5 active torsions:
REMARK  status: ('A' for Active; 'I' for Inactive)
REMARK    1  A    between atoms: C_1  and  C_2
REMARK    2  A    between atoms: C_2  and  C_3
REMARK    3  A    between atoms: C_9  and  C_10
REMARK    4  A    between atoms: C_10  and  C_11
REMARK    5  A    between atoms: C_11  and  N_12
REMARK                            x       y       z     vdW  Elec       q    Type
REMARK                         _______ _______ _______ _____ _____    ______ ____
ROOT
ATOM      1  C   UNL     1       5.693   4.400  15.001  0.00  0.00    +0.000 A 
ATOM      2  C   UNL     1       7.019   4.264  15.424  0.00  0.00    +0.000 A 
ATOM      3  C   UNL     1       7.384   4.473  16.757  0.00  0.00    +0.000 A 
ATOM      4  C   UNL     1       6.371   4.818  17.660  0.00  0.00    +0.000 A 
ATOM      5  N   UNL     1       6.441   5.063  19.012  0.00  0.00    +0.000 N 
ATOM      6  C   UNL     1       5.204   5.374  19.502  0.00  0.00    +0.000 A 
ATOM      7  C   UNL     1       4.301   5.342  18.457  0.00  0.00    +0.000 A 
ATOM      8  C   UNL     1       5.038   4.977  17.284  0.00  0.00    +0.000 A 
ATOM      9  C   UNL     1       4.700   4.766  15.929  0.00  0.00    +0.000 A 
ATOM     10  H   UNL     1       7.293   5.014  19.551  0.00  0.00    +0.000 HD
ENDROOT
BRANCH   1  12
ATOM     11  C   UNL     1       6.525   3.696  12.747  0.00  0.00    +0.000 C 
ATOM     12  C   UNL     1       5.315   4.113  13.569  0.00  0.00    +0.000 C 
ENDBRANCH   1  12
BRANCH   7  13
ATOM     13  C   UNL     1       2.832   5.663  18.564  0.00  0.00    +0.000 C 
BRANCH  13  14
ATOM     14  C   UNL     1       2.156   5.008  19.782  0.00  0.00    +0.000 C 
BRANCH  14  15
ATOM     15  N   UNL     1       1.519   3.701  19.512  0.00  0.00    +0.000 NA
ATOM     16  C   UNL     1       2.217   2.558  20.120  0.00  0.00    +0.000 C 
ATOM     17  C   UNL     1       3.155   2.037  19.053  0.00  0.00    +0.000 C 
ATOM     18  C   UNL     1       2.335   2.200  17.793  0.00  0.00    +0.000 C 
ATOM     19  C   UNL     1       1.489   3.440  18.054  0.00  0.00    +0.000 C 
ENDBRANCH  14  15
ENDBRANCH  13  14
ENDBRANCH   7  13
TORSDOF 4
ENDMDL
