MODEL 1
REMARK VINA RESULT:      -7.4      0.000      0.000
REMARK  Name = 
REMARK  5 active torsions:
REMARK  status: ('A' for Active; 'I' for Inactive)
REMARK    1  A    between atoms: C_1  and  O_2
REMARK    2  A    between atoms: O_2  and  C_3
REMARK    3  A    between atoms: C_6  and  N_7
REMARK    4  A    between atoms: C_22  and  C_23
REMARK    5  A    between atoms: C_25  and  C_26
REMARK                            x       y       z     vdW  Elec       q    Type
REMARK                         _______ _______ _______ _____ _____    ______ ____
ROOT
ATOM      1  N   UNL     1      -1.036  12.738  21.309  0.00  0.00    +0.000 N 
ATOM      2  C   UNL     1      -1.013  12.543  22.687  0.00  0.00    +0.000 C 
ATOM      3  O   UNL     1      -0.952  11.494  23.322  0.00  0.00    +0.000 OA
ATOM      4  C   UNL     1      -1.081  13.986  23.274  0.00  0.00    +0.000 C 
ATOM      5  C   UNL     1      -1.732  14.366  24.581  0.00  0.00    +0.000 A 
ATOM      6  N   UNL     1      -1.270  15.413  25.339  0.00  0.00    +0.000 N 
ATOM      7  C   UNL     1      -2.221  16.409  25.224  0.00  0.00    +0.000 A 
ATOM      8  C   UNL     1      -2.045  17.803  25.228  0.00  0.00    +0.000 A 
ATOM      9  C   UNL     1      -3.154  18.602  24.962  0.00  0.00    +0.000 A 
ATOM     10  C   UNL     1      -4.404  18.021  24.765  0.00  0.00    +0.000 A 
ATOM     11  C   UNL     1      -4.566  16.622  24.772  0.00  0.00    +0.000 A 
ATOM     12  C   UNL     1      -3.445  15.775  24.955  0.00  0.00    +0.000 A 
ATOM     13  C   UNL     1      -3.123  14.380  24.669  0.00  0.00    +0.000 A 
ATOM     14  C   UNL     1      -3.739  13.354  23.755  0.00  0.00    +0.000 C 
ATOM     15  C   UNL     1      -4.977  12.590  24.088  0.00  0.00    +0.000 C 
ATOM     16  C   UNL     1      -6.252  13.274  23.678  0.00  0.00    +0.000 C 
ATOM     17  C   UNL     1      -7.378  12.254  23.909  0.00  0.00    +0.000 C 
ATOM     18  C   UNL     1      -6.151  13.742  22.217  0.00  0.00    +0.000 C 
ATOM     19  C   UNL     1      -4.872  14.583  21.848  0.00  0.00    +0.000 C 
ATOM     20  C   UNL     1      -4.956  14.863  20.343  0.00  0.00    +0.000 C 
ATOM     21  C   UNL     1      -3.564  13.849  22.290  0.00  0.00    +0.000 C 
ATOM     22  C   UNL     1      -2.080  14.571  22.182  0.00  0.00    +0.000 C 
ATOM     23  C   UNL     1      -1.190  14.086  21.088  0.00  0.00    +0.000 C 
ATOM     24  O   UNL     1      -0.476  14.820  20.420  0.00  0.00    +0.000 OA
ATOM     25  H   UNL     1      -0.292  15.628  25.464  0.00  0.00    +0.000 HD
ENDROOT
BRANCH   1  29
ATOM     26  C   UNL     1      -1.976  10.744  17.758  0.00  0.00    +0.000 A 
ATOM     27  C   UNL     1      -2.850  11.731  18.240  0.00  0.00    +0.000 A 
ATOM     28  C   UNL     1      -2.674  12.317  19.502  0.00  0.00    +0.000 A 
ATOM     29  C   UNL     1      -1.577  11.922  20.283  0.00  0.00    +0.000 A 
ATOM     30  C   UNL     1      -0.790  10.844  19.835  0.00  0.00    +0.000 A 
ATOM     31  C   UNL     1      -0.962  10.280  18.577  0.00  0.00    +0.000 A 
BRANCH  26  33
ATOM     32  C   UNL     1      -3.389  10.804  15.855  0.00  0.00    +0.000 C 
ATOM     33  O   UNL     1      -2.218  10.295  16.489  0.00  0.00    +0.000 OA
ENDBRANCH  26  33
ENDBRANCH   1  29
TORSDOF 2
ENDMDL
MODEL 2
REMARK VINA RESULT:      -7.2      2.847      4.816
REMARK  Name = 
REMARK  5 active torsions:
REMARK  status: ('A' for Active; 'I' for Inactive)
REMARK    1  A    between atoms: C_1  and  O_2
REMARK    2  A    between atoms: O_2  and  C_3
REMARK    3  A    between atoms: C_6  and  N_7
REMARK    4  A    between atoms: C_22  and  C_23
REMARK    5  A    between atoms: C_25  and  C_26
REMARK                            x       y       z     vdW  Elec       q    Type
REMARK                         _______ _______ _______ _____ _____    ______ ____
ROOT
ATOM      1  N   UNL     1      -2.125  12.635  22.137  0.00  0.00    +0.000 N 
ATOM      2  C   UNL     1      -3.325  12.943  22.771  0.00  0.00    +0.000 C 
ATOM      3  O   UNL     1      -3.863  12.391  23.727  0.00  0.00    +0.000 OA
ATOM      4  C   UNL     1      -3.859  14.182  21.987  0.00  0.00    +0.000 C 
ATOM      5  C   UNL     1      -5.315  14.515  21.771  0.00  0.00    +0.000 A 
ATOM      6  N   UNL     1      -5.748  15.813  21.660  0.00  0.00    +0.000 N 
ATOM      7  C   UNL     1      -6.095  15.982  20.333  0.00  0.00    +0.000 A 
ATOM      8  C   UNL     1      -6.001  17.135  19.536  0.00  0.00    +0.000 A 
ATOM      9  C   UNL     1      -6.292  17.017  18.180  0.00  0.00    +0.000 A 
ATOM     10  C   UNL     1      -6.725  15.799  17.661  0.00  0.00    +0.000 A 
ATOM     11  C   UNL     1      -6.821  14.654  18.475  0.00  0.00    +0.000 A 
ATOM     12  C   UNL     1      -6.451  14.716  19.841  0.00  0.00    +0.000 A 
ATOM     13  C   UNL     1      -6.059  13.757  20.869  0.00  0.00    +0.000 A 
ATOM     14  C   UNL     1      -5.562  12.337  20.808  0.00  0.00    +0.000 C 
ATOM     15  C   UNL     1      -6.456  11.158  20.605  0.00  0.00    +0.000 C 
ATOM     16  C   UNL     1      -6.702  10.813  19.163  0.00  0.00    +0.000 C 
ATOM     17  C   UNL     1      -7.455   9.472  19.167  0.00  0.00    +0.000 C 
ATOM     18  C   UNL     1      -5.367  10.754  18.401  0.00  0.00    +0.000 C 
ATOM     19  C   UNL     1      -4.422  12.002  18.568  0.00  0.00    +0.000 C 
ATOM     20  C   UNL     1      -3.139  11.681  17.791  0.00  0.00    +0.000 C 
ATOM     21  C   UNL     1      -4.189  12.340  20.076  0.00  0.00    +0.000 C 
ATOM     22  C   UNL     1      -3.375  13.700  20.550  0.00  0.00    +0.000 C 
ATOM     23  C   UNL     1      -1.993  13.492  21.069  0.00  0.00    +0.000 C 
ATOM     24  O   UNL     1      -1.057  14.240  20.824  0.00  0.00    +0.000 OA
ATOM     25  H   UNL     1      -5.386  16.575  22.214  0.00  0.00    +0.000 HD
ENDROOT
BRANCH   1  29
ATOM     26  C   UNL     1       0.498   9.390  21.884  0.00  0.00    +0.000 A 
ATOM     27  C   UNL     1       0.052  10.003  20.702  0.00  0.00    +0.000 A 
ATOM     28  C   UNL     1      -0.950  10.985  20.715  0.00  0.00    +0.000 A 
ATOM     29  C   UNL     1      -1.493  11.380  21.946  0.00  0.00    +0.000 A 
ATOM     30  C   UNL     1      -1.123  10.664  23.101  0.00  0.00    +0.000 A 
ATOM     31  C   UNL     1      -0.119   9.704  23.081  0.00  0.00    +0.000 A 
BRANCH  26  33
ATOM     32  C   UNL     1       1.697   7.936  20.446  0.00  0.00    +0.000 C 
ATOM     33  O   UNL     1       1.521   8.493  21.747  0.00  0.00    +0.000 OA
ENDBRANCH  26  33
ENDBRANCH   1  29
TORSDOF 2
ENDMDL
MODEL 3
REMARK VINA RESULT:      -7.0      3.830      7.590
REMARK  Name = 
REMARK  5 active torsions:
REMARK  status: ('A' for Active; 'I' for Inactive)
REMARK    1  A    between atoms: C_1  and  O_2
REMARK    2  A    between atoms: O_2  and  C_3
REMARK    3  A    between atoms: C_6  and  N_7
REMARK    4  A    between atoms: C_22  and  C_23
REMARK    5  A    between atoms: C_25  and  C_26
REMARK                            x       y       z     vdW  Elec       q    Type
REMARK                         _______ _______ _______ _____ _____    ______ ____
ROOT
ATOM      1  N   UNL     1      -0.057  14.832  20.587  0.00  0.00    +0.000 N 
ATOM      2  C   UNL     1      -1.115  14.105  21.123  0.00  0.00    +0.000 C 
ATOM      3  O   UNL     1      -1.371  13.858  22.299  0.00  0.00    +0.000 OA
ATOM      4  C   UNL     1      -1.936  13.656  19.876  0.00  0.00    +0.000 C 
ATOM      5  C   UNL     1      -2.730  12.377  19.768  0.00  0.00    +0.000 A 
ATOM      6  N   UNL     1      -3.867  12.297  19.003  0.00  0.00    +0.000 N 
ATOM      7  C   UNL     1      -3.531  11.518  17.912  0.00  0.00    +0.000 A 
ATOM      8  C   UNL     1      -4.006  11.595  16.592  0.00  0.00    +0.000 A 
ATOM      9  C   UNL     1      -3.411  10.776  15.635  0.00  0.00    +0.000 A 
ATOM     10  C   UNL     1      -2.423   9.869  16.008  0.00  0.00    +0.000 A 
ATOM     11  C   UNL     1      -1.963   9.798  17.337  0.00  0.00    +0.000 A 
ATOM     12  C   UNL     1      -2.485  10.675  18.320  0.00  0.00    +0.000 A 
ATOM     13  C   UNL     1      -2.054  11.168  19.624  0.00  0.00    +0.000 A 
ATOM     14  C   UNL     1      -0.716  11.204  20.313  0.00  0.00    +0.000 C 
ATOM     15  C   UNL     1      -0.106  10.025  20.997  0.00  0.00    +0.000 C 
ATOM     16  C   UNL     1       0.723   9.152  20.096  0.00  0.00    +0.000 C 
ATOM     17  C   UNL     1       1.422   8.135  21.012  0.00  0.00    +0.000 C 
ATOM     18  C   UNL     1       1.708  10.015  19.289  0.00  0.00    +0.000 C 
ATOM     19  C   UNL     1       1.084  11.244  18.528  0.00  0.00    +0.000 C 
ATOM     20  C   UNL     1       2.255  11.986  17.870  0.00  0.00    +0.000 C 
ATOM     21  C   UNL     1       0.225  12.129  19.488  0.00  0.00    +0.000 C 
ATOM     22  C   UNL     1      -0.685  13.393  18.929  0.00  0.00    +0.000 C 
ATOM     23  C   UNL     1      -0.161  14.759  19.217  0.00  0.00    +0.000 C 
ATOM     24  O   UNL     1      -0.213  15.686  18.421  0.00  0.00    +0.000 OA
ATOM     25  H   UNL     1      -4.552  13.035  18.935  0.00  0.00    +0.000 HD
ENDROOT
BRANCH   1  29
ATOM     26  C   UNL     1       4.052  15.434  21.059  0.00  0.00    +0.000 A 
ATOM     27  C   UNL     1       3.532  14.137  21.190  0.00  0.00    +0.000 A 
ATOM     28  C   UNL     1       2.150  13.897  21.204  0.00  0.00    +0.000 A 
ATOM     29  C   UNL     1       1.274  14.982  21.053  0.00  0.00    +0.000 A 
ATOM     30  C   UNL     1       1.814  16.282  21.052  0.00  0.00    +0.000 A 
ATOM     31  C   UNL     1       3.184  16.510  21.023  0.00  0.00    +0.000 A 
BRANCH  26  33
ATOM     32  C   UNL     1       6.148  14.565  21.746  0.00  0.00    +0.000 C 
ATOM     33  O   UNL     1       5.415  15.532  20.997  0.00  0.00    +0.000 OA
ENDBRANCH  26  33
ENDBRANCH   1  29
TORSDOF 2
ENDMDL
MODEL 4
REMARK VINA RESULT:      -7.0      2.536      4.190
REMARK  Name = 
REMARK  5 active torsions:
REMARK  status: ('A' for Active; 'I' for Inactive)
REMARK    1  A    between atoms: C_1  and  O_2
REMARK    2  A    between atoms: O_2  and  C_3
REMARK    3  A    between atoms: C_6  and  N_7
REMARK    4  A    between atoms: C_22  and  C_23
REMARK    5  A    between atoms: C_25  and  C_26
REMARK                            x       y       z     vdW  Elec       q    Type
REMARK                         _______ _______ _______ _____ _____    ______ ____
ROOT
ATOM      1  N   UNL     1      -1.463  12.877  21.856  0.00  0.00    +0.000 N 
ATOM      2  C   UNL     1      -2.347  13.522  22.717  0.00  0.00    +0.000 C 
ATOM      3  O   UNL     1      -2.676  13.220  23.861  0.00  0.00    +0.000 OA
ATOM      4  C   UNL     1      -2.847  14.750  21.895  0.00  0.00    +0.000 C 
ATOM      5  C   UNL     1      -4.214  15.378  22.011  0.00  0.00    +0.000 A 
ATOM      6  N   UNL     1      -4.411  16.719  21.793  0.00  0.00    +0.000 N 
ATOM      7  C   UNL     1      -5.092  16.808  20.593  0.00  0.00    +0.000 A 
ATOM      8  C   UNL     1      -5.022  17.810  19.611  0.00  0.00    +0.000 A 
ATOM      9  C   UNL     1      -5.712  17.605  18.419  0.00  0.00    +0.000 A 
ATOM     10  C   UNL     1      -6.496  16.466  18.251  0.00  0.00    +0.000 A 
ATOM     11  C   UNL     1      -6.562  15.474  19.248  0.00  0.00    +0.000 A 
ATOM     12  C   UNL     1      -5.805  15.608  20.439  0.00  0.00    +0.000 A 
ATOM     13  C   UNL     1      -5.316  14.711  21.480  0.00  0.00    +0.000 A 
ATOM     14  C   UNL     1      -5.131  13.217  21.540  0.00  0.00    +0.000 C 
ATOM     15  C   UNL     1      -6.247  12.257  21.786  0.00  0.00    +0.000 C 
ATOM     16  C   UNL     1      -6.963  11.812  20.541  0.00  0.00    +0.000 C 
ATOM     17  C   UNL     1      -7.917  10.688  20.974  0.00  0.00    +0.000 C 
ATOM     18  C   UNL     1      -5.942  11.364  19.481  0.00  0.00    +0.000 C 
ATOM     19  C   UNL     1      -4.776  12.375  19.175  0.00  0.00    +0.000 C 
ATOM     20  C   UNL     1      -3.857  11.685  18.159  0.00  0.00    +0.000 C 
ATOM     21  C   UNL     1      -4.055  12.823  20.488  0.00  0.00    +0.000 C 
ATOM     22  C   UNL     1      -2.901  14.009  20.489  0.00  0.00    +0.000 C 
ATOM     23  C   UNL     1      -1.490  13.553  20.659  0.00  0.00    +0.000 C 
ATOM     24  O   UNL     1      -0.545  14.036  20.051  0.00  0.00    +0.000 OA
ATOM     25  H   UNL     1      -3.769  17.438  22.091  0.00  0.00    +0.000 HD
ENDROOT
BRANCH   1  29
ATOM     26  C   UNL     1       0.313   9.100  21.641  0.00  0.00    +0.000 A 
ATOM     27  C   UNL     1      -0.154   9.703  20.463  0.00  0.00    +0.000 A 
ATOM     28  C   UNL     1      -0.902  10.890  20.492  0.00  0.00    +0.000 A 
ATOM     29  C   UNL     1      -1.158  11.498  21.730  0.00  0.00    +0.000 A 
ATOM     30  C   UNL     1      -0.789  10.811  22.901  0.00  0.00    +0.000 A 
ATOM     31  C   UNL     1      -0.036   9.644  22.864  0.00  0.00    +0.000 A 
BRANCH  26  33
ATOM     32  C   UNL     1       1.828   7.902  20.266  0.00  0.00    +0.000 C 
ATOM     33  O   UNL     1       1.082   7.981  21.479  0.00  0.00    +0.000 OA
ENDBRANCH  26  33
ENDBRANCH   1  29
TORSDOF 2
ENDMDL
MODEL 5
REMARK VINA RESULT:      -6.9      3.203      6.015
REMARK  Name = 
REMARK  5 active torsions:
REMARK  status: ('A' for Active; 'I' for Inactive)
REMARK    1  A    between atoms: C_1  and  O_2
REMARK    2  A    between atoms: O_2  and  C_3
REMARK    3  A    between atoms: C_6  and  N_7
REMARK    4  A    between atoms: C_22  and  C_23
REMARK    5  A    between atoms: C_25  and  C_26
REMARK                            x       y       z     vdW  Elec       q    Type
REMARK                         _______ _______ _______ _____ _____    ______ ____
ROOT
ATOM      1  N   UNL     1      -4.077  14.844  22.562  0.00  0.00    +0.000 N 
ATOM      2  C   UNL     1      -5.456  14.936  22.719  0.00  0.00    +0.000 C 
ATOM      3  O   UNL     1      -6.154  14.595  23.671  0.00  0.00    +0.000 OA
ATOM      4  C   UNL     1      -5.946  15.587  21.389  0.00  0.00    +0.000 C 
ATOM      5  C   UNL     1      -7.280  15.329  20.732  0.00  0.00    +0.000 A 
ATOM      6  N   UNL     1      -7.917  16.293  19.991  0.00  0.00    +0.000 N 
ATOM      7  C   UNL     1      -7.824  15.880  18.676  0.00  0.00    +0.000 A 
ATOM      8  C   UNL     1      -7.715  16.658  17.511  0.00  0.00    +0.000 A 
ATOM      9  C   UNL     1      -7.500  15.999  16.303  0.00  0.00    +0.000 A 
ATOM     10  C   UNL     1      -7.463  14.607  16.263  0.00  0.00    +0.000 A 
ATOM     11  C   UNL     1      -7.581  13.841  17.438  0.00  0.00    +0.000 A 
ATOM     12  C   UNL     1      -7.716  14.480  18.696  0.00  0.00    +0.000 A 
ATOM     13  C   UNL     1      -7.498  14.111  20.091  0.00  0.00    +0.000 A 
ATOM     14  C   UNL     1      -6.719  13.001  20.746  0.00  0.00    +0.000 C 
ATOM     15  C   UNL     1      -7.219  11.600  20.864  0.00  0.00    +0.000 C 
ATOM     16  C   UNL     1      -6.885  10.726  19.686  0.00  0.00    +0.000 C 
ATOM     17  C   UNL     1      -7.291   9.298  20.085  0.00  0.00    +0.000 C 
ATOM     18  C   UNL     1      -5.392  10.856  19.342  0.00  0.00    +0.000 C 
ATOM     19  C   UNL     1      -4.847  12.323  19.176  0.00  0.00    +0.000 C 
ATOM     20  C   UNL     1      -3.341  12.200  18.916  0.00  0.00    +0.000 C 
ATOM     21  C   UNL     1      -5.213  13.208  20.411  0.00  0.00    +0.000 C 
ATOM     22  C   UNL     1      -4.916  14.835  20.438  0.00  0.00    +0.000 C 
ATOM     23  C   UNL     1      -3.779  15.282  21.293  0.00  0.00    +0.000 C 
ATOM     24  O   UNL     1      -2.998  16.167  20.972  0.00  0.00    +0.000 OA
ATOM     25  H   UNL     1      -7.933  17.272  20.238  0.00  0.00    +0.000 HD
ENDROOT
BRANCH   1  29
ATOM     26  C   UNL     1      -1.131  11.937  23.149  0.00  0.00    +0.000 A 
ATOM     27  C   UNL     1      -2.482  11.573  23.259  0.00  0.00    +0.000 A 
ATOM     28  C   UNL     1      -3.507  12.531  23.235  0.00  0.00    +0.000 A 
ATOM     29  C   UNL     1      -3.165  13.881  23.065  0.00  0.00    +0.000 A 
ATOM     30  C   UNL     1      -1.803  14.234  23.084  0.00  0.00    +0.000 A 
ATOM     31  C   UNL     1      -0.795  13.277  23.093  0.00  0.00    +0.000 A 
BRANCH  26  33
ATOM     32  C   UNL     1      -0.760   9.619  22.817  0.00  0.00    +0.000 C 
ATOM     33  O   UNL     1      -0.231  10.907  23.124  0.00  0.00    +0.000 OA
ENDBRANCH  26  33
ENDBRANCH   1  29
TORSDOF 2
ENDMDL
MODEL 6
REMARK VINA RESULT:      -6.7      2.453      4.515
REMARK  Name = 
REMARK  5 active torsions:
REMARK  status: ('A' for Active; 'I' for Inactive)
REMARK    1  A    between atoms: C_1  and  O_2
REMARK    2  A    between atoms: O_2  and  C_3
REMARK    3  A    between atoms: C_6  and  N_7
REMARK    4  A    between atoms: C_22  and  C_23
REMARK    5  A    between atoms: C_25  and  C_26
REMARK                            x       y       z     vdW  Elec       q    Type
REMARK                         _______ _______ _______ _____ _____    ______ ____
ROOT
ATOM      1  N   UNL     1      -1.310  11.695  20.945  0.00  0.00    +0.000 N 
ATOM      2  C   UNL     1      -2.435  12.504  21.067  0.00  0.00    +0.000 C 
ATOM      3  O   UNL     1      -3.336  12.711  20.258  0.00  0.00    +0.000 OA
ATOM      4  C   UNL     1      -2.309  13.112  22.498  0.00  0.00    +0.000 C 
ATOM      5  C   UNL     1      -2.805  14.476  22.912  0.00  0.00    +0.000 A 
ATOM      6  N   UNL     1      -3.241  14.727  24.190  0.00  0.00    +0.000 N 
ATOM      7  C   UNL     1      -2.272  15.525  24.768  0.00  0.00    +0.000 A 
ATOM      8  C   UNL     1      -1.856  15.577  26.109  0.00  0.00    +0.000 A 
ATOM      9  C   UNL     1      -0.760  16.377  26.422  0.00  0.00    +0.000 A 
ATOM     10  C   UNL     1      -0.150  17.145  25.433  0.00  0.00    +0.000 A 
ATOM     11  C   UNL     1      -0.584  17.088  24.095  0.00  0.00    +0.000 A 
ATOM     12  C   UNL     1      -1.642  16.221  23.724  0.00  0.00    +0.000 A 
ATOM     13  C   UNL     1      -2.114  15.609  22.487  0.00  0.00    +0.000 A 
ATOM     14  C   UNL     1      -1.469  15.383  21.145  0.00  0.00    +0.000 C 
ATOM     15  C   UNL     1      -1.333  16.446  20.105  0.00  0.00    +0.000 C 
ATOM     16  C   UNL     1      -0.082  17.271  20.228  0.00  0.00    +0.000 C 
ATOM     17  C   UNL     1      -0.024  18.150  18.968  0.00  0.00    +0.000 C 
ATOM     18  C   UNL     1       1.141  16.350  20.379  0.00  0.00    +0.000 C 
ATOM     19  C   UNL     1       1.038  15.244  21.494  0.00  0.00    +0.000 C 
ATOM     20  C   UNL     1       2.325  14.415  21.403  0.00  0.00    +0.000 C 
ATOM     21  C   UNL     1      -0.274  14.407  21.344  0.00  0.00    +0.000 C 
ATOM     22  C   UNL     1      -0.728  13.288  22.474  0.00  0.00    +0.000 C 
ATOM     23  C   UNL     1      -0.561  11.857  22.087  0.00  0.00    +0.000 C 
ATOM     24  O   UNL     1      -0.172  10.989  22.855  0.00  0.00    +0.000 OA
ATOM     25  H   UNL     1      -3.785  14.075  24.736  0.00  0.00    +0.000 HD
ENDROOT
BRANCH   1  29
ATOM     26  C   UNL     1       1.115   9.943  18.026  0.00  0.00    +0.000 A 
ATOM     27  C   UNL     1       1.618  11.016  18.779  0.00  0.00    +0.000 A 
ATOM     28  C   UNL     1       0.801  11.747  19.654  0.00  0.00    +0.000 A 
ATOM     29  C   UNL     1      -0.542  11.371  19.797  0.00  0.00    +0.000 A 
ATOM     30  C   UNL     1      -1.054  10.377  18.941  0.00  0.00    +0.000 A 
ATOM     31  C   UNL     1      -0.235   9.647  18.088  0.00  0.00    +0.000 A 
BRANCH  26  33
ATOM     32  C   UNL     1       2.657   8.148  17.867  0.00  0.00    +0.000 C 
ATOM     33  O   UNL     1       2.024   9.271  17.256  0.00  0.00    +0.000 OA
ENDBRANCH  26  33
ENDBRANCH   1  29
TORSDOF 2
ENDMDL
MODEL 7
REMARK VINA RESULT:      -6.7      3.030      4.976
REMARK  Name = 
REMARK  5 active torsions:
REMARK  status: ('A' for Active; 'I' for Inactive)
REMARK    1  A    between atoms: C_1  and  O_2
REMARK    2  A    between atoms: O_2  and  C_3
REMARK    3  A    between atoms: C_6  and  N_7
REMARK    4  A    between atoms: C_22  and  C_23
REMARK    5  A    between atoms: C_25  and  C_26
REMARK                            x       y       z     vdW  Elec       q    Type
REMARK                         _______ _______ _______ _____ _____    ______ ____
ROOT
ATOM      1  N   UNL     1      -6.400  15.149  21.735  0.00  0.00    +0.000 N 
ATOM      2  C   UNL     1      -5.378  15.870  21.125  0.00  0.00    +0.000 C 
ATOM      3  O   UNL     1      -5.083  15.944  19.935  0.00  0.00    +0.000 OA
ATOM      4  C   UNL     1      -4.664  16.590  22.310  0.00  0.00    +0.000 C 
ATOM      5  C   UNL     1      -3.195  16.929  22.365  0.00  0.00    +0.000 A 
ATOM      6  N   UNL     1      -2.735  18.031  23.044  0.00  0.00    +0.000 N 
ATOM      7  C   UNL     1      -2.088  17.541  24.162  0.00  0.00    +0.000 A 
ATOM      8  C   UNL     1      -1.982  18.111  25.442  0.00  0.00    +0.000 A 
ATOM      9  C   UNL     1      -1.384  17.354  26.446  0.00  0.00    +0.000 A 
ATOM     10  C   UNL     1      -0.855  16.099  26.156  0.00  0.00    +0.000 A 
ATOM     11  C   UNL     1      -0.962  15.545  24.866  0.00  0.00    +0.000 A 
ATOM     12  C   UNL     1      -1.639  16.250  23.839  0.00  0.00    +0.000 A 
ATOM     13  C   UNL     1      -2.269  15.908  22.568  0.00  0.00    +0.000 A 
ATOM     14  C   UNL     1      -2.752  14.608  21.982  0.00  0.00    +0.000 C 
ATOM     15  C   UNL     1      -1.847  13.599  21.355  0.00  0.00    +0.000 C 
ATOM     16  C   UNL     1      -1.276  12.600  22.322  0.00  0.00    +0.000 C 
ATOM     17  C   UNL     1      -0.558  11.542  21.469  0.00  0.00    +0.000 C 
ATOM     18  C   UNL     1      -2.397  12.012  23.195  0.00  0.00    +0.000 C 
ATOM     19  C   UNL     1      -3.343  13.056  23.898  0.00  0.00    +0.000 C 
ATOM     20  C   UNL     1      -4.413  12.243  24.637  0.00  0.00    +0.000 C 
ATOM     21  C   UNL     1      -3.917  14.084  22.870  0.00  0.00    +0.000 C 
ATOM     22  C   UNL     1      -4.805  15.395  23.350  0.00  0.00    +0.000 C 
ATOM     23  C   UNL     1      -6.273  15.325  23.093  0.00  0.00    +0.000 C 
ATOM     24  O   UNL     1      -7.118  15.734  23.876  0.00  0.00    +0.000 OA
ATOM     25  H   UNL     1      -3.209  18.922  23.055  0.00  0.00    +0.000 HD
ENDROOT
BRANCH   1  29
ATOM     26  C   UNL     1      -7.455  11.139  21.210  0.00  0.00    +0.000 A 
ATOM     27  C   UNL     1      -6.842  11.828  20.152  0.00  0.00    +0.000 A 
ATOM     28  C   UNL     1      -6.614  13.212  20.209  0.00  0.00    +0.000 A 
ATOM     29  C   UNL     1      -6.984  13.909  21.369  0.00  0.00    +0.000 A 
ATOM     30  C   UNL     1      -7.709  13.222  22.361  0.00  0.00    +0.000 A 
ATOM     31  C   UNL     1      -7.917  11.849  22.303  0.00  0.00    +0.000 A 
BRANCH  26  33
ATOM     32  C   UNL     1      -7.127   9.253  19.810  0.00  0.00    +0.000 C 
ATOM     33  O   UNL     1      -7.565   9.784  21.059  0.00  0.00    +0.000 OA
ENDBRANCH  26  33
ENDBRANCH   1  29
TORSDOF 2
ENDMDL
MODEL 8
REMARK VINA RESULT:      -6.6      1.843      3.372
REMARK  Name = 
REMARK  5 active torsions:
REMARK  status: ('A' for Active; 'I' for Inactive)
REMARK    1  A    between atoms: C_1  and  O_2
REMARK    2  A    between atoms: O_2  and  C_3
REMARK    3  A    between atoms: C_6  and  N_7
REMARK    4  A    between atoms: C_22  and  C_23
REMARK    5  A    between atoms: C_25  and  C_26
REMARK                            x       y       z     vdW  Elec       q    Type
REMARK                         _______ _______ _______ _____ _____    ______ ____
ROOT
ATOM      1  N   UNL     1      -2.072  11.926  21.533  0.00  0.00    +0.000 N 
ATOM      2  C   UNL     1      -3.193  12.448  22.171  0.00  0.00    +0.000 C 
ATOM      3  O   UNL     1      -4.378  12.341  21.869  0.00  0.00    +0.000 OA
ATOM      4  C   UNL     1      -2.608  13.220  23.393  0.00  0.00    +0.000 C 
ATOM      5  C   UNL     1      -3.208  14.460  24.009  0.00  0.00    +0.000 A 
ATOM      6  N   UNL     1      -3.077  14.736  25.347  0.00  0.00    +0.000 N 
ATOM      7  C   UNL     1      -2.202  15.803  25.428  0.00  0.00    +0.000 A 
ATOM      8  C   UNL     1      -1.262  16.099  26.429  0.00  0.00    +0.000 A 
ATOM      9  C   UNL     1      -0.397  17.170  26.215  0.00  0.00    +0.000 A 
ATOM     10  C   UNL     1      -0.520  17.951  25.069  0.00  0.00    +0.000 A 
ATOM     11  C   UNL     1      -1.473  17.645  24.078  0.00  0.00    +0.000 A 
ATOM     12  C   UNL     1      -2.313  16.512  24.222  0.00  0.00    +0.000 A 
ATOM     13  C   UNL     1      -3.107  15.673  23.330  0.00  0.00    +0.000 A 
ATOM     14  C   UNL     1      -3.095  15.466  21.839  0.00  0.00    +0.000 C 
ATOM     15  C   UNL     1      -3.724  16.410  20.869  0.00  0.00    +0.000 C 
ATOM     16  C   UNL     1      -2.818  17.521  20.415  0.00  0.00    +0.000 C 
ATOM     17  C   UNL     1      -3.563  18.245  19.283  0.00  0.00    +0.000 C 
ATOM     18  C   UNL     1      -1.461  16.945  19.974  0.00  0.00    +0.000 C 
ATOM     19  C   UNL     1      -0.758  15.975  20.996  0.00  0.00    +0.000 C 
ATOM     20  C   UNL     1       0.521  15.477  20.312  0.00  0.00    +0.000 C 
ATOM     21  C   UNL     1      -1.725  14.835  21.453  0.00  0.00    +0.000 C 
ATOM     22  C   UNL     1      -1.314  13.769  22.649  0.00  0.00    +0.000 C 
ATOM     23  C   UNL     1      -0.965  12.388  22.207  0.00  0.00    +0.000 C 
ATOM     24  O   UNL     1      -0.059  11.728  22.697  0.00  0.00    +0.000 OA
ATOM     25  H   UNL     1      -3.126  14.036  26.073  0.00  0.00    +0.000 HD
ENDROOT
BRANCH   1  29
ATOM     26  C   UNL     1      -2.087  10.562  17.582  0.00  0.00    +0.000 A 
ATOM     27  C   UNL     1      -1.024  10.201  18.426  0.00  0.00    +0.000 A 
ATOM     28  C   UNL     1      -0.880  10.758  19.706  0.00  0.00    +0.000 A 
ATOM     29  C   UNL     1      -1.842  11.674  20.157  0.00  0.00    +0.000 A 
ATOM     30  C   UNL     1      -2.823  12.114  19.249  0.00  0.00    +0.000 A 
ATOM     31  C   UNL     1      -2.969  11.547  17.989  0.00  0.00    +0.000 A 
BRANCH  26  33
ATOM     32  C   UNL     1      -2.887  10.558  15.351  0.00  0.00    +0.000 C 
ATOM     33  O   UNL     1      -2.153   9.905  16.385  0.00  0.00    +0.000 OA
ENDBRANCH  26  33
ENDBRANCH   1  29
TORSDOF 2
ENDMDL
MODEL 9
REMARK VINA RESULT:      -6.6      0.885      1.141
REMARK  Name = 
REMARK  5 active torsions:
REMARK  status: ('A' for Active; 'I' for Inactive)
REMARK    1  A    between atoms: C_1  and  O_2
REMARK    2  A    between atoms: O_2  and  C_3
REMARK    3  A    between atoms: C_6  and  N_7
REMARK    4  A    between atoms: C_22  and  C_23
REMARK    5  A    between atoms: C_25  and  C_26
REMARK                            x       y       z     vdW  Elec       q    Type
REMARK                         _______ _______ _______ _____ _____    ______ ____
ROOT
ATOM      1  N   UNL     1      -1.358  13.418  20.777  0.00  0.00    +0.000 N 
ATOM      2  C   UNL     1      -1.341  12.951  22.087  0.00  0.00    +0.000 C 
ATOM      3  O   UNL     1      -1.368  11.794  22.500  0.00  0.00    +0.000 OA
ATOM      4  C   UNL     1      -1.276  14.248  22.951  0.00  0.00    +0.000 C 
ATOM      5  C   UNL     1      -1.880  14.412  24.324  0.00  0.00    +0.000 A 
ATOM      6  N   UNL     1      -1.321  15.244  25.262  0.00  0.00    +0.000 N 
ATOM      7  C   UNL     1      -2.181  16.320  25.372  0.00  0.00    +0.000 A 
ATOM      8  C   UNL     1      -1.883  17.664  25.648  0.00  0.00    +0.000 A 
ATOM      9  C   UNL     1      -2.919  18.591  25.574  0.00  0.00    +0.000 A 
ATOM     10  C   UNL     1      -4.217  18.170  25.298  0.00  0.00    +0.000 A 
ATOM     11  C   UNL     1      -4.502  16.816  25.032  0.00  0.00    +0.000 A 
ATOM     12  C   UNL     1      -3.458  15.858  25.014  0.00  0.00    +0.000 A 
ATOM     13  C   UNL     1      -3.263  14.527  24.449  0.00  0.00    +0.000 A 
ATOM     14  C   UNL     1      -3.975  13.760  23.365  0.00  0.00    +0.000 C 
ATOM     15  C   UNL     1      -5.273  13.053  23.571  0.00  0.00    +0.000 C 
ATOM     16  C   UNL     1      -6.486  13.911  23.339  0.00  0.00    +0.000 C 
ATOM     17  C   UNL     1      -7.696  12.965  23.392  0.00  0.00    +0.000 C 
ATOM     18  C   UNL     1      -6.356  14.652  21.997  0.00  0.00    +0.000 C 
ATOM     19  C   UNL     1      -5.011  15.437  21.770  0.00  0.00    +0.000 C 
ATOM     20  C   UNL     1      -5.082  16.019  20.353  0.00  0.00    +0.000 C 
ATOM     21  C   UNL     1      -3.769  14.522  22.024  0.00  0.00    +0.000 C 
ATOM     22  C   UNL     1      -2.228  15.122  22.023  0.00  0.00    +0.000 C 
ATOM     23  C   UNL     1      -1.394  14.792  20.832  0.00  0.00    +0.000 C 
ATOM     24  O   UNL     1      -0.623  15.581  20.305  0.00  0.00    +0.000 OA
ATOM     25  H   UNL     1      -0.326  15.345  25.402  0.00  0.00    +0.000 HD
ENDROOT
BRANCH   1  29
ATOM     26  C   UNL     1      -3.164  11.018  17.871  0.00  0.00    +0.000 A 
ATOM     27  C   UNL     1      -1.847  11.459  17.670  0.00  0.00    +0.000 A 
ATOM     28  C   UNL     1      -1.247  12.395  18.526  0.00  0.00    +0.000 A 
ATOM     29  C   UNL     1      -1.978  12.873  19.623  0.00  0.00    +0.000 A 
ATOM     30  C   UNL     1      -3.334  12.514  19.731  0.00  0.00    +0.000 A 
ATOM     31  C   UNL     1      -3.917  11.575  18.889  0.00  0.00    +0.000 A 
BRANCH  26  33
ATOM     32  C   UNL     1      -3.070  10.096  15.688  0.00  0.00    +0.000 C 
ATOM     33  O   UNL     1      -3.615  10.059  17.006  0.00  0.00    +0.000 OA
ENDBRANCH  26  33
ENDBRANCH   1  29
TORSDOF 2
ENDMDL
