MODEL 1
REMARK VINA RESULT:      -5.7      0.000      0.000
REMARK  Name = 
REMARK  3 active torsions:
REMARK  status: ('A' for Active; 'I' for Inactive)
REMARK    1  A    between atoms: C_1  and  C_2
REMARK    2  A    between atoms: C_5  and  S_6
REMARK    3  A    between atoms: S_6  and  C_9
REMARK                            x       y       z     vdW  Elec       q    Type
REMARK                         _______ _______ _______ _____ _____    ______ ____
ROOT
ATOM      1  C   UNL     1       7.326   4.953  13.535  0.00  0.00    +0.000 C 
ATOM      2  C   UNL     1       6.694   4.729  14.878  0.00  0.00    +0.000 A 
ATOM      3  C   UNL     1       5.319   4.485  14.992  0.00  0.00    +0.000 A 
ATOM      4  C   UNL     1       4.729   4.328  16.249  0.00  0.00    +0.000 A 
ATOM      5  C   UNL     1       5.526   4.401  17.396  0.00  0.00    +0.000 A 
ATOM      6  C   UNL     1       6.898   4.642  17.297  0.00  0.00    +0.000 A 
ATOM      7  C   UNL     1       7.477   4.806  16.038  0.00  0.00    +0.000 A 
ENDROOT
BRANCH   5   8
ATOM      8  S   UNL     1       4.760   4.268  19.003  0.00  0.00    +0.000 S 
ATOM      9  O   UNL     1       4.918   2.891  19.440  0.00  0.00    +0.000 OA
ATOM     10  O   UNL     1       5.337   5.349  19.783  0.00  0.00    +0.000 OA
BRANCH   8  11
ATOM     11  C   UNL     1       3.018   4.629  18.717  0.00  0.00    +0.000 C 
ATOM     12  I   UNL     1       1.755   3.997  20.308  0.00  0.00    +0.000 I 
ATOM     13  I   UNL     1       2.715   6.748  18.531  0.00  0.00    +0.000 I 
ENDBRANCH   8  11
ENDBRANCH   5   8
TORSDOF 2
ENDMDL
MODEL 2
REMARK VINA RESULT:      -5.7      0.396      1.385
REMARK  Name = 
REMARK  3 active torsions:
REMARK  status: ('A' for Active; 'I' for Inactive)
REMARK    1  A    between atoms: C_1  and  C_2
REMARK    2  A    between atoms: C_5  and  S_6
REMARK    3  A    between atoms: S_6  and  C_9
REMARK                            x       y       z     vdW  Elec       q    Type
REMARK                         _______ _______ _______ _____ _____    ______ ____
ROOT
ATOM      1  C   UNL     1       6.973   4.309  13.346  0.00  0.00    +0.000 C 
ATOM      2  C   UNL     1       6.454   4.368  14.752  0.00  0.00    +0.000 A 
ATOM      3  C   UNL     1       7.282   4.777  15.807  0.00  0.00    +0.000 A 
ATOM      4  C   UNL     1       6.806   4.782  17.121  0.00  0.00    +0.000 A 
ATOM      5  C   UNL     1       5.489   4.388  17.376  0.00  0.00    +0.000 A 
ATOM      6  C   UNL     1       4.652   3.979  16.335  0.00  0.00    +0.000 A 
ATOM      7  C   UNL     1       5.137   3.971  15.027  0.00  0.00    +0.000 A 
ENDROOT
BRANCH   5   8
ATOM      8  S   UNL     1       4.905   4.329  19.062  0.00  0.00    +0.000 S 
ATOM      9  O   UNL     1       5.132   2.979  19.547  0.00  0.00    +0.000 OA
ATOM     10  O   UNL     1       5.544   5.456  19.719  0.00  0.00    +0.000 OA
BRANCH   8  11
ATOM     11  C   UNL     1       3.135   4.655  18.950  0.00  0.00    +0.000 C 
ATOM     12  I   UNL     1       2.100   4.315  20.777  0.00  0.00    +0.000 I 
ATOM     13  I   UNL     1       2.786   6.716  18.450  0.00  0.00    +0.000 I 
ENDBRANCH   8  11
ENDBRANCH   5   8
TORSDOF 2
ENDMDL
MODEL 3
REMARK VINA RESULT:      -5.6      2.431      3.177
REMARK  Name = 
REMARK  3 active torsions:
REMARK  status: ('A' for Active; 'I' for Inactive)
REMARK    1  A    between atoms: C_1  and  C_2
REMARK    2  A    between atoms: C_5  and  S_6
REMARK    3  A    between atoms: S_6  and  C_9
REMARK                            x       y       z     vdW  Elec       q    Type
REMARK                         _______ _______ _______ _____ _____    ______ ____
ROOT
ATOM      1  C   UNL     1       8.079   8.302  17.500  0.00  0.00    +0.000 C 
ATOM      2  C   UNL     1       7.194   7.151  17.879  0.00  0.00    +0.000 A 
ATOM      3  C   UNL     1       7.630   6.180  18.792  0.00  0.00    +0.000 A 
ATOM      4  C   UNL     1       6.819   5.085  19.102  0.00  0.00    +0.000 A 
ATOM      5  C   UNL     1       5.560   4.971  18.505  0.00  0.00    +0.000 A 
ATOM      6  C   UNL     1       5.113   5.931  17.595  0.00  0.00    +0.000 A 
ATOM      7  C   UNL     1       5.931   7.018  17.285  0.00  0.00    +0.000 A 
ENDROOT
BRANCH   5   8
ATOM      8  S   UNL     1       4.555   3.536  18.850  0.00  0.00    +0.000 S 
ATOM      9  O   UNL     1       4.359   2.839  17.590  0.00  0.00    +0.000 OA
ATOM     10  O   UNL     1       5.222   2.869  19.954  0.00  0.00    +0.000 OA
BRANCH   8  11
ATOM     11  C   UNL     1       2.987   4.200  19.439  0.00  0.00    +0.000 C 
ATOM     12  I   UNL     1       1.461   4.193  17.957  0.00  0.00    +0.000 I 
ATOM     13  I   UNL     1       2.236   3.010  21.063  0.00  0.00    +0.000 I 
ENDBRANCH   8  11
ENDBRANCH   5   8
TORSDOF 2
ENDMDL
MODEL 4
REMARK VINA RESULT:      -5.6      2.357      2.951
REMARK  Name = 
REMARK  3 active torsions:
REMARK  status: ('A' for Active; 'I' for Inactive)
REMARK    1  A    between atoms: C_1  and  C_2
REMARK    2  A    between atoms: C_5  and  S_6
REMARK    3  A    between atoms: S_6  and  C_9
REMARK                            x       y       z     vdW  Elec       q    Type
REMARK                         _______ _______ _______ _____ _____    ______ ____
ROOT
ATOM      1  C   UNL     1       7.612   7.182  17.624  0.00  0.00    +0.000 C 
ATOM      2  C   UNL     1       6.447   6.252  17.799  0.00  0.00    +0.000 A 
ATOM      3  C   UNL     1       6.412   5.337  18.860  0.00  0.00    +0.000 A 
ATOM      4  C   UNL     1       5.348   4.441  18.988  0.00  0.00    +0.000 A 
ATOM      5  C   UNL     1       4.307   4.473  18.055  0.00  0.00    +0.000 A 
ATOM      6  C   UNL     1       4.328   5.380  16.994  0.00  0.00    +0.000 A 
ATOM      7  C   UNL     1       5.398   6.266  16.869  0.00  0.00    +0.000 A 
ENDROOT
BRANCH   5   8
ATOM      8  S   UNL     1       2.983   3.282  18.181  0.00  0.00    +0.000 S 
ATOM      9  O   UNL     1       2.329   3.231  16.884  0.00  0.00    +0.000 OA
ATOM     10  O   UNL     1       3.603   2.090  18.731  0.00  0.00    +0.000 OA
BRANCH   8  11
ATOM     11  C   UNL     1       1.859   3.967  19.412  0.00  0.00    +0.000 C 
ATOM     12  I   UNL     1       1.990   2.999  21.302  0.00  0.00    +0.000 I 
ATOM     13  I   UNL     1       2.322   6.034  19.776  0.00  0.00    +0.000 I 
ENDBRANCH   8  11
ENDBRANCH   5   8
TORSDOF 2
ENDMDL
MODEL 5
REMARK VINA RESULT:      -5.5      2.240      2.683
REMARK  Name = 
REMARK  3 active torsions:
REMARK  status: ('A' for Active; 'I' for Inactive)
REMARK    1  A    between atoms: C_1  and  C_2
REMARK    2  A    between atoms: C_5  and  S_6
REMARK    3  A    between atoms: S_6  and  C_9
REMARK                            x       y       z     vdW  Elec       q    Type
REMARK                         _______ _______ _______ _____ _____    ______ ____
ROOT
ATOM      1  C   UNL     1       7.551   7.164  17.587  0.00  0.00    +0.000 C 
ATOM      2  C   UNL     1       6.450   6.150  17.689  0.00  0.00    +0.000 A 
ATOM      3  C   UNL     1       5.493   6.024  16.672  0.00  0.00    +0.000 A 
ATOM      4  C   UNL     1       4.442   5.112  16.797  0.00  0.00    +0.000 A 
ATOM      5  C   UNL     1       4.359   4.312  17.940  0.00  0.00    +0.000 A 
ATOM      6  C   UNL     1       5.306   4.425  18.960  0.00  0.00    +0.000 A 
ATOM      7  C   UNL     1       6.348   5.343  18.831  0.00  0.00    +0.000 A 
ENDROOT
BRANCH   5   8
ATOM      8  S   UNL     1       2.978   3.196  18.128  0.00  0.00    +0.000 S 
ATOM      9  O   UNL     1       2.307   3.124  16.841  0.00  0.00    +0.000 OA
ATOM     10  O   UNL     1       3.543   1.998  18.722  0.00  0.00    +0.000 OA
BRANCH   8  11
ATOM     11  C   UNL     1       1.905   3.990  19.340  0.00  0.00    +0.000 C 
ATOM     12  I   UNL     1       2.081   3.160  21.290  0.00  0.00    +0.000 I 
ATOM     13  I   UNL     1       2.411   6.069  19.536  0.00  0.00    +0.000 I 
ENDBRANCH   8  11
ENDBRANCH   5   8
TORSDOF 2
ENDMDL
MODEL 6
REMARK VINA RESULT:      -5.5      0.943      2.066
REMARK  Name = 
REMARK  3 active torsions:
REMARK  status: ('A' for Active; 'I' for Inactive)
REMARK    1  A    between atoms: C_1  and  C_2
REMARK    2  A    between atoms: C_5  and  S_6
REMARK    3  A    between atoms: S_6  and  C_9
REMARK                            x       y       z     vdW  Elec       q    Type
REMARK                         _______ _______ _______ _____ _____    ______ ____
ROOT
ATOM      1  C   UNL     1       6.433   3.970  13.262  0.00  0.00    +0.000 C 
ATOM      2  C   UNL     1       6.164   4.167  14.725  0.00  0.00    +0.000 A 
ATOM      3  C   UNL     1       7.102   4.805  15.548  0.00  0.00    +0.000 A 
ATOM      4  C   UNL     1       6.866   4.940  16.919  0.00  0.00    +0.000 A 
ATOM      5  C   UNL     1       5.677   4.446  17.463  0.00  0.00    +0.000 A 
ATOM      6  C   UNL     1       4.733   3.810  16.655  0.00  0.00    +0.000 A 
ATOM      7  C   UNL     1       4.979   3.672  15.289  0.00  0.00    +0.000 A 
ENDROOT
BRANCH   5   8
ATOM      8  S   UNL     1       5.408   4.559  19.225  0.00  0.00    +0.000 S 
ATOM      9  O   UNL     1       5.116   3.217  19.699  0.00  0.00    +0.000 OA
ATOM     10  O   UNL     1       6.564   5.275  19.735  0.00  0.00    +0.000 OA
BRANCH   8  11
ATOM     11  C   UNL     1       3.954   5.608  19.405  0.00  0.00    +0.000 C 
ATOM     12  I   UNL     1       3.685   6.958  17.784  0.00  0.00    +0.000 I 
ATOM     13  I   UNL     1       2.172   4.408  19.473  0.00  0.00    +0.000 I 
ENDBRANCH   8  11
ENDBRANCH   5   8
TORSDOF 2
ENDMDL
MODEL 7
REMARK VINA RESULT:      -5.4      0.904      2.131
REMARK  Name = 
REMARK  3 active torsions:
REMARK  status: ('A' for Active; 'I' for Inactive)
REMARK    1  A    between atoms: C_1  and  C_2
REMARK    2  A    between atoms: C_5  and  S_6
REMARK    3  A    between atoms: S_6  and  C_9
REMARK                            x       y       z     vdW  Elec       q    Type
REMARK                         _______ _______ _______ _____ _____    ______ ____
ROOT
ATOM      1  C   UNL     1       7.535   5.260  14.059  0.00  0.00    +0.000 C 
ATOM      2  C   UNL     1       6.706   4.886  15.252  0.00  0.00    +0.000 A 
ATOM      3  C   UNL     1       7.189   5.086  16.553  0.00  0.00    +0.000 A 
ATOM      4  C   UNL     1       6.432   4.689  17.658  0.00  0.00    +0.000 A 
ATOM      5  C   UNL     1       5.179   4.104  17.458  0.00  0.00    +0.000 A 
ATOM      6  C   UNL     1       4.685   3.899  16.168  0.00  0.00    +0.000 A 
ATOM      7  C   UNL     1       5.450   4.292  15.069  0.00  0.00    +0.000 A 
ENDROOT
BRANCH   5   8
ATOM      8  S   UNL     1       4.243   3.535  18.869  0.00  0.00    +0.000 S 
ATOM      9  O   UNL     1       3.161   2.710  18.360  0.00  0.00    +0.000 OA
ATOM     10  O   UNL     1       5.231   2.965  19.768  0.00  0.00    +0.000 OA
BRANCH   8  11
ATOM     11  C   UNL     1       3.578   5.034  19.617  0.00  0.00    +0.000 C 
ATOM     12  I   UNL     1       3.117   6.549  18.198  0.00  0.00    +0.000 I 
ATOM     13  I   UNL     1       1.737   4.604  20.640  0.00  0.00    +0.000 I 
ENDBRANCH   8  11
ENDBRANCH   5   8
TORSDOF 2
ENDMDL
MODEL 8
REMARK VINA RESULT:      -5.4      2.839      3.204
REMARK  Name = 
REMARK  3 active torsions:
REMARK  status: ('A' for Active; 'I' for Inactive)
REMARK    1  A    between atoms: C_1  and  C_2
REMARK    2  A    between atoms: C_5  and  S_6
REMARK    3  A    between atoms: S_6  and  C_9
REMARK                            x       y       z     vdW  Elec       q    Type
REMARK                         _______ _______ _______ _____ _____    ______ ____
ROOT
ATOM      1  C   UNL     1       7.370   6.329  18.065  0.00  0.00    +0.000 C 
ATOM      2  C   UNL     1       6.037   5.640  18.055  0.00  0.00    +0.000 A 
ATOM      3  C   UNL     1       4.952   6.187  17.356  0.00  0.00    +0.000 A 
ATOM      4  C   UNL     1       3.701   5.566  17.393  0.00  0.00    +0.000 A 
ATOM      5  C   UNL     1       3.541   4.385  18.123  0.00  0.00    +0.000 A 
ATOM      6  C   UNL     1       4.613   3.829  18.824  0.00  0.00    +0.000 A 
ATOM      7  C   UNL     1       5.857   4.458  18.787  0.00  0.00    +0.000 A 
ENDROOT
BRANCH   5   8
ATOM      8  S   UNL     1       1.925   3.631  18.225  0.00  0.00    +0.000 S 
ATOM      9  O   UNL     1       1.110   4.224  17.178  0.00  0.00    +0.000 OA
ATOM     10  O   UNL     1       2.179   2.201  18.229  0.00  0.00    +0.000 OA
BRANCH   8  11
ATOM     11  C   UNL     1       1.294   4.109  19.844  0.00  0.00    +0.000 C 
ATOM     12  I   UNL     1       1.947   2.829  21.413  0.00  0.00    +0.000 I 
ATOM     13  I   UNL     1       1.985   6.077  20.364  0.00  0.00    +0.000 I 
ENDBRANCH   8  11
ENDBRANCH   5   8
TORSDOF 2
ENDMDL
MODEL 9
REMARK VINA RESULT:      -5.4      2.436      3.006
REMARK  Name = 
REMARK  3 active torsions:
REMARK  status: ('A' for Active; 'I' for Inactive)
REMARK    1  A    between atoms: C_1  and  C_2
REMARK    2  A    between atoms: C_5  and  S_6
REMARK    3  A    between atoms: S_6  and  C_9
REMARK                            x       y       z     vdW  Elec       q    Type
REMARK                         _______ _______ _______ _____ _____    ______ ____
ROOT
ATOM      1  C   UNL     1       7.850   7.935  17.462  0.00  0.00    +0.000 C 
ATOM      2  C   UNL     1       6.798   6.897  17.714  0.00  0.00    +0.000 A 
ATOM      3  C   UNL     1       5.560   6.954  17.057  0.00  0.00    +0.000 A 
ATOM      4  C   UNL     1       4.567   6.012  17.335  0.00  0.00    +0.000 A 
ATOM      5  C   UNL     1       4.820   4.998  18.263  0.00  0.00    +0.000 A 
ATOM      6  C   UNL     1       6.048   4.928  18.924  0.00  0.00    +0.000 A 
ATOM      7  C   UNL     1       7.033   5.877  18.647  0.00  0.00    +0.000 A 
ENDROOT
BRANCH   5   8
ATOM      8  S   UNL     1       3.526   3.837  18.667  0.00  0.00    +0.000 S 
ATOM      9  O   UNL     1       2.467   4.019  17.688  0.00  0.00    +0.000 OA
ATOM     10  O   UNL     1       4.197   2.554  18.783  0.00  0.00    +0.000 OA
BRANCH   8  11
ATOM     11  C   UNL     1       2.949   4.336  20.300  0.00  0.00    +0.000 C 
ATOM     12  I   UNL     1       1.897   6.185  20.291  0.00  0.00    +0.000 I 
ATOM     13  I   UNL     1       1.576   2.880  21.084  0.00  0.00    +0.000 I 
ENDBRANCH   8  11
ENDBRANCH   5   8
TORSDOF 2
ENDMDL
