MODEL 1
REMARK VINA RESULT:      -8.6      0.000      0.000
REMARK  Name = 
REMARK  3 active torsions:
REMARK  status: ('A' for Active; 'I' for Inactive)
REMARK    1  A    between atoms: C_2  and  C_3
REMARK    2  A    between atoms: C_2  and  C_16
REMARK    3  A    between atoms: C_4  and  C_5
REMARK                            x       y       z     vdW  Elec       q    Type
REMARK                         _______ _______ _______ _____ _____    ______ ____
ROOT
ATOM      1  C   UNL     1       4.982   4.000  18.557  0.00  0.00    +0.000 A 
ATOM      2  N   UNL     1       3.765   4.437  18.578  0.00  0.00    +0.000 NA
ATOM      3  C   UNL     1       2.885   3.897  19.528  0.00  0.00    +0.000 A 
ATOM      4  C   UNL     1       1.576   4.378  19.578  0.00  0.00    +0.000 A 
ATOM      5  C   UNL     1       0.672   3.883  20.521  0.00  0.00    +0.000 A 
ATOM      6  C   UNL     1       1.070   2.897  21.424  0.00  0.00    +0.000 A 
ATOM      7  C   UNL     1       2.373   2.402  21.385  0.00  0.00    +0.000 A 
ATOM      8  C   UNL     1       3.269   2.908  20.438  0.00  0.00    +0.000 A 
ATOM      9  C   UNL     1       4.661   2.430  20.364  0.00  0.00    +0.000 A 
ATOM     10  O   UNL     1       5.096   1.561  21.112  0.00  0.00    +0.000 OA
ATOM     11  N   UNL     1       5.441   3.024  19.405  0.00  0.00    +0.000 N 
ATOM     12  H   UNL     1       6.395   2.699  19.366  0.00  0.00    +0.000 HD
ENDROOT
BRANCH   1  14
ATOM     13  C   UNL     1       5.705   4.721  16.333  0.00  0.00    +0.000 C 
ATOM     14  C   UNL     1       6.009   4.509  17.622  0.00  0.00    +0.000 C 
BRANCH  13  16
ATOM     15  O   UNL     1       7.549   6.117  15.838  0.00  0.00    +0.000 OA
ATOM     16  C   UNL     1       6.763   5.261  15.444  0.00  0.00    +0.000 C 
BRANCH  16  17
ATOM     17  C   UNL     1       6.844   4.753  14.049  0.00  0.00    +0.000 A 
ATOM     18  C   UNL     1       7.720   5.300  13.103  0.00  0.00    +0.000 A 
ATOM     19  C   UNL     1       7.707   4.831  11.786  0.00  0.00    +0.000 A 
ATOM     20  C   UNL     1       6.826   3.817  11.412  0.00  0.00    +0.000 A 
ATOM     21  C   UNL     1       5.954   3.266  12.350  0.00  0.00    +0.000 A 
ATOM     22  C   UNL     1       5.958   3.737  13.664  0.00  0.00    +0.000 A 
ENDBRANCH  16  17
ENDBRANCH  13  16
ENDBRANCH   1  14
TORSDOF 3
ENDMDL
MODEL 2
REMARK VINA RESULT:      -8.5      0.301      1.094
REMARK  Name = 
REMARK  3 active torsions:
REMARK  status: ('A' for Active; 'I' for Inactive)
REMARK    1  A    between atoms: C_2  and  C_3
REMARK    2  A    between atoms: C_2  and  C_16
REMARK    3  A    between atoms: C_4  and  C_5
REMARK                            x       y       z     vdW  Elec       q    Type
REMARK                         _______ _______ _______ _____ _____    ______ ____
ROOT
ATOM      1  C   UNL     1       4.867   3.666  18.420  0.00  0.00    +0.000 A 
ATOM      2  N   UNL     1       3.644   4.086  18.402  0.00  0.00    +0.000 NA
ATOM      3  C   UNL     1       2.787   3.671  19.434  0.00  0.00    +0.000 A 
ATOM      4  C   UNL     1       1.472   4.138  19.440  0.00  0.00    +0.000 A 
ATOM      5  C   UNL     1       0.590   3.767  20.458  0.00  0.00    +0.000 A 
ATOM      6  C   UNL     1       1.018   2.920  21.482  0.00  0.00    +0.000 A 
ATOM      7  C   UNL     1       2.327   2.441  21.488  0.00  0.00    +0.000 A 
ATOM      8  C   UNL     1       3.201   2.822  20.464  0.00  0.00    +0.000 A 
ATOM      9  C   UNL     1       4.598   2.356  20.432  0.00  0.00    +0.000 A 
ATOM     10  O   UNL     1       5.057   1.604  21.285  0.00  0.00    +0.000 OA
ATOM     11  N   UNL     1       5.353   2.822  19.386  0.00  0.00    +0.000 N 
ATOM     12  H   UNL     1       6.312   2.506  19.376  0.00  0.00    +0.000 HD
ENDROOT
BRANCH   1  14
ATOM     13  C   UNL     1       5.646   5.099  16.596  0.00  0.00    +0.000 C 
ATOM     14  C   UNL     1       5.871   4.054  17.406  0.00  0.00    +0.000 C 
BRANCH  13  16
ATOM     15  O   UNL     1       7.594   6.251  15.909  0.00  0.00    +0.000 OA
ATOM     16  C   UNL     1       6.699   5.465  15.617  0.00  0.00    +0.000 C 
BRANCH  16  17
ATOM     17  C   UNL     1       6.639   4.869  14.256  0.00  0.00    +0.000 A 
ATOM     18  C   UNL     1       5.681   3.912  13.900  0.00  0.00    +0.000 A 
ATOM     19  C   UNL     1       5.711   3.332  12.629  0.00  0.00    +0.000 A 
ATOM     20  C   UNL     1       6.693   3.707  11.711  0.00  0.00    +0.000 A 
ATOM     21  C   UNL     1       7.647   4.662  12.059  0.00  0.00    +0.000 A 
ATOM     22  C   UNL     1       7.625   5.237  13.330  0.00  0.00    +0.000 A 
ENDBRANCH  16  17
ENDBRANCH  13  16
ENDBRANCH   1  14
TORSDOF 3
ENDMDL
MODEL 3
REMARK VINA RESULT:      -8.2      1.559      2.103
REMARK  Name = 
REMARK  3 active torsions:
REMARK  status: ('A' for Active; 'I' for Inactive)
REMARK    1  A    between atoms: C_2  and  C_3
REMARK    2  A    between atoms: C_2  and  C_16
REMARK    3  A    between atoms: C_4  and  C_5
REMARK                            x       y       z     vdW  Elec       q    Type
REMARK                         _______ _______ _______ _____ _____    ______ ____
ROOT
ATOM      1  C   UNL     1       4.362   3.916  17.896  0.00  0.00    +0.000 A 
ATOM      2  N   UNL     1       4.441   3.495  19.116  0.00  0.00    +0.000 NA
ATOM      3  C   UNL     1       3.245   3.270  19.817  0.00  0.00    +0.000 A 
ATOM      4  C   UNL     1       3.317   2.791  21.125  0.00  0.00    +0.000 A 
ATOM      5  C   UNL     1       2.152   2.534  21.853  0.00  0.00    +0.000 A 
ATOM      6  C   UNL     1       0.901   2.759  21.277  0.00  0.00    +0.000 A 
ATOM      7  C   UNL     1       0.812   3.242  19.972  0.00  0.00    +0.000 A 
ATOM      8  C   UNL     1       1.985   3.492  19.253  0.00  0.00    +0.000 A 
ATOM      9  C   UNL     1       1.947   3.989  17.866  0.00  0.00    +0.000 A 
ATOM     10  O   UNL     1       0.894   4.222  17.283  0.00  0.00    +0.000 OA
ATOM     11  N   UNL     1       3.169   4.171  17.269  0.00  0.00    +0.000 N 
ATOM     12  H   UNL     1       3.134   4.503  16.316  0.00  0.00    +0.000 HD
ENDROOT
BRANCH   1  14
ATOM     13  C   UNL     1       5.560   5.195  16.188  0.00  0.00    +0.000 C 
ATOM     14  C   UNL     1       5.547   4.164  17.046  0.00  0.00    +0.000 C 
BRANCH  13  16
ATOM     15  O   UNL     1       7.716   6.090  15.809  0.00  0.00    +0.000 OA
ATOM     16  C   UNL     1       6.785   5.417  15.381  0.00  0.00    +0.000 C 
BRANCH  16  17
ATOM     17  C   UNL     1       6.856   4.817  14.022  0.00  0.00    +0.000 A 
ATOM     18  C   UNL     1       7.749   5.277  13.047  0.00  0.00    +0.000 A 
ATOM     19  C   UNL     1       7.727   4.725  11.763  0.00  0.00    +0.000 A 
ATOM     20  C   UNL     1       6.818   3.713  11.450  0.00  0.00    +0.000 A 
ATOM     21  C   UNL     1       5.929   3.250  12.418  0.00  0.00    +0.000 A 
ATOM     22  C   UNL     1       5.942   3.804  13.699  0.00  0.00    +0.000 A 
ENDBRANCH  16  17
ENDBRANCH  13  16
ENDBRANCH   1  14
TORSDOF 3
ENDMDL
MODEL 4
REMARK VINA RESULT:      -8.1      1.942      2.698
REMARK  Name = 
REMARK  3 active torsions:
REMARK  status: ('A' for Active; 'I' for Inactive)
REMARK    1  A    between atoms: C_2  and  C_3
REMARK    2  A    between atoms: C_2  and  C_16
REMARK    3  A    between atoms: C_4  and  C_5
REMARK                            x       y       z     vdW  Elec       q    Type
REMARK                         _______ _______ _______ _____ _____    ______ ____
ROOT
ATOM      1  C   UNL     1       4.575   4.228  17.105  0.00  0.00    +0.000 A 
ATOM      2  N   UNL     1       4.077   3.226  17.753  0.00  0.00    +0.000 NA
ATOM      3  C   UNL     1       3.115   3.489  18.741  0.00  0.00    +0.000 A 
ATOM      4  C   UNL     1       2.553   2.414  19.430  0.00  0.00    +0.000 A 
ATOM      5  C   UNL     1       1.577   2.627  20.408  0.00  0.00    +0.000 A 
ATOM      6  C   UNL     1       1.157   3.924  20.707  0.00  0.00    +0.000 A 
ATOM      7  C   UNL     1       1.712   5.010  20.031  0.00  0.00    +0.000 A 
ATOM      8  C   UNL     1       2.686   4.782  19.053  0.00  0.00    +0.000 A 
ATOM      9  C   UNL     1       3.294   5.893  18.299  0.00  0.00    +0.000 A 
ATOM     10  O   UNL     1       2.991   7.063  18.501  0.00  0.00    +0.000 OA
ATOM     11  N   UNL     1       4.219   5.530  17.354  0.00  0.00    +0.000 N 
ATOM     12  H   UNL     1       4.624   6.295  16.835  0.00  0.00    +0.000 HD
ENDROOT
BRANCH   1  14
ATOM     13  C   UNL     1       5.584   4.934  14.991  0.00  0.00    +0.000 C 
ATOM     14  C   UNL     1       5.573   4.079  16.025  0.00  0.00    +0.000 C 
BRANCH  13  16
ATOM     15  O   UNL     1       7.669   5.402  13.978  0.00  0.00    +0.000 OA
ATOM     16  C   UNL     1       6.626   4.758  13.949  0.00  0.00    +0.000 C 
BRANCH  16  17
ATOM     17  C   UNL     1       6.371   3.792  12.848  0.00  0.00    +0.000 A 
ATOM     18  C   UNL     1       5.078   3.395  12.484  0.00  0.00    +0.000 A 
ATOM     19  C   UNL     1       4.898   2.432  11.488  0.00  0.00    +0.000 A 
ATOM     20  C   UNL     1       6.003   1.864  10.853  0.00  0.00    +0.000 A 
ATOM     21  C   UNL     1       7.292   2.257  11.209  0.00  0.00    +0.000 A 
ATOM     22  C   UNL     1       7.476   3.214  12.209  0.00  0.00    +0.000 A 
ENDBRANCH  16  17
ENDBRANCH  13  16
ENDBRANCH   1  14
TORSDOF 3
ENDMDL
MODEL 5
REMARK VINA RESULT:      -8.0      6.320      8.144
REMARK  Name = 
REMARK  3 active torsions:
REMARK  status: ('A' for Active; 'I' for Inactive)
REMARK    1  A    between atoms: C_2  and  C_3
REMARK    2  A    between atoms: C_2  and  C_16
REMARK    3  A    between atoms: C_4  and  C_5
REMARK                            x       y       z     vdW  Elec       q    Type
REMARK                         _______ _______ _______ _____ _____    ______ ____
ROOT
ATOM      1  C   UNL     1       7.819   7.928  17.897  0.00  0.00    +0.000 A 
ATOM      2  N   UNL     1       6.892   7.612  17.053  0.00  0.00    +0.000 NA
ATOM      3  C   UNL     1       6.219   6.394  17.236  0.00  0.00    +0.000 A 
ATOM      4  C   UNL     1       5.199   6.053  16.346  0.00  0.00    +0.000 A 
ATOM      5  C   UNL     1       4.489   4.860  16.502  0.00  0.00    +0.000 A 
ATOM      6  C   UNL     1       4.795   3.993  17.553  0.00  0.00    +0.000 A 
ATOM      7  C   UNL     1       5.814   4.317  18.448  0.00  0.00    +0.000 A 
ATOM      8  C   UNL     1       6.516   5.515  18.282  0.00  0.00    +0.000 A 
ATOM      9  C   UNL     1       7.591   5.912  19.208  0.00  0.00    +0.000 A 
ATOM     10  O   UNL     1       7.933   5.210  20.153  0.00  0.00    +0.000 OA
ATOM     11  N   UNL     1       8.183   7.121  18.945  0.00  0.00    +0.000 N 
ATOM     12  H   UNL     1       8.912   7.390  19.589  0.00  0.00    +0.000 HD
ENDROOT
BRANCH   1  14
ATOM     13  C   UNL     1       8.998   9.795  18.952  0.00  0.00    +0.000 C 
ATOM     14  C   UNL     1       8.581   9.194  17.827  0.00  0.00    +0.000 C 
BRANCH  13  16
ATOM     15  O   UNL     1      10.442  11.285  17.818  0.00  0.00    +0.000 OA
ATOM     16  C   UNL     1       9.785  11.047  18.825  0.00  0.00    +0.000 C 
BRANCH  16  17
ATOM     17  C   UNL     1       9.775  12.007  19.960  0.00  0.00    +0.000 A 
ATOM     18  C   UNL     1       9.215  11.691  21.204  0.00  0.00    +0.000 A 
ATOM     19  C   UNL     1       9.170  12.654  22.215  0.00  0.00    +0.000 A 
ATOM     20  C   UNL     1       9.686  13.931  21.990  0.00  0.00    +0.000 A 
ATOM     21  C   UNL     1      10.248  14.250  20.755  0.00  0.00    +0.000 A 
ATOM     22  C   UNL     1      10.287  13.294  19.740  0.00  0.00    +0.000 A 
ENDBRANCH  16  17
ENDBRANCH  13  16
ENDBRANCH   1  14
TORSDOF 3
ENDMDL
MODEL 6
REMARK VINA RESULT:      -8.0      6.233      7.976
REMARK  Name = 
REMARK  3 active torsions:
REMARK  status: ('A' for Active; 'I' for Inactive)
REMARK    1  A    between atoms: C_2  and  C_3
REMARK    2  A    between atoms: C_2  and  C_16
REMARK    3  A    between atoms: C_4  and  C_5
REMARK                            x       y       z     vdW  Elec       q    Type
REMARK                         _______ _______ _______ _____ _____    ______ ____
ROOT
ATOM      1  C   UNL     1       7.790   7.827  17.854  0.00  0.00    +0.000 A 
ATOM      2  N   UNL     1       6.852   7.491  17.030  0.00  0.00    +0.000 NA
ATOM      3  C   UNL     1       6.173   6.284  17.259  0.00  0.00    +0.000 A 
ATOM      4  C   UNL     1       5.141   5.922  16.392  0.00  0.00    +0.000 A 
ATOM      5  C   UNL     1       4.424   4.740  16.593  0.00  0.00    +0.000 A 
ATOM      6  C   UNL     1       4.738   3.904  17.666  0.00  0.00    +0.000 A 
ATOM      7  C   UNL     1       5.769   4.249  18.539  0.00  0.00    +0.000 A 
ATOM      8  C   UNL     1       6.477   5.436  18.328  0.00  0.00    +0.000 A 
ATOM      9  C   UNL     1       7.565   5.854  19.229  0.00  0.00    +0.000 A 
ATOM     10  O   UNL     1       7.913   5.179  20.192  0.00  0.00    +0.000 OA
ATOM     11  N   UNL     1       8.161   7.050  18.922  0.00  0.00    +0.000 N 
ATOM     12  H   UNL     1       8.900   7.334  19.549  0.00  0.00    +0.000 HD
ENDROOT
BRANCH   1  14
ATOM     13  C   UNL     1       8.886   9.783  18.834  0.00  0.00    +0.000 C 
ATOM     14  C   UNL     1       8.559   9.085  17.736  0.00  0.00    +0.000 C 
BRANCH  13  16
ATOM     15  O   UNL     1      10.353  11.213  17.654  0.00  0.00    +0.000 OA
ATOM     16  C   UNL     1       9.684  11.022  18.663  0.00  0.00    +0.000 C 
BRANCH  16  17
ATOM     17  C   UNL     1       9.671  12.030  19.757  0.00  0.00    +0.000 A 
ATOM     18  C   UNL     1      10.143  13.336  19.577  0.00  0.00    +0.000 A 
ATOM     19  C   UNL     1      10.173  14.223  20.656  0.00  0.00    +0.000 A 
ATOM     20  C   UNL     1       9.730  13.812  21.914  0.00  0.00    +0.000 A 
ATOM     21  C   UNL     1       9.255  12.514  22.098  0.00  0.00    +0.000 A 
ATOM     22  C   UNL     1       9.232  11.623  21.024  0.00  0.00    +0.000 A 
ENDBRANCH  16  17
ENDBRANCH  13  16
ENDBRANCH   1  14
TORSDOF 3
ENDMDL
MODEL 7
REMARK VINA RESULT:      -8.0      1.944      2.539
REMARK  Name = 
REMARK  3 active torsions:
REMARK  status: ('A' for Active; 'I' for Inactive)
REMARK    1  A    between atoms: C_2  and  C_3
REMARK    2  A    between atoms: C_2  and  C_16
REMARK    3  A    between atoms: C_4  and  C_5
REMARK                            x       y       z     vdW  Elec       q    Type
REMARK                         _______ _______ _______ _____ _____    ______ ____
ROOT
ATOM      1  C   UNL     1       4.489   4.158  17.094  0.00  0.00    +0.000 A 
ATOM      2  N   UNL     1       4.012   3.163  17.768  0.00  0.00    +0.000 NA
ATOM      3  C   UNL     1       3.078   3.436  18.780  0.00  0.00    +0.000 A 
ATOM      4  C   UNL     1       2.537   2.369  19.497  0.00  0.00    +0.000 A 
ATOM      5  C   UNL     1       1.590   2.592  20.499  0.00  0.00    +0.000 A 
ATOM      6  C   UNL     1       1.175   3.892  20.795  0.00  0.00    +0.000 A 
ATOM      7  C   UNL     1       1.709   4.970  20.089  0.00  0.00    +0.000 A 
ATOM      8  C   UNL     1       2.655   4.732  19.087  0.00  0.00    +0.000 A 
ATOM      9  C   UNL     1       3.239   5.835  18.303  0.00  0.00    +0.000 A 
ATOM     10  O   UNL     1       2.939   7.007  18.499  0.00  0.00    +0.000 OA
ATOM     11  N   UNL     1       4.137   5.462  17.336  0.00  0.00    +0.000 N 
ATOM     12  H   UNL     1       4.526   6.221  16.797  0.00  0.00    +0.000 HD
ENDROOT
BRANCH   1  14
ATOM     13  C   UNL     1       5.635   4.984  15.096  0.00  0.00    +0.000 C 
ATOM     14  C   UNL     1       5.457   3.997  15.987  0.00  0.00    +0.000 C 
BRANCH  13  16
ATOM     15  O   UNL     1       7.685   5.425  14.004  0.00  0.00    +0.000 OA
ATOM     16  C   UNL     1       6.640   4.784  14.023  0.00  0.00    +0.000 C 
BRANCH  16  17
ATOM     17  C   UNL     1       6.346   3.796  12.952  0.00  0.00    +0.000 A 
ATOM     18  C   UNL     1       7.357   3.114  12.264  0.00  0.00    +0.000 A 
ATOM     19  C   UNL     1       7.029   2.247  11.218  0.00  0.00    +0.000 A 
ATOM     20  C   UNL     1       5.694   2.056  10.858  0.00  0.00    +0.000 A 
ATOM     21  C   UNL     1       4.683   2.730  11.542  0.00  0.00    +0.000 A 
ATOM     22  C   UNL     1       5.008   3.603  12.581  0.00  0.00    +0.000 A 
ENDBRANCH  16  17
ENDBRANCH  13  16
ENDBRANCH   1  14
TORSDOF 3
ENDMDL
MODEL 8
REMARK VINA RESULT:      -8.0      1.750      2.441
REMARK  Name = 
REMARK  3 active torsions:
REMARK  status: ('A' for Active; 'I' for Inactive)
REMARK    1  A    between atoms: C_2  and  C_3
REMARK    2  A    between atoms: C_2  and  C_16
REMARK    3  A    between atoms: C_4  and  C_5
REMARK                            x       y       z     vdW  Elec       q    Type
REMARK                         _______ _______ _______ _____ _____    ______ ____
ROOT
ATOM      1  C   UNL     1       5.096   3.992  16.577  0.00  0.00    +0.000 A 
ATOM      2  N   UNL     1       3.826   3.780  16.697  0.00  0.00    +0.000 NA
ATOM      3  C   UNL     1       3.242   3.961  17.960  0.00  0.00    +0.000 A 
ATOM      4  C   UNL     1       1.868   3.759  18.097  0.00  0.00    +0.000 A 
ATOM      5  C   UNL     1       1.241   3.948  19.331  0.00  0.00    +0.000 A 
ATOM      6  C   UNL     1       1.987   4.338  20.445  0.00  0.00    +0.000 A 
ATOM      7  C   UNL     1       3.362   4.540  20.325  0.00  0.00    +0.000 A 
ATOM      8  C   UNL     1       3.977   4.350  19.084  0.00  0.00    +0.000 A 
ATOM      9  C   UNL     1       5.423   4.564  18.901  0.00  0.00    +0.000 A 
ATOM     10  O   UNL     1       6.157   4.900  19.824  0.00  0.00    +0.000 OA
ATOM     11  N   UNL     1       5.894   4.365  17.628  0.00  0.00    +0.000 N 
ATOM     12  H   UNL     1       6.884   4.523  17.508  0.00  0.00    +0.000 HD
ENDROOT
BRANCH   1  14
ATOM     13  C   UNL     1       6.246   4.955  14.644  0.00  0.00    +0.000 C 
ATOM     14  C   UNL     1       5.821   3.862  15.294  0.00  0.00    +0.000 C 
BRANCH  13  16
ATOM     15  O   UNL     1       7.932   5.502  13.077  0.00  0.00    +0.000 OA
ATOM     16  C   UNL     1       6.996   4.768  13.377  0.00  0.00    +0.000 C 
BRANCH  16  17
ATOM     17  C   UNL     1       6.576   3.675  12.460  0.00  0.00    +0.000 A 
ATOM     18  C   UNL     1       5.231   3.416  12.172  0.00  0.00    +0.000 A 
ATOM     19  C   UNL     1       4.887   2.333  11.358  0.00  0.00    +0.000 A 
ATOM     20  C   UNL     1       5.882   1.510  10.829  0.00  0.00    +0.000 A 
ATOM     21  C   UNL     1       7.223   1.765  11.111  0.00  0.00    +0.000 A 
ATOM     22  C   UNL     1       7.569   2.841  11.930  0.00  0.00    +0.000 A 
ENDBRANCH  16  17
ENDBRANCH  13  16
ENDBRANCH   1  14
TORSDOF 3
ENDMDL
MODEL 9
REMARK VINA RESULT:      -7.9      1.610      2.262
REMARK  Name = 
REMARK  3 active torsions:
REMARK  status: ('A' for Active; 'I' for Inactive)
REMARK    1  A    between atoms: C_2  and  C_3
REMARK    2  A    between atoms: C_2  and  C_16
REMARK    3  A    between atoms: C_4  and  C_5
REMARK                            x       y       z     vdW  Elec       q    Type
REMARK                         _______ _______ _______ _____ _____    ______ ____
ROOT
ATOM      1  C   UNL     1       4.880   4.261  17.063  0.00  0.00    +0.000 A 
ATOM      2  N   UNL     1       4.272   5.372  17.324  0.00  0.00    +0.000 NA
ATOM      3  C   UNL     1       3.472   5.433  18.476  0.00  0.00    +0.000 A 
ATOM      4  C   UNL     1       2.832   6.635  18.782  0.00  0.00    +0.000 A 
ATOM      5  C   UNL     1       2.041   6.747  19.929  0.00  0.00    +0.000 A 
ATOM      6  C   UNL     1       1.883   5.653  20.781  0.00  0.00    +0.000 A 
ATOM      7  C   UNL     1       2.513   4.444  20.487  0.00  0.00    +0.000 A 
ATOM      8  C   UNL     1       3.303   4.346  19.337  0.00  0.00    +0.000 A 
ATOM      9  C   UNL     1       4.002   3.096  18.988  0.00  0.00    +0.000 A 
ATOM     10  O   UNL     1       3.915   2.084  19.674  0.00  0.00    +0.000 OA
ATOM     11  N   UNL     1       4.762   3.142  17.847  0.00  0.00    +0.000 N 
ATOM     12  H   UNL     1       5.245   2.285  17.619  0.00  0.00    +0.000 HD
ENDROOT
BRANCH   1  14
ATOM     13  C   UNL     1       5.843   5.026  14.947  0.00  0.00    +0.000 C 
ATOM     14  C   UNL     1       5.771   4.080  15.896  0.00  0.00    +0.000 C 
BRANCH  13  16
ATOM     15  O   UNL     1       7.823   5.440  13.721  0.00  0.00    +0.000 OA
ATOM     16  C   UNL     1       6.775   4.808  13.813  0.00  0.00    +0.000 C 
BRANCH  16  17
ATOM     17  C   UNL     1       6.404   3.814  12.771  0.00  0.00    +0.000 A 
ATOM     18  C   UNL     1       5.071   3.533  12.446  0.00  0.00    +0.000 A 
ATOM     19  C   UNL     1       4.776   2.540  11.508  0.00  0.00    +0.000 A 
ATOM     20  C   UNL     1       5.806   1.829  10.892  0.00  0.00    +0.000 A 
ATOM     21  C   UNL     1       7.134   2.107  11.209  0.00  0.00    +0.000 A 
ATOM     22  C   UNL     1       7.433   3.092  12.151  0.00  0.00    +0.000 A 
ENDBRANCH  16  17
ENDBRANCH  13  16
ENDBRANCH   1  14
TORSDOF 3
ENDMDL
