MODEL 1
REMARK VINA RESULT:      -9.2      0.000      0.000
REMARK  Name = 
REMARK  6 active torsions:
REMARK  status: ('A' for Active; 'I' for Inactive)
REMARK    1  A    between atoms: C_1  and  C_2
REMARK    2  A    between atoms: C_2  and  N_3
REMARK    3  A    between atoms: C_4  and  C_5
REMARK    4  A    between atoms: C_8  and  C_9
REMARK    5  A    between atoms: N_15  and  C_16
REMARK    6  A    between atoms: C_20  and  C_22
REMARK                            x       y       z     vdW  Elec       q    Type
REMARK                         _______ _______ _______ _____ _____    ______ ____
ROOT
ATOM      1  N   UNL     1       2.597   6.641  19.417  0.00  0.00    +0.000 N 
ATOM      2  C   UNL     1       3.077   7.002  18.176  0.00  0.00    +0.000 A 
ATOM      3  N   UNL     1       2.607   8.196  17.827  0.00  0.00    +0.000 NA
ATOM      4  C   UNL     1       1.836   8.622  18.883  0.00  0.00    +0.000 A 
ATOM      5  C   UNL     1       1.021   9.757  19.101  0.00  0.00    +0.000 A 
ATOM      6  N   UNL     1       0.770  10.763  18.123  0.00  0.00    +0.000 N 
ATOM      7  N   UNL     1       0.392   9.819  20.318  0.00  0.00    +0.000 NA
ATOM      8  C   UNL     1       0.572   8.860  21.240  0.00  0.00    +0.000 A 
ATOM      9  N   UNL     1       1.290   7.743  21.108  0.00  0.00    +0.000 NA
ATOM     10  C   UNL     1       1.868   7.685  19.900  0.00  0.00    +0.000 A 
ATOM     11  H   UNL     1       1.535  11.440  18.188  0.00  0.00    +0.000 HD
ENDROOT
BRANCH   2  12
ATOM     12  C   UNL     1       3.961   6.211  17.331  0.00  0.00    +0.000 A 
ATOM     13  C   UNL     1       3.858   4.858  17.231  0.00  0.00    +0.000 A 
ATOM     14  N   UNL     1       4.632   4.101  16.427  0.00  0.00    +0.000 NA
ATOM     15  C   UNL     1       5.552   4.760  15.682  0.00  0.00    +0.000 A 
ATOM     16  C   UNL     1       6.414   3.947  14.776  0.00  0.00    +0.000 C 
ATOM     17  N   UNL     1       5.749   6.065  15.706  0.00  0.00    +0.000 NA
ATOM     18  C   UNL     1       4.945   6.762  16.528  0.00  0.00    +0.000 A 
ENDBRANCH   2  12
BRANCH   6  19
ATOM     19  C   UNL     1      -0.534  11.360  18.425  0.00  0.00    +0.000 C 
ATOM     20  C   UNL     1      -1.697  10.382  18.269  0.00  0.00    +0.000 C 
ATOM     21  C   UNL     1      -2.818  11.377  18.521  0.00  0.00    +0.000 C 
ATOM     22  N   UNL     1      -2.347  12.054  19.732  0.00  0.00    +0.000 N 
ATOM     23  C   UNL     1      -3.209  12.753  20.595  0.00  0.00    +0.000 C 
ATOM     24  O   UNL     1      -4.401  12.790  20.375  0.00  0.00    +0.000 OA
ATOM     25  C   UNL     1      -0.876  11.981  19.803  0.00  0.00    +0.000 C 
BRANCH  23  26
ATOM     26  C   UNL     1      -2.533  13.402  21.853  0.00  0.00    +0.000 C 
ATOM     27  C   UNL     1      -3.273  14.485  22.676  0.00  0.00    +0.000 C 
ATOM     28  C   UNL     1      -2.755  13.817  23.969  0.00  0.00    +0.000 C 
ATOM     29  F   UNL     1      -3.681  13.662  24.948  0.00  0.00    +0.000 F 
ATOM     30  F   UNL     1      -1.687  14.416  24.542  0.00  0.00    +0.000 F 
ATOM     31  C   UNL     1      -2.441  12.551  23.147  0.00  0.00    +0.000 C 
ENDBRANCH  23  26
ENDBRANCH   6  19
BRANCH   1  33
ATOM     32  C   UNL     1       1.540   4.504  20.075  0.00  0.00    +0.000 C 
ATOM     33  C   UNL     1       2.775   5.389  20.135  0.00  0.00    +0.000 C 
ENDBRANCH   1  33
TORSDOF 4
ENDMDL
MODEL 2
REMARK VINA RESULT:      -9.1      3.118      3.927
REMARK  Name = 
REMARK  6 active torsions:
REMARK  status: ('A' for Active; 'I' for Inactive)
REMARK    1  A    between atoms: C_1  and  C_2
REMARK    2  A    between atoms: C_2  and  N_3
REMARK    3  A    between atoms: C_4  and  C_5
REMARK    4  A    between atoms: C_8  and  C_9
REMARK    5  A    between atoms: N_15  and  C_16
REMARK    6  A    between atoms: C_20  and  C_22
REMARK                            x       y       z     vdW  Elec       q    Type
REMARK                         _______ _______ _______ _____ _____    ______ ____
ROOT
ATOM      1  N   UNL     1       3.134   5.300  18.744  0.00  0.00    +0.000 N 
ATOM      2  C   UNL     1       3.712   6.038  17.733  0.00  0.00    +0.000 A 
ATOM      3  N   UNL     1       3.347   7.313  17.824  0.00  0.00    +0.000 NA
ATOM      4  C   UNL     1       2.542   7.397  18.936  0.00  0.00    +0.000 A 
ATOM      5  C   UNL     1       1.793   8.444  19.522  0.00  0.00    +0.000 A 
ATOM      6  N   UNL     1       1.670   9.750  18.966  0.00  0.00    +0.000 N 
ATOM      7  N   UNL     1       1.096   8.120  20.658  0.00  0.00    +0.000 NA
ATOM      8  C   UNL     1       1.154   6.883  21.177  0.00  0.00    +0.000 A 
ATOM      9  N   UNL     1       1.802   5.831  20.674  0.00  0.00    +0.000 NA
ATOM     10  C   UNL     1       2.448   6.159  19.547  0.00  0.00    +0.000 A 
ATOM     11  H   UNL     1       2.474  10.292  19.296  0.00  0.00    +0.000 HD
ENDROOT
BRANCH   2  12
ATOM     12  C   UNL     1       4.592   5.529  16.690  0.00  0.00    +0.000 A 
ATOM     13  C   UNL     1       4.842   4.202  16.529  0.00  0.00    +0.000 A 
ATOM     14  N   UNL     1       5.617   3.694  15.549  0.00  0.00    +0.000 NA
ATOM     15  C   UNL     1       6.157   4.588  14.685  0.00  0.00    +0.000 A 
ATOM     16  C   UNL     1       7.010   4.052  13.584  0.00  0.00    +0.000 C 
ATOM     17  N   UNL     1       5.993   5.896  14.750  0.00  0.00    +0.000 NA
ATOM     18  C   UNL     1       5.210   6.337  15.751  0.00  0.00    +0.000 A 
ENDBRANCH   2  12
BRANCH   6  19
ATOM     19  C   UNL     1       0.394  10.308  19.419  0.00  0.00    +0.000 C 
ATOM     20  C   UNL     1       0.535  11.673  20.088  0.00  0.00    +0.000 C 
ATOM     21  C   UNL     1      -0.916  11.828  20.516  0.00  0.00    +0.000 C 
ATOM     22  N   UNL     1      -1.627  11.481  19.283  0.00  0.00    +0.000 N 
ATOM     23  C   UNL     1      -2.954  11.874  19.036  0.00  0.00    +0.000 C 
ATOM     24  O   UNL     1      -3.552  12.555  19.841  0.00  0.00    +0.000 OA
ATOM     25  C   UNL     1      -0.790  10.590  18.459  0.00  0.00    +0.000 C 
BRANCH  23  26
ATOM     26  C   UNL     1      -3.549  11.429  17.655  0.00  0.00    +0.000 C 
ATOM     27  C   UNL     1      -2.695  11.505  16.366  0.00  0.00    +0.000 C 
ATOM     28  C   UNL     1      -3.269  10.136  15.938  0.00  0.00    +0.000 C 
ATOM     29  F   UNL     1      -2.356   9.251  15.464  0.00  0.00    +0.000 F 
ATOM     30  F   UNL     1      -4.265  10.186  15.024  0.00  0.00    +0.000 F 
ATOM     31  C   UNL     1      -3.719   9.909  17.395  0.00  0.00    +0.000 C 
ENDBRANCH  23  26
ENDBRANCH   6  19
BRANCH   1  33
ATOM     32  C   UNL     1       1.950   3.150  18.433  0.00  0.00    +0.000 C 
ATOM     33  C   UNL     1       3.183   3.863  18.967  0.00  0.00    +0.000 C 
ENDBRANCH   1  33
TORSDOF 4
ENDMDL
MODEL 3
REMARK VINA RESULT:      -8.9      3.469      4.455
REMARK  Name = 
REMARK  6 active torsions:
REMARK  status: ('A' for Active; 'I' for Inactive)
REMARK    1  A    between atoms: C_1  and  C_2
REMARK    2  A    between atoms: C_2  and  N_3
REMARK    3  A    between atoms: C_4  and  C_5
REMARK    4  A    between atoms: C_8  and  C_9
REMARK    5  A    between atoms: N_15  and  C_16
REMARK    6  A    between atoms: C_20  and  C_22
REMARK                            x       y       z     vdW  Elec       q    Type
REMARK                         _______ _______ _______ _____ _____    ______ ____
ROOT
ATOM      1  N   UNL     1       3.838   4.931  17.900  0.00  0.00    +0.000 N 
ATOM      2  C   UNL     1       4.389   5.721  16.914  0.00  0.00    +0.000 A 
ATOM      3  N   UNL     1       4.019   6.988  17.075  0.00  0.00    +0.000 NA
ATOM      4  C   UNL     1       3.240   7.012  18.208  0.00  0.00    +0.000 A 
ATOM      5  C   UNL     1       2.499   8.024  18.862  0.00  0.00    +0.000 A 
ATOM      6  N   UNL     1       2.356   9.355  18.373  0.00  0.00    +0.000 N 
ATOM      7  N   UNL     1       1.830   7.640  19.996  0.00  0.00    +0.000 NA
ATOM      8  C   UNL     1       1.906   6.380  20.452  0.00  0.00    +0.000 A 
ATOM      9  N   UNL     1       2.548   5.358  19.883  0.00  0.00    +0.000 NA
ATOM     10  C   UNL     1       3.166   5.746  18.759  0.00  0.00    +0.000 A 
ATOM     11  H   UNL     1       3.164   9.885  18.711  0.00  0.00    +0.000 HD
ENDROOT
BRANCH   2  12
ATOM     12  C   UNL     1       5.247   5.270  15.827  0.00  0.00    +0.000 A 
ATOM     13  C   UNL     1       4.783   4.511  14.798  0.00  0.00    +0.000 A 
ATOM     14  N   UNL     1       5.540   4.112  13.755  0.00  0.00    +0.000 NA
ATOM     15  C   UNL     1       6.833   4.516  13.761  0.00  0.00    +0.000 A 
ATOM     16  C   UNL     1       7.690   4.097  12.612  0.00  0.00    +0.000 C 
ATOM     17  N   UNL     1       7.395   5.243  14.710  0.00  0.00    +0.000 NA
ATOM     18  C   UNL     1       6.586   5.607  15.720  0.00  0.00    +0.000 A 
ENDBRANCH   2  12
BRANCH   6  19
ATOM     19  C   UNL     1       1.087   9.882  18.882  0.00  0.00    +0.000 C 
ATOM     20  C   UNL     1       1.156  11.359  19.265  0.00  0.00    +0.000 C 
ATOM     21  C   UNL     1      -0.243  11.472  19.846  0.00  0.00    +0.000 C 
ATOM     22  N   UNL     1      -1.050  10.832  18.803  0.00  0.00    +0.000 N 
ATOM     23  C   UNL     1      -2.431  11.057  18.667  0.00  0.00    +0.000 C 
ATOM     24  O   UNL     1      -3.003  11.830  19.407  0.00  0.00    +0.000 OA
ATOM     25  C   UNL     1      -0.222   9.871  18.052  0.00  0.00    +0.000 C 
BRANCH  23  26
ATOM     26  C   UNL     1      -3.130  10.302  17.483  0.00  0.00    +0.000 C 
ATOM     27  C   UNL     1      -4.170  11.024  16.592  0.00  0.00    +0.000 C 
ATOM     28  C   UNL     1      -3.544  10.340  15.356  0.00  0.00    +0.000 C 
ATOM     29  F   UNL     1      -3.339  11.153  14.290  0.00  0.00    +0.000 F 
ATOM     30  F   UNL     1      -4.213   9.260  14.892  0.00  0.00    +0.000 F 
ATOM     31  C   UNL     1      -2.295  10.029  16.204  0.00  0.00    +0.000 C 
ENDBRANCH  23  26
ENDBRANCH   6  19
BRANCH   1  33
ATOM     32  C   UNL     1       2.663   2.790  17.503  0.00  0.00    +0.000 C 
ATOM     33  C   UNL     1       3.900   3.485  18.050  0.00  0.00    +0.000 C 
ENDBRANCH   1  33
TORSDOF 4
ENDMDL
MODEL 4
REMARK VINA RESULT:      -8.8      5.567     10.260
REMARK  Name = 
REMARK  6 active torsions:
REMARK  status: ('A' for Active; 'I' for Inactive)
REMARK    1  A    between atoms: C_1  and  C_2
REMARK    2  A    between atoms: C_2  and  N_3
REMARK    3  A    between atoms: C_4  and  C_5
REMARK    4  A    between atoms: C_8  and  C_9
REMARK    5  A    between atoms: N_15  and  C_16
REMARK    6  A    between atoms: C_20  and  C_22
REMARK                            x       y       z     vdW  Elec       q    Type
REMARK                         _______ _______ _______ _____ _____    ______ ____
ROOT
ATOM      1  N   UNL     1       0.703  12.803  20.663  0.00  0.00    +0.000 N 
ATOM      2  C   UNL     1       0.964  13.238  19.381  0.00  0.00    +0.000 A 
ATOM      3  N   UNL     1       1.264  12.208  18.594  0.00  0.00    +0.000 NA
ATOM      4  C   UNL     1       1.160  11.088  19.385  0.00  0.00    +0.000 A 
ATOM      5  C   UNL     1       1.416   9.714  19.167  0.00  0.00    +0.000 A 
ATOM      6  N   UNL     1       1.952   9.179  17.960  0.00  0.00    +0.000 N 
ATOM      7  N   UNL     1       1.190   8.885  20.237  0.00  0.00    +0.000 NA
ATOM      8  C   UNL     1       0.732   9.369  21.403  0.00  0.00    +0.000 A 
ATOM      9  N   UNL     1       0.499  10.647  21.706  0.00  0.00    +0.000 NA
ATOM     10  C   UNL     1       0.758  11.443  20.660  0.00  0.00    +0.000 A 
ATOM     11  H   UNL     1       1.162   9.016  17.330  0.00  0.00    +0.000 HD
ENDROOT
BRANCH   2  12
ATOM     12  C   UNL     1       0.939  14.619  18.917  0.00  0.00    +0.000 A 
ATOM     13  C   UNL     1       2.072  15.306  18.611  0.00  0.00    +0.000 A 
ATOM     14  N   UNL     1       2.083  16.570  18.140  0.00  0.00    +0.000 NA
ATOM     15  C   UNL     1       0.874  17.157  17.965  0.00  0.00    +0.000 A 
ATOM     16  C   UNL     1       0.857  18.552  17.434  0.00  0.00    +0.000 C 
ATOM     17  N   UNL     1      -0.288  16.592  18.238  0.00  0.00    +0.000 NA
ATOM     18  C   UNL     1      -0.228  15.332  18.705  0.00  0.00    +0.000 A 
ENDBRANCH   2  12
BRANCH   6  19
ATOM     19  C   UNL     1       2.663   7.943  18.299  0.00  0.00    +0.000 C 
ATOM     20  C   UNL     1       1.735   6.749  18.503  0.00  0.00    +0.000 C 
ATOM     21  C   UNL     1       2.795   5.757  18.953  0.00  0.00    +0.000 C 
ATOM     22  N   UNL     1       3.831   5.948  17.934  0.00  0.00    +0.000 N 
ATOM     23  C   UNL     1       4.815   4.982  17.661  0.00  0.00    +0.000 C 
ATOM     24  O   UNL     1       4.817   3.924  18.253  0.00  0.00    +0.000 OA
ATOM     25  C   UNL     1       3.733   7.309  17.374  0.00  0.00    +0.000 C 
BRANCH  23  26
ATOM     26  C   UNL     1       5.833   5.350  16.525  0.00  0.00    +0.000 C 
ATOM     27  C   UNL     1       7.008   4.402  16.183  0.00  0.00    +0.000 C 
ATOM     28  C   UNL     1       6.753   4.673  14.683  0.00  0.00    +0.000 C 
ATOM     29  F   UNL     1       6.760   3.573  13.889  0.00  0.00    +0.000 F 
ATOM     30  F   UNL     1       7.587   5.568  14.107  0.00  0.00    +0.000 F 
ATOM     31  C   UNL     1       5.358   5.214  15.055  0.00  0.00    +0.000 C 
ENDBRANCH  23  26
ENDBRANCH   6  19
BRANCH   1  33
ATOM     32  C   UNL     1      -1.056  13.834  22.063  0.00  0.00    +0.000 C 
ATOM     33  C   UNL     1       0.431  13.591  21.855  0.00  0.00    +0.000 C 
ENDBRANCH   1  33
TORSDOF 4
ENDMDL
MODEL 5
REMARK VINA RESULT:      -8.7      4.110     10.025
REMARK  Name = 
REMARK  6 active torsions:
REMARK  status: ('A' for Active; 'I' for Inactive)
REMARK    1  A    between atoms: C_1  and  C_2
REMARK    2  A    between atoms: C_2  and  N_3
REMARK    3  A    between atoms: C_4  and  C_5
REMARK    4  A    between atoms: C_8  and  C_9
REMARK    5  A    between atoms: N_15  and  C_16
REMARK    6  A    between atoms: C_20  and  C_22
REMARK                            x       y       z     vdW  Elec       q    Type
REMARK                         _______ _______ _______ _____ _____    ______ ____
ROOT
ATOM      1  N   UNL     1      -3.439  12.336  19.590  0.00  0.00    +0.000 N 
ATOM      2  C   UNL     1      -2.649  12.749  20.641  0.00  0.00    +0.000 A 
ATOM      3  N   UNL     1      -1.417  12.263  20.514  0.00  0.00    +0.000 NA
ATOM      4  C   UNL     1      -1.413  11.551  19.338  0.00  0.00    +0.000 A 
ATOM      5  C   UNL     1      -0.446  10.750  18.686  0.00  0.00    +0.000 A 
ATOM      6  N   UNL     1       0.838  10.448  19.223  0.00  0.00    +0.000 N 
ATOM      7  N   UNL     1      -0.837  10.187  17.497  0.00  0.00    +0.000 NA
ATOM      8  C   UNL     1      -2.059  10.414  16.992  0.00  0.00    +0.000 A 
ATOM      9  N   UNL     1      -3.041  11.122  17.552  0.00  0.00    +0.000 NA
ATOM     10  C   UNL     1      -2.652  11.635  18.728  0.00  0.00    +0.000 A 
ATOM     11  H   UNL     1       1.461  11.216  18.958  0.00  0.00    +0.000 HD
ENDROOT
BRANCH   2  12
ATOM     12  C   UNL     1      -3.068  13.586  21.757  0.00  0.00    +0.000 A 
ATOM     13  C   UNL     1      -2.910  14.937  21.755  0.00  0.00    +0.000 A 
ATOM     14  N   UNL     1      -3.324  15.745  22.752  0.00  0.00    +0.000 NA
ATOM     15  C   UNL     1      -3.938  15.143  23.799  0.00  0.00    +0.000 A 
ATOM     16  C   UNL     1      -4.417  16.017  24.911  0.00  0.00    +0.000 C 
ATOM     17  N   UNL     1      -4.136  13.843  23.914  0.00  0.00    +0.000 NA
ATOM     18  C   UNL     1      -3.699  13.094  22.886  0.00  0.00    +0.000 A 
ENDBRANCH   2  12
BRANCH   6  19
ATOM     19  C   UNL     1       1.264   9.163  18.661  0.00  0.00    +0.000 C 
ATOM     20  C   UNL     1       2.505   9.271  17.779  0.00  0.00    +0.000 C 
ATOM     21  C   UNL     1       2.531   7.826  17.306  0.00  0.00    +0.000 C 
ATOM     22  N   UNL     1       2.363   7.099  18.567  0.00  0.00    +0.000 N 
ATOM     23  C   UNL     1       2.740   5.753  18.722  0.00  0.00    +0.000 C 
ATOM     24  O   UNL     1       3.255   5.150  17.805  0.00  0.00    +0.000 OA
ATOM     25  C   UNL     1       1.653   7.947  19.541  0.00  0.00    +0.000 C 
BRANCH  23  26
ATOM     26  C   UNL     1       2.504   5.141  20.147  0.00  0.00    +0.000 C 
ATOM     27  C   UNL     1       1.153   4.475  20.505  0.00  0.00    +0.000 C 
ATOM     28  C   UNL     1       1.930   3.358  21.238  0.00  0.00    +0.000 C 
ATOM     29  F   UNL     1       1.504   2.096  20.980  0.00  0.00    +0.000 F 
ATOM     30  F   UNL     1       1.984   3.478  22.584  0.00  0.00    +0.000 F 
ATOM     31  C   UNL     1       3.201   3.798  20.484  0.00  0.00    +0.000 C 
ENDBRANCH  23  26
ENDBRANCH   6  19
BRANCH   1  33
ATOM     32  C   UNL     1      -5.719  11.543  20.131  0.00  0.00    +0.000 C 
ATOM     33  C   UNL     1      -4.863  12.551  19.380  0.00  0.00    +0.000 C 
ENDBRANCH   1  33
TORSDOF 4
ENDMDL
MODEL 6
REMARK VINA RESULT:      -8.7      4.184     10.085
REMARK  Name = 
REMARK  6 active torsions:
REMARK  status: ('A' for Active; 'I' for Inactive)
REMARK    1  A    between atoms: C_1  and  C_2
REMARK    2  A    between atoms: C_2  and  N_3
REMARK    3  A    between atoms: C_4  and  C_5
REMARK    4  A    between atoms: C_8  and  C_9
REMARK    5  A    between atoms: N_15  and  C_16
REMARK    6  A    between atoms: C_20  and  C_22
REMARK                            x       y       z     vdW  Elec       q    Type
REMARK                         _______ _______ _______ _____ _____    ______ ____
ROOT
ATOM      1  N   UNL     1      -4.124  11.844  18.938  0.00  0.00    +0.000 N 
ATOM      2  C   UNL     1      -3.519  12.356  20.066  0.00  0.00    +0.000 A 
ATOM      3  N   UNL     1      -2.226  12.042  20.080  0.00  0.00    +0.000 NA
ATOM      4  C   UNL     1      -1.995  11.343  18.919  0.00  0.00    +0.000 A 
ATOM      5  C   UNL     1      -0.863  10.684  18.386  0.00  0.00    +0.000 A 
ATOM      6  N   UNL     1       0.384  10.556  19.064  0.00  0.00    +0.000 N 
ATOM      7  N   UNL     1      -1.039  10.079  17.167  0.00  0.00    +0.000 NA
ATOM      8  C   UNL     1      -2.218  10.141  16.528  0.00  0.00    +0.000 A 
ATOM      9  N   UNL     1      -3.342  10.707  16.969  0.00  0.00    +0.000 NA
ATOM     10  C   UNL     1      -3.159  11.261  18.175  0.00  0.00    +0.000 A 
ATOM     11  H   UNL     1       0.922  11.403  18.862  0.00  0.00    +0.000 HD
ENDROOT
BRANCH   2  12
ATOM     12  C   UNL     1      -4.168  13.122  21.120  0.00  0.00    +0.000 A 
ATOM     13  C   UNL     1      -4.646  14.380  20.919  0.00  0.00    +0.000 A 
ATOM     14  N   UNL     1      -5.289  15.101  21.861  0.00  0.00    +0.000 NA
ATOM     15  C   UNL     1      -5.460  14.503  23.064  0.00  0.00    +0.000 A 
ATOM     16  C   UNL     1      -6.179  15.275  24.120  0.00  0.00    +0.000 C 
ATOM     17  N   UNL     1      -5.030  13.294  23.376  0.00  0.00    +0.000 NA
ATOM     18  C   UNL     1      -4.397  12.629  22.393  0.00  0.00    +0.000 A 
ENDBRANCH   2  12
BRANCH   6  19
ATOM     19  C   UNL     1       1.039   9.344  18.566  0.00  0.00    +0.000 C 
ATOM     20  C   UNL     1       2.439   9.598  18.012  0.00  0.00    +0.000 C 
ATOM     21  C   UNL     1       2.700   8.192  17.497  0.00  0.00    +0.000 C 
ATOM     22  N   UNL     1       2.304   7.377  18.649  0.00  0.00    +0.000 N 
ATOM     23  C   UNL     1       2.748   6.055  18.831  0.00  0.00    +0.000 C 
ATOM     24  O   UNL     1       3.515   5.550  18.039  0.00  0.00    +0.000 OA
ATOM     25  C   UNL     1       1.314   8.108  19.461  0.00  0.00    +0.000 C 
BRANCH  23  26
ATOM     26  C   UNL     1       2.237   5.340  20.131  0.00  0.00    +0.000 C 
ATOM     27  C   UNL     1       0.946   4.487  20.105  0.00  0.00    +0.000 C 
ATOM     28  C   UNL     1       1.652   3.440  20.994  0.00  0.00    +0.000 C 
ATOM     29  F   UNL     1       1.487   2.150  20.608  0.00  0.00    +0.000 F 
ATOM     30  F   UNL     1       1.338   3.490  22.309  0.00  0.00    +0.000 F 
ATOM     31  C   UNL     1       3.002   4.079  20.613  0.00  0.00    +0.000 C 
ENDBRANCH  23  26
ENDBRANCH   6  19
BRANCH   1  33
ATOM     32  C   UNL     1      -6.346  10.828  19.328  0.00  0.00    +0.000 C 
ATOM     33  C   UNL     1      -5.532  11.865  18.570  0.00  0.00    +0.000 C 
ENDBRANCH   1  33
TORSDOF 4
ENDMDL
MODEL 7
REMARK VINA RESULT:      -8.6      3.200      4.207
REMARK  Name = 
REMARK  6 active torsions:
REMARK  status: ('A' for Active; 'I' for Inactive)
REMARK    1  A    between atoms: C_1  and  C_2
REMARK    2  A    between atoms: C_2  and  N_3
REMARK    3  A    between atoms: C_4  and  C_5
REMARK    4  A    between atoms: C_8  and  C_9
REMARK    5  A    between atoms: N_15  and  C_16
REMARK    6  A    between atoms: C_20  and  C_22
REMARK                            x       y       z     vdW  Elec       q    Type
REMARK                         _______ _______ _______ _____ _____    ______ ____
ROOT
ATOM      1  N   UNL     1       3.054   6.215  19.268  0.00  0.00    +0.000 N 
ATOM      2  C   UNL     1       3.543   6.826  18.133  0.00  0.00    +0.000 A 
ATOM      3  N   UNL     1       2.971   8.015  17.965  0.00  0.00    +0.000 NA
ATOM      4  C   UNL     1       2.123   8.180  19.035  0.00  0.00    +0.000 A 
ATOM      5  C   UNL     1       1.192   9.182  19.396  0.00  0.00    +0.000 A 
ATOM      6  N   UNL     1       0.879  10.314  18.589  0.00  0.00    +0.000 N 
ATOM      7  N   UNL     1       0.515   8.976  20.571  0.00  0.00    +0.000 NA
ATOM      8  C   UNL     1       0.753   7.892  21.327  0.00  0.00    +0.000 A 
ATOM      9  N   UNL     1       1.582   6.885  21.047  0.00  0.00    +0.000 NA
ATOM     10  C   UNL     1       2.208   7.089  19.880  0.00  0.00    +0.000 A 
ATOM     11  H   UNL     1       1.571  11.037  18.808  0.00  0.00    +0.000 HD
ENDROOT
BRANCH   2  12
ATOM     12  C   UNL     1       4.532   6.276  17.216  0.00  0.00    +0.000 A 
ATOM     13  C   UNL     1       5.724   6.887  16.978  0.00  0.00    +0.000 A 
ATOM     14  N   UNL     1       6.679   6.385  16.168  0.00  0.00    +0.000 NA
ATOM     15  C   UNL     1       6.405   5.195  15.581  0.00  0.00    +0.000 A 
ATOM     16  C   UNL     1       7.450   4.612  14.689  0.00  0.00    +0.000 C 
ATOM     17  N   UNL     1       5.281   4.519  15.730  0.00  0.00    +0.000 NA
ATOM     18  C   UNL     1       4.371   5.075  16.549  0.00  0.00    +0.000 A 
ENDBRANCH   2  12
BRANCH   6  19
ATOM     19  C   UNL     1      -0.487  10.730  18.916  0.00  0.00    +0.000 C 
ATOM     20  C   UNL     1      -0.574  12.160  19.444  0.00  0.00    +0.000 C 
ATOM     21  C   UNL     1      -2.057  12.151  19.780  0.00  0.00    +0.000 C 
ATOM     22  N   UNL     1      -2.634  11.589  18.555  0.00  0.00    +0.000 N 
ATOM     23  C   UNL     1      -3.983  11.767  18.202  0.00  0.00    +0.000 C 
ATOM     24  O   UNL     1      -4.718  12.433  18.900  0.00  0.00    +0.000 OA
ATOM     25  C   UNL     1      -1.633  10.748  17.873  0.00  0.00    +0.000 C 
BRANCH  23  26
ATOM     26  C   UNL     1      -4.423  11.110  16.847  0.00  0.00    +0.000 C 
ATOM     27  C   UNL     1      -3.866  11.633  15.501  0.00  0.00    +0.000 C 
ATOM     28  C   UNL     1      -3.724  10.170  15.024  0.00  0.00    +0.000 C 
ATOM     29  F   UNL     1      -2.550   9.875  14.413  0.00  0.00    +0.000 F 
ATOM     30  F   UNL     1      -4.705   9.730  14.203  0.00  0.00    +0.000 F 
ATOM     31  C   UNL     1      -3.840   9.718  16.493  0.00  0.00    +0.000 C 
ENDBRANCH  23  26
ENDBRANCH   6  19
BRANCH   1  33
ATOM     32  C   UNL     1       2.278   3.867  19.342  0.00  0.00    +0.000 C 
ATOM     33  C   UNL     1       3.328   4.879  19.774  0.00  0.00    +0.000 C 
ENDBRANCH   1  33
TORSDOF 4
ENDMDL
MODEL 8
REMARK VINA RESULT:      -8.4      4.293      9.933
REMARK  Name = 
REMARK  6 active torsions:
REMARK  status: ('A' for Active; 'I' for Inactive)
REMARK    1  A    between atoms: C_1  and  C_2
REMARK    2  A    between atoms: C_2  and  N_3
REMARK    3  A    between atoms: C_4  and  C_5
REMARK    4  A    between atoms: C_8  and  C_9
REMARK    5  A    between atoms: N_15  and  C_16
REMARK    6  A    between atoms: C_20  and  C_22
REMARK                            x       y       z     vdW  Elec       q    Type
REMARK                         _______ _______ _______ _____ _____    ______ ____
ROOT
ATOM      1  N   UNL     1      -2.280  13.187  20.936  0.00  0.00    +0.000 N 
ATOM      2  C   UNL     1      -1.227  13.401  21.800  0.00  0.00    +0.000 A 
ATOM      3  N   UNL     1      -0.158  12.715  21.407  0.00  0.00    +0.000 NA
ATOM      4  C   UNL     1      -0.527  12.074  20.247  0.00  0.00    +0.000 A 
ATOM      5  C   UNL     1       0.122  11.151  19.394  0.00  0.00    +0.000 A 
ATOM      6  N   UNL     1       1.413  10.602  19.641  0.00  0.00    +0.000 N 
ATOM      7  N   UNL     1      -0.602  10.727  18.308  0.00  0.00    +0.000 NA
ATOM      8  C   UNL     1      -1.841  11.191  18.078  0.00  0.00    +0.000 A 
ATOM      9  N   UNL     1      -2.540  12.029  18.845  0.00  0.00    +0.000 NA
ATOM     10  C   UNL     1      -1.829  12.405  19.917  0.00  0.00    +0.000 A 
ATOM     11  H   UNL     1       2.096  11.262  19.259  0.00  0.00    +0.000 HD
ENDROOT
BRANCH   2  12
ATOM     12  C   UNL     1      -1.247  14.240  22.991  0.00  0.00    +0.000 A 
ATOM     13  C   UNL     1      -2.133  14.047  24.004  0.00  0.00    +0.000 A 
ATOM     14  N   UNL     1      -2.151  14.778  25.138  0.00  0.00    +0.000 NA
ATOM     15  C   UNL     1      -1.211  15.747  25.245  0.00  0.00    +0.000 A 
ATOM     16  C   UNL     1      -1.202  16.563  26.495  0.00  0.00    +0.000 C 
ATOM     17  N   UNL     1      -0.310  16.031  24.323  0.00  0.00    +0.000 NA
ATOM     18  C   UNL     1      -0.346  15.266  23.217  0.00  0.00    +0.000 A 
ENDBRANCH   2  12
BRANCH   6  19
ATOM     19  C   UNL     1       1.472   9.293  18.984  0.00  0.00    +0.000 C 
ATOM     20  C   UNL     1       2.474   9.240  17.833  0.00  0.00    +0.000 C 
ATOM     21  C   UNL     1       2.144   7.835  17.356  0.00  0.00    +0.000 C 
ATOM     22  N   UNL     1       2.154   7.085  18.616  0.00  0.00    +0.000 N 
ATOM     23  C   UNL     1       2.322   5.690  18.667  0.00  0.00    +0.000 C 
ATOM     24  O   UNL     1       2.500   5.055  17.648  0.00  0.00    +0.000 OA
ATOM     25  C   UNL     1       1.844   7.990  19.737  0.00  0.00    +0.000 C 
BRANCH  23  26
ATOM     26  C   UNL     1       2.325   5.057  20.102  0.00  0.00    +0.000 C 
ATOM     27  C   UNL     1       1.078   4.312  20.637  0.00  0.00    +0.000 C 
ATOM     28  C   UNL     1       2.012   3.238  21.238  0.00  0.00    +0.000 C 
ATOM     29  F   UNL     1       1.627   1.955  21.025  0.00  0.00    +0.000 F 
ATOM     30  F   UNL     1       2.248   3.353  22.564  0.00  0.00    +0.000 F 
ATOM     31  C   UNL     1       3.137   3.755  20.319  0.00  0.00    +0.000 C 
ENDBRANCH  23  26
ENDBRANCH   6  19
BRANCH   1  33
ATOM     32  C   UNL     1      -4.557  12.663  21.749  0.00  0.00    +0.000 C 
ATOM     33  C   UNL     1      -3.653  13.658  21.037  0.00  0.00    +0.000 C 
ENDBRANCH   1  33
TORSDOF 4
ENDMDL
MODEL 9
REMARK VINA RESULT:      -8.3      2.313      3.409
REMARK  Name = 
REMARK  6 active torsions:
REMARK  status: ('A' for Active; 'I' for Inactive)
REMARK    1  A    between atoms: C_1  and  C_2
REMARK    2  A    between atoms: C_2  and  N_3
REMARK    3  A    between atoms: C_4  and  C_5
REMARK    4  A    between atoms: C_8  and  C_9
REMARK    5  A    between atoms: N_15  and  C_16
REMARK    6  A    between atoms: C_20  and  C_22
REMARK                            x       y       z     vdW  Elec       q    Type
REMARK                         _______ _______ _______ _____ _____    ______ ____
ROOT
ATOM      1  N   UNL     1       3.167   4.260  17.832  0.00  0.00    +0.000 N 
ATOM      2  C   UNL     1       4.068   5.226  17.437  0.00  0.00    +0.000 A 
ATOM      3  N   UNL     1       3.912   6.329  18.163  0.00  0.00    +0.000 NA
ATOM      4  C   UNL     1       2.911   6.050  19.063  0.00  0.00    +0.000 A 
ATOM      5  C   UNL     1       2.241   6.816  20.046  0.00  0.00    +0.000 A 
ATOM      6  N   UNL     1       2.465   8.206  20.269  0.00  0.00    +0.000 N 
ATOM      7  N   UNL     1       1.269   6.160  20.757  0.00  0.00    +0.000 NA
ATOM      8  C   UNL     1       1.002   4.864  20.533  0.00  0.00    +0.000 A 
ATOM      9  N   UNL     1       1.556   4.078  19.608  0.00  0.00    +0.000 NA
ATOM     10  C   UNL     1       2.478   4.747  18.902  0.00  0.00    +0.000 A 
ATOM     11  H   UNL     1       3.257   8.280  20.914  0.00  0.00    +0.000 HD
ENDROOT
BRANCH   2  12
ATOM     12  C   UNL     1       5.054   5.100  16.373  0.00  0.00    +0.000 A 
ATOM     13  C   UNL     1       4.784   4.471  15.198  0.00  0.00    +0.000 A 
ATOM     14  N   UNL     1       5.660   4.373  14.177  0.00  0.00    +0.000 NA
ATOM     15  C   UNL     1       6.869   4.955  14.363  0.00  0.00    +0.000 A 
ATOM     16  C   UNL     1       7.853   4.871  13.244  0.00  0.00    +0.000 C 
ATOM     17  N   UNL     1       7.245   5.581  15.463  0.00  0.00    +0.000 NA
ATOM     18  C   UNL     1       6.326   5.643  16.442  0.00  0.00    +0.000 A 
ENDBRANCH   2  12
BRANCH   6  19
ATOM     19  C   UNL     1       1.233   8.770  20.828  0.00  0.00    +0.000 C 
ATOM     20  C   UNL     1       1.214   8.785  22.354  0.00  0.00    +0.000 C 
ATOM     21  C   UNL     1      -0.212   9.286  22.523  0.00  0.00    +0.000 C 
ATOM     22  N   UNL     1      -0.239  10.420  21.595  0.00  0.00    +0.000 N 
ATOM     23  C   UNL     1      -1.181  11.459  21.693  0.00  0.00    +0.000 C 
ATOM     24  O   UNL     1      -1.998  11.463  22.589  0.00  0.00    +0.000 OA
ATOM     25  C   UNL     1       0.759  10.215  20.529  0.00  0.00    +0.000 C 
BRANCH  23  26
ATOM     26  C   UNL     1      -1.049  12.600  20.625  0.00  0.00    +0.000 C 
ATOM     27  C   UNL     1      -2.166  13.659  20.461  0.00  0.00    +0.000 C 
ATOM     28  C   UNL     1      -1.076  14.744  20.309  0.00  0.00    +0.000 C 
ATOM     29  F   UNL     1      -1.289  15.878  21.022  0.00  0.00    +0.000 F 
ATOM     30  F   UNL     1      -0.818  15.131  19.039  0.00  0.00    +0.000 F 
ATOM     31  C   UNL     1      -0.060  13.757  20.918  0.00  0.00    +0.000 C 
ENDBRANCH  23  26
ENDBRANCH   6  19
BRANCH   1  33
ATOM     32  C   UNL     1       3.590   1.832  18.039  0.00  0.00    +0.000 C 
ATOM     33  C   UNL     1       2.922   2.949  17.252  0.00  0.00    +0.000 C 
ENDBRANCH   1  33
TORSDOF 4
ENDMDL
