MODEL 1
REMARK VINA RESULT:      -7.2      0.000      0.000
REMARK  Name = 
REMARK  6 active torsions:
REMARK  status: ('A' for Active; 'I' for Inactive)
REMARK    1  A    between atoms: C_2  and  C_3
REMARK    2  A    between atoms: C_3  and  C_4
REMARK    3  A    between atoms: C_16  and  C_17
REMARK    4  A    between atoms: C_17  and  O_18
REMARK    5  A    between atoms: C_19  and  O_20
REMARK    6  A    between atoms: C_21  and  O_22
REMARK                            x       y       z     vdW  Elec       q    Type
REMARK                         _______ _______ _______ _____ _____    ______ ____
ROOT
ATOM      1  C   UNL     1       3.655   2.862  19.360  0.00  0.00    +0.000 C 
ATOM      2  O   UNL     1       2.585   2.195  18.641  0.00  0.00    +0.000 OA
ATOM      3  C   UNL     1       1.441   3.087  18.603  0.00  0.00    +0.000 C 
ATOM      4  C   UNL     1       1.494   3.915  19.880  0.00  0.00    +0.000 C 
ATOM      5  C   UNL     1       2.942   3.806  20.368  0.00  0.00    +0.000 C 
ENDROOT
BRANCH   1   6
ATOM      6  C   UNL     1       4.500   3.525  18.273  0.00  0.00    +0.000 A 
ATOM      7  C   UNL     1       4.473   3.322  16.896  0.00  0.00    +0.000 A 
ATOM      8  C   UNL     1       5.395   4.213  16.319  0.00  0.00    +0.000 A 
ATOM      9 BR   UNL     1       5.636   4.379  14.469  0.00  0.00    +0.000 Br
ATOM     10  C   UNL     1       6.039   4.871  17.336  0.00  0.00    +0.000 A 
ATOM     11  C   UNL     1       7.060   5.863  17.390  0.00  0.00    +0.000 A 
ATOM     12  N   UNL     1       7.595   6.473  16.297  0.00  0.00    +0.000 N 
ATOM     13  N   UNL     1       7.511   6.209  18.557  0.00  0.00    +0.000 NA
ATOM     14  C   UNL     1       6.985   5.620  19.679  0.00  0.00    +0.000 A 
ATOM     15  N   UNL     1       6.025   4.748  19.719  0.00  0.00    +0.000 NA
ATOM     16  N   UNL     1       5.545   4.393  18.519  0.00  0.00    +0.000 N 
ATOM     17  H   UNL     1       7.545   5.973  15.418  0.00  0.00    +0.000 HD
ATOM     18  H   UNL     1       8.485   6.925  16.474  0.00  0.00    +0.000 HD
ENDBRANCH   1   6
BRANCH   1  20
ATOM     19  N   UNL     1       5.389   1.146  20.696  0.00  0.00    +0.000 NA
ATOM     20  C   UNL     1       4.603   1.924  20.090  0.00  0.00    +0.000 C 
ENDBRANCH   1  20
BRANCH   4  21
ATOM     21  O   UNL     1       0.554   3.435  20.844  0.00  0.00    +0.000 OA
ATOM     22  H   UNL     1       0.428   2.478  20.729  0.00  0.00    +0.000 HD
ENDBRANCH   4  21
BRANCH   5  23
ATOM     23  O   UNL     1       2.994   3.369  21.736  0.00  0.00    +0.000 OA
ATOM     24  H   UNL     1       3.558   3.972  22.250  0.00  0.00    +0.000 HD
ENDBRANCH   5  23
BRANCH   3  25
ATOM     25  C   UNL     1       1.429   4.001  17.361  0.00  0.00    +0.000 C 
BRANCH  25  26
ATOM     26  O   UNL     1       1.679   5.355  17.714  0.00  0.00    +0.000 OA
ATOM     27  H   UNL     1       1.078   5.908  17.187  0.00  0.00    +0.000 HD
ENDBRANCH  25  26
ENDBRANCH   3  25
TORSDOF 6
ENDMDL
MODEL 2
REMARK VINA RESULT:      -6.6      1.591      2.706
REMARK  Name = 
REMARK  6 active torsions:
REMARK  status: ('A' for Active; 'I' for Inactive)
REMARK    1  A    between atoms: C_2  and  C_3
REMARK    2  A    between atoms: C_3  and  C_4
REMARK    3  A    between atoms: C_16  and  C_17
REMARK    4  A    between atoms: C_17  and  O_18
REMARK    5  A    between atoms: C_19  and  O_20
REMARK    6  A    between atoms: C_21  and  O_22
REMARK                            x       y       z     vdW  Elec       q    Type
REMARK                         _______ _______ _______ _____ _____    ______ ____
ROOT
ATOM      1  C   UNL     1       3.101   4.593  19.280  0.00  0.00    +0.000 C 
ATOM      2  O   UNL     1       3.923   4.058  20.350  0.00  0.00    +0.000 OA
ATOM      3  C   UNL     1       3.677   2.629  20.438  0.00  0.00    +0.000 C 
ATOM      4  C   UNL     1       2.233   2.410  20.010  0.00  0.00    +0.000 C 
ATOM      5  C   UNL     1       1.852   3.670  19.224  0.00  0.00    +0.000 C 
ENDROOT
BRANCH   1   6
ATOM      6  C   UNL     1       4.012   4.595  18.054  0.00  0.00    +0.000 A 
ATOM      7  C   UNL     1       3.786   4.049  16.793  0.00  0.00    +0.000 A 
ATOM      8  C   UNL     1       4.896   4.366  15.990  0.00  0.00    +0.000 A 
ATOM      9 BR   UNL     1       5.000   3.927  14.172  0.00  0.00    +0.000 Br
ATOM     10  C   UNL     1       5.819   5.004  16.779  0.00  0.00    +0.000 A 
ATOM     11  C   UNL     1       7.116   5.548  16.551  0.00  0.00    +0.000 A 
ATOM     12  N   UNL     1       7.719   5.609  15.332  0.00  0.00    +0.000 N 
ATOM     13  N   UNL     1       7.768   6.016  17.572  0.00  0.00    +0.000 NA
ATOM     14  C   UNL     1       7.183   5.978  18.812  0.00  0.00    +0.000 A 
ATOM     15  N   UNL     1       5.993   5.545  19.096  0.00  0.00    +0.000 NA
ATOM     16  N   UNL     1       5.309   5.071  18.046  0.00  0.00    +0.000 N 
ATOM     17  H   UNL     1       7.418   4.940  14.633  0.00  0.00    +0.000 HD
ATOM     18  H   UNL     1       8.722   5.749  15.377  0.00  0.00    +0.000 HD
ENDBRANCH   1   6
BRANCH   1  20
ATOM     19  N   UNL     1       2.334   7.243  19.633  0.00  0.00    +0.000 NA
ATOM     20  C   UNL     1       2.682   6.041  19.473  0.00  0.00    +0.000 C 
ENDBRANCH   1  20
BRANCH   4  21
ATOM     21  O   UNL     1       1.387   2.197  21.143  0.00  0.00    +0.000 OA
ATOM     22  H   UNL     1       1.922   2.196  21.955  0.00  0.00    +0.000 HD
ENDBRANCH   4  21
BRANCH   5  23
ATOM     23  O   UNL     1       0.648   4.258  19.744  0.00  0.00    +0.000 OA
ATOM     24  H   UNL     1      -0.070   4.158  19.097  0.00  0.00    +0.000 HD
ENDBRANCH   5  23
BRANCH   3  25
ATOM     25  C   UNL     1       4.637   1.798  19.562  0.00  0.00    +0.000 C 
BRANCH  25  26
ATOM     26  O   UNL     1       3.927   1.058  18.578  0.00  0.00    +0.000 OA
ATOM     27  H   UNL     1       4.354   0.188  18.505  0.00  0.00    +0.000 HD
ENDBRANCH  25  26
ENDBRANCH   3  25
TORSDOF 6
ENDMDL
MODEL 3
REMARK VINA RESULT:      -6.5      3.534      4.415
REMARK  Name = 
REMARK  6 active torsions:
REMARK  status: ('A' for Active; 'I' for Inactive)
REMARK    1  A    between atoms: C_2  and  C_3
REMARK    2  A    between atoms: C_3  and  C_4
REMARK    3  A    between atoms: C_16  and  C_17
REMARK    4  A    between atoms: C_17  and  O_18
REMARK    5  A    between atoms: C_19  and  O_20
REMARK    6  A    between atoms: C_21  and  O_22
REMARK                            x       y       z     vdW  Elec       q    Type
REMARK                         _______ _______ _______ _____ _____    ______ ____
ROOT
ATOM      1  C   UNL     1       4.321   4.196  19.055  0.00  0.00    +0.000 C 
ATOM      2  O   UNL     1       4.114   3.910  17.648  0.00  0.00    +0.000 OA
ATOM      3  C   UNL     1       3.118   2.859  17.541  0.00  0.00    +0.000 C 
ATOM      4  C   UNL     1       3.272   1.988  18.781  0.00  0.00    +0.000 C 
ATOM      5  C   UNL     1       4.027   2.859  19.791  0.00  0.00    +0.000 C 
ENDROOT
BRANCH   1   6
ATOM      6  C   UNL     1       3.388   5.368  19.356  0.00  0.00    +0.000 A 
ATOM      7  C   UNL     1       2.473   5.516  20.395  0.00  0.00    +0.000 A 
ATOM      8  C   UNL     1       1.900   6.794  20.275  0.00  0.00    +0.000 A 
ATOM      9 BR   UNL     1       0.680   7.487  21.517  0.00  0.00    +0.000 Br
ATOM     10  C   UNL     1       2.384   7.367  19.127  0.00  0.00    +0.000 A 
ATOM     11  C   UNL     1       2.176   8.616  18.475  0.00  0.00    +0.000 A 
ATOM     12  N   UNL     1       1.419   9.629  18.980  0.00  0.00    +0.000 N 
ATOM     13  N   UNL     1       2.743   8.803  17.322  0.00  0.00    +0.000 NA
ATOM     14  C   UNL     1       3.521   7.806  16.791  0.00  0.00    +0.000 A 
ATOM     15  N   UNL     1       3.799   6.663  17.340  0.00  0.00    +0.000 NA
ATOM     16  N   UNL     1       3.226   6.467  18.535  0.00  0.00    +0.000 N 
ATOM     17  H   UNL     1       0.696   9.379  19.644  0.00  0.00    +0.000 HD
ATOM     18  H   UNL     1       1.137  10.315  18.289  0.00  0.00    +0.000 HD
ENDBRANCH   1   6
BRANCH   1  20
ATOM     19  N   UNL     1       6.873   5.107  19.682  0.00  0.00    +0.000 NA
ATOM     20  C   UNL     1       5.715   4.694  19.398  0.00  0.00    +0.000 C 
ENDBRANCH   1  20
BRANCH   4  21
ATOM     21  O   UNL     1       3.969   0.778  18.475  0.00  0.00    +0.000 OA
ATOM     22  H   UNL     1       4.011   0.215  19.267  0.00  0.00    +0.000 HD
ENDBRANCH   4  21
BRANCH   5  23
ATOM     23  O   UNL     1       5.192   2.180  20.289  0.00  0.00    +0.000 OA
ATOM     24  H   UNL     1       5.918   2.817  20.399  0.00  0.00    +0.000 HD
ENDBRANCH   5  23
BRANCH   3  25
ATOM     25  C   UNL     1       1.678   3.401  17.432  0.00  0.00    +0.000 C 
BRANCH  25  26
ATOM     26  O   UNL     1       0.793   2.690  18.288  0.00  0.00    +0.000 OA
ATOM     27  H   UNL     1       1.179   1.810  18.436  0.00  0.00    +0.000 HD
ENDBRANCH  25  26
ENDBRANCH   3  25
TORSDOF 6
ENDMDL
MODEL 4
REMARK VINA RESULT:      -6.5      3.420      5.475
REMARK  Name = 
REMARK  6 active torsions:
REMARK  status: ('A' for Active; 'I' for Inactive)
REMARK    1  A    between atoms: C_2  and  C_3
REMARK    2  A    between atoms: C_3  and  C_4
REMARK    3  A    between atoms: C_16  and  C_17
REMARK    4  A    between atoms: C_17  and  O_18
REMARK    5  A    between atoms: C_19  and  O_20
REMARK    6  A    between atoms: C_21  and  O_22
REMARK                            x       y       z     vdW  Elec       q    Type
REMARK                         _______ _______ _______ _____ _____    ______ ____
ROOT
ATOM      1  C   UNL     1       6.227   5.497  18.334  0.00  0.00    +0.000 C 
ATOM      2  O   UNL     1       6.181   6.815  17.727  0.00  0.00    +0.000 OA
ATOM      3  C   UNL     1       5.867   6.653  16.318  0.00  0.00    +0.000 C 
ATOM      4  C   UNL     1       6.463   5.318  15.892  0.00  0.00    +0.000 C 
ATOM      5  C   UNL     1       6.673   4.539  17.194  0.00  0.00    +0.000 C 
ENDROOT
BRANCH   1   6
ATOM      6  C   UNL     1       4.828   5.283  18.907  0.00  0.00    +0.000 A 
ATOM      7  C   UNL     1       4.017   6.180  19.598  0.00  0.00    +0.000 A 
ATOM      8  C   UNL     1       2.798   5.531  19.861  0.00  0.00    +0.000 A 
ATOM      9 BR   UNL     1       1.345   6.380  20.686  0.00  0.00    +0.000 Br
ATOM     10  C   UNL     1       2.907   4.235  19.426  0.00  0.00    +0.000 A 
ATOM     11  C   UNL     1       2.034   3.109  19.423  0.00  0.00    +0.000 A 
ATOM     12  N   UNL     1       0.736   3.144  19.835  0.00  0.00    +0.000 N 
ATOM     13  N   UNL     1       2.504   1.975  19.001  0.00  0.00    +0.000 NA
ATOM     14  C   UNL     1       3.804   1.910  18.570  0.00  0.00    +0.000 A 
ATOM     15  N   UNL     1       4.647   2.894  18.496  0.00  0.00    +0.000 NA
ATOM     16  N   UNL     1       4.166   4.071  18.919  0.00  0.00    +0.000 N 
ATOM     17  H   UNL     1       0.479   3.870  20.492  0.00  0.00    +0.000 HD
ATOM     18  H   UNL     1       0.347   2.231  20.042  0.00  0.00    +0.000 HD
ENDBRANCH   1   6
BRANCH   1  20
ATOM     19  N   UNL     1       7.952   5.291  20.505  0.00  0.00    +0.000 NA
ATOM     20  C   UNL     1       7.170   5.384  19.521  0.00  0.00    +0.000 C 
ENDBRANCH   1  20
BRANCH   4  21
ATOM     21  O   UNL     1       7.680   5.507  15.166  0.00  0.00    +0.000 OA
ATOM     22  H   UNL     1       7.978   4.657  14.800  0.00  0.00    +0.000 HD
ENDBRANCH   4  21
BRANCH   5  23
ATOM     23  O   UNL     1       8.027   4.069  17.302  0.00  0.00    +0.000 OA
ATOM     24  H   UNL     1       8.111   3.491  18.080  0.00  0.00    +0.000 HD
ENDBRANCH   5  23
BRANCH   3  25
ATOM     25  C   UNL     1       4.353   6.692  16.029  0.00  0.00    +0.000 C 
BRANCH  25  26
ATOM     26  O   UNL     1       3.732   7.792  16.681  0.00  0.00    +0.000 OA
ATOM     27  H   UNL     1       3.711   8.530  16.049  0.00  0.00    +0.000 HD
ENDBRANCH  25  26
ENDBRANCH   3  25
TORSDOF 6
ENDMDL
MODEL 5
REMARK VINA RESULT:      -6.5      3.520      5.692
REMARK  Name = 
REMARK  6 active torsions:
REMARK  status: ('A' for Active; 'I' for Inactive)
REMARK    1  A    between atoms: C_2  and  C_3
REMARK    2  A    between atoms: C_3  and  C_4
REMARK    3  A    between atoms: C_16  and  C_17
REMARK    4  A    between atoms: C_17  and  O_18
REMARK    5  A    between atoms: C_19  and  O_20
REMARK    6  A    between atoms: C_21  and  O_22
REMARK                            x       y       z     vdW  Elec       q    Type
REMARK                         _______ _______ _______ _____ _____    ______ ____
ROOT
ATOM      1  C   UNL     1       5.603   4.971  16.537  0.00  0.00    +0.000 C 
ATOM      2  O   UNL     1       6.836   4.504  17.145  0.00  0.00    +0.000 OA
ATOM      3  C   UNL     1       7.325   5.544  18.032  0.00  0.00    +0.000 C 
ATOM      4  C   UNL     1       6.885   6.871  17.428  0.00  0.00    +0.000 C 
ATOM      5  C   UNL     1       5.740   6.518  16.474  0.00  0.00    +0.000 C 
ENDROOT
BRANCH   1   6
ATOM      6  C   UNL     1       4.495   4.412  17.427  0.00  0.00    +0.000 A 
ATOM      7  C   UNL     1       4.060   3.096  17.564  0.00  0.00    +0.000 A 
ATOM      8  C   UNL     1       3.058   3.082  18.550  0.00  0.00    +0.000 A 
ATOM      9 BR   UNL     1       2.240   1.509  19.154  0.00  0.00    +0.000 Br
ATOM     10  C   UNL     1       2.820   4.379  18.928  0.00  0.00    +0.000 A 
ATOM     11  C   UNL     1       1.936   4.999  19.857  0.00  0.00    +0.000 A 
ATOM     12  N   UNL     1       1.113   4.319  20.704  0.00  0.00    +0.000 N 
ATOM     13  N   UNL     1       1.910   6.296  19.902  0.00  0.00    +0.000 NA
ATOM     14  C   UNL     1       2.734   7.009  19.069  0.00  0.00    +0.000 A 
ATOM     15  N   UNL     1       3.599   6.524  18.232  0.00  0.00    +0.000 NA
ATOM     16  N   UNL     1       3.641   5.185  18.189  0.00  0.00    +0.000 N 
ATOM     17  H   UNL     1       0.844   3.381  20.432  0.00  0.00    +0.000 HD
ATOM     18  H   UNL     1       0.359   4.881  21.081  0.00  0.00    +0.000 HD
ENDBRANCH   1   6
BRANCH   1  20
ATOM     19  N   UNL     1       5.105   3.938  14.003  0.00  0.00    +0.000 NA
ATOM     20  C   UNL     1       5.331   4.406  15.152  0.00  0.00    +0.000 C 
ENDBRANCH   1  20
BRANCH   4  21
ATOM     21  O   UNL     1       7.972   7.517  16.760  0.00  0.00    +0.000 OA
ATOM     22  H   UNL     1       8.478   8.050  17.397  0.00  0.00    +0.000 HD
ENDBRANCH   4  21
BRANCH   5  23
ATOM     23  O   UNL     1       5.981   7.045  15.159  0.00  0.00    +0.000 OA
ATOM     24  H   UNL     1       6.803   6.669  14.802  0.00  0.00    +0.000 HD
ENDBRANCH   5  23
BRANCH   3  25
ATOM     25  C   UNL     1       6.800   5.402  19.475  0.00  0.00    +0.000 C 
BRANCH  25  26
ATOM     26  O   UNL     1       7.863   5.461  20.418  0.00  0.00    +0.000 OA
ATOM     27  H   UNL     1       8.231   6.360  20.383  0.00  0.00    +0.000 HD
ENDBRANCH  25  26
ENDBRANCH   3  25
TORSDOF 6
ENDMDL
MODEL 6
REMARK VINA RESULT:      -6.3      1.682      2.341
REMARK  Name = 
REMARK  6 active torsions:
REMARK  status: ('A' for Active; 'I' for Inactive)
REMARK    1  A    between atoms: C_2  and  C_3
REMARK    2  A    between atoms: C_3  and  C_4
REMARK    3  A    between atoms: C_16  and  C_17
REMARK    4  A    between atoms: C_17  and  O_18
REMARK    5  A    between atoms: C_19  and  O_20
REMARK    6  A    between atoms: C_21  and  O_22
REMARK                            x       y       z     vdW  Elec       q    Type
REMARK                         _______ _______ _______ _____ _____    ______ ____
ROOT
ATOM      1  C   UNL     1       3.822   3.304  19.547  0.00  0.00    +0.000 C 
ATOM      2  O   UNL     1       2.824   3.004  18.536  0.00  0.00    +0.000 OA
ATOM      3  C   UNL     1       1.762   3.989  18.642  0.00  0.00    +0.000 C 
ATOM      4  C   UNL     1       1.687   4.389  20.109  0.00  0.00    +0.000 C 
ATOM      5  C   UNL     1       3.037   3.979  20.707  0.00  0.00    +0.000 C 
ENDROOT
BRANCH   1   6
ATOM      6  C   UNL     1       4.860   4.162  18.826  0.00  0.00    +0.000 A 
ATOM      7  C   UNL     1       5.622   5.217  19.322  0.00  0.00    +0.000 A 
ATOM      8  C   UNL     1       6.476   5.643  18.290  0.00  0.00    +0.000 A 
ATOM      9 BR   UNL     1       7.768   6.980  18.519  0.00  0.00    +0.000 Br
ATOM     10  C   UNL     1       6.166   4.926  17.162  0.00  0.00    +0.000 A 
ATOM     11  C   UNL     1       6.661   4.908  15.827  0.00  0.00    +0.000 A 
ATOM     12  N   UNL     1       7.724   5.641  15.393  0.00  0.00    +0.000 N 
ATOM     13  N   UNL     1       6.062   4.144  14.965  0.00  0.00    +0.000 NA
ATOM     14  C   UNL     1       4.995   3.385  15.374  0.00  0.00    +0.000 A 
ATOM     15  N   UNL     1       4.514   3.308  16.576  0.00  0.00    +0.000 NA
ATOM     16  N   UNL     1       5.134   4.085  17.475  0.00  0.00    +0.000 N 
ATOM     17  H   UNL     1       7.946   6.483  15.910  0.00  0.00    +0.000 HD
ATOM     18  H   UNL     1       7.769   5.741  14.385  0.00  0.00    +0.000 HD
ENDBRANCH   1   6
BRANCH   1  20
ATOM     19  N   UNL     1       5.217   1.088  20.481  0.00  0.00    +0.000 NA
ATOM     20  C   UNL     1       4.584   2.093  20.058  0.00  0.00    +0.000 C 
ENDBRANCH   1  20
BRANCH   4  21
ATOM     21  O   UNL     1       0.585   3.752  20.760  0.00  0.00    +0.000 OA
ATOM     22  H   UNL     1       0.914   3.062  21.360  0.00  0.00    +0.000 HD
ENDBRANCH   4  21
BRANCH   5  23
ATOM     23  O   UNL     1       2.858   3.153  21.869  0.00  0.00    +0.000 OA
ATOM     24  H   UNL     1       3.725   2.920  22.241  0.00  0.00    +0.000 HD
ENDBRANCH   5  23
BRANCH   3  25
ATOM     25  C   UNL     1       1.996   5.225  17.751  0.00  0.00    +0.000 C 
BRANCH  25  26
ATOM     26  O   UNL     1       2.229   6.389  18.534  0.00  0.00    +0.000 OA
ATOM     27  H   UNL     1       1.945   6.189  19.442  0.00  0.00    +0.000 HD
ENDBRANCH  25  26
ENDBRANCH   3  25
TORSDOF 6
ENDMDL
MODEL 7
REMARK VINA RESULT:      -6.3      3.828      5.598
REMARK  Name = 
REMARK  6 active torsions:
REMARK  status: ('A' for Active; 'I' for Inactive)
REMARK    1  A    between atoms: C_2  and  C_3
REMARK    2  A    between atoms: C_3  and  C_4
REMARK    3  A    between atoms: C_16  and  C_17
REMARK    4  A    between atoms: C_17  and  O_18
REMARK    5  A    between atoms: C_19  and  O_20
REMARK    6  A    between atoms: C_21  and  O_22
REMARK                            x       y       z     vdW  Elec       q    Type
REMARK                         _______ _______ _______ _____ _____    ______ ____
ROOT
ATOM      1  C   UNL     1       4.725   4.812  17.102  0.00  0.00    +0.000 C 
ATOM      2  O   UNL     1       5.880   4.677  17.971  0.00  0.00    +0.000 OA
ATOM      3  C   UNL     1       6.946   5.506  17.438  0.00  0.00    +0.000 C 
ATOM      4  C   UNL     1       6.763   5.530  15.927  0.00  0.00    +0.000 C 
ATOM      5  C   UNL     1       5.308   5.112  15.692  0.00  0.00    +0.000 C 
ENDROOT
BRANCH   1   6
ATOM      6  C   UNL     1       3.880   5.910  17.746  0.00  0.00    +0.000 A 
ATOM      7  C   UNL     1       3.669   7.219  17.319  0.00  0.00    +0.000 A 
ATOM      8  C   UNL     1       2.766   7.816  18.215  0.00  0.00    +0.000 A 
ATOM      9 BR   UNL     1       2.099   9.552  17.989  0.00  0.00    +0.000 Br
ATOM     10  C   UNL     1       2.514   6.918  19.221  0.00  0.00    +0.000 A 
ATOM     11  C   UNL     1       1.710   6.941  20.397  0.00  0.00    +0.000 A 
ATOM     12  N   UNL     1       0.877   7.963  20.737  0.00  0.00    +0.000 N 
ATOM     13  N   UNL     1       1.774   5.922  21.199  0.00  0.00    +0.000 NA
ATOM     14  C   UNL     1       2.597   4.872  20.879  0.00  0.00    +0.000 A 
ATOM     15  N   UNL     1       3.322   4.752  19.809  0.00  0.00    +0.000 NA
ATOM     16  N   UNL     1       3.252   5.795  18.971  0.00  0.00    +0.000 N 
ATOM     17  H   UNL     1       1.090   8.878  20.359  0.00  0.00    +0.000 HD
ATOM     18  H   UNL     1       0.605   7.964  21.713  0.00  0.00    +0.000 HD
ENDBRANCH   1   6
BRANCH   1  20
ATOM     19  N   UNL     1       3.080   2.572  17.015  0.00  0.00    +0.000 NA
ATOM     20  C   UNL     1       3.826   3.588  17.055  0.00  0.00    +0.000 C 
ENDBRANCH   1  20
BRANCH   4  21
ATOM     21  O   UNL     1       7.693   4.657  15.282  0.00  0.00    +0.000 OA
ATOM     22  H   UNL     1       7.816   4.933  14.358  0.00  0.00    +0.000 HD
ENDBRANCH   4  21
BRANCH   5  23
ATOM     23  O   UNL     1       5.228   4.016  14.766  0.00  0.00    +0.000 OA
ATOM     24  H   UNL     1       4.460   4.136  14.183  0.00  0.00    +0.000 HD
ENDBRANCH   5  23
BRANCH   3  25
ATOM     25  C   UNL     1       6.940   6.938  18.011  0.00  0.00    +0.000 C 
BRANCH  25  26
ATOM     26  O   UNL     1       7.396   7.880  17.049  0.00  0.00    +0.000 OA
ATOM     27  H   UNL     1       7.850   7.382  16.348  0.00  0.00    +0.000 HD
ENDBRANCH  25  26
ENDBRANCH   3  25
TORSDOF 6
ENDMDL
MODEL 8
REMARK VINA RESULT:      -6.2      2.109      2.381
REMARK  Name = 
REMARK  6 active torsions:
REMARK  status: ('A' for Active; 'I' for Inactive)
REMARK    1  A    between atoms: C_2  and  C_3
REMARK    2  A    between atoms: C_3  and  C_4
REMARK    3  A    between atoms: C_16  and  C_17
REMARK    4  A    between atoms: C_17  and  O_18
REMARK    5  A    between atoms: C_19  and  O_20
REMARK    6  A    between atoms: C_21  and  O_22
REMARK                            x       y       z     vdW  Elec       q    Type
REMARK                         _______ _______ _______ _____ _____    ______ ____
ROOT
ATOM      1  C   UNL     1       2.598   4.596  18.808  0.00  0.00    +0.000 C 
ATOM      2  O   UNL     1       1.690   5.531  18.171  0.00  0.00    +0.000 OA
ATOM      3  C   UNL     1       1.983   6.861  18.673  0.00  0.00    +0.000 C 
ATOM      4  C   UNL     1       2.482   6.685  20.101  0.00  0.00    +0.000 C 
ATOM      5  C   UNL     1       2.918   5.220  20.196  0.00  0.00    +0.000 C 
ENDROOT
BRANCH   1   6
ATOM      6  C   UNL     1       3.763   4.457  17.830  0.00  0.00    +0.000 A 
ATOM      7  C   UNL     1       3.746   4.057  16.497  0.00  0.00    +0.000 A 
ATOM      8  C   UNL     1       5.061   4.150  16.009  0.00  0.00    +0.000 A 
ATOM      9 BR   UNL     1       5.516   3.811  14.224  0.00  0.00    +0.000 Br
ATOM     10  C   UNL     1       5.874   4.504  17.056  0.00  0.00    +0.000 A 
ATOM     11  C   UNL     1       7.273   4.739  17.194  0.00  0.00    +0.000 A 
ATOM     12  N   UNL     1       8.158   4.730  16.159  0.00  0.00    +0.000 N 
ATOM     13  N   UNL     1       7.736   4.977  18.383  0.00  0.00    +0.000 NA
ATOM     14  C   UNL     1       6.867   5.003  19.445  0.00  0.00    +0.000 A 
ATOM     15  N   UNL     1       5.580   4.848  19.398  0.00  0.00    +0.000 NA
ATOM     16  N   UNL     1       5.092   4.613  18.172  0.00  0.00    +0.000 N 
ATOM     17  H   UNL     1       7.903   4.194  15.338  0.00  0.00    +0.000 HD
ATOM     18  H   UNL     1       9.124   4.626  16.447  0.00  0.00    +0.000 HD
ENDBRANCH   1   6
BRANCH   1  20
ATOM     19  N   UNL     1       1.580   2.026  19.112  0.00  0.00    +0.000 NA
ATOM     20  C   UNL     1       2.042   3.191  18.974  0.00  0.00    +0.000 C 
ENDBRANCH   1  20
BRANCH   4  21
ATOM     21  O   UNL     1       1.460   7.013  21.046  0.00  0.00    +0.000 OA
ATOM     22  H   UNL     1       0.666   7.319  20.577  0.00  0.00    +0.000 HD
ENDBRANCH   4  21
BRANCH   5  23
ATOM     23  O   UNL     1       2.286   4.563  21.307  0.00  0.00    +0.000 OA
ATOM     24  H   UNL     1       1.975   3.684  21.034  0.00  0.00    +0.000 HD
ENDBRANCH   5  23
BRANCH   3  25
ATOM     25  C   UNL     1       3.027   7.611  17.820  0.00  0.00    +0.000 C 
BRANCH  25  26
ATOM     26  O   UNL     1       2.502   8.834  17.321  0.00  0.00    +0.000 OA
ATOM     27  H   UNL     1       3.072   9.116  16.586  0.00  0.00    +0.000 HD
ENDBRANCH  25  26
ENDBRANCH   3  25
TORSDOF 6
ENDMDL
MODEL 9
REMARK VINA RESULT:      -6.2      1.110      1.153
REMARK  Name = 
REMARK  6 active torsions:
REMARK  status: ('A' for Active; 'I' for Inactive)
REMARK    1  A    between atoms: C_2  and  C_3
REMARK    2  A    between atoms: C_3  and  C_4
REMARK    3  A    between atoms: C_16  and  C_17
REMARK    4  A    between atoms: C_17  and  O_18
REMARK    5  A    between atoms: C_19  and  O_20
REMARK    6  A    between atoms: C_21  and  O_22
REMARK                            x       y       z     vdW  Elec       q    Type
REMARK                         _______ _______ _______ _____ _____    ______ ____
ROOT
ATOM      1  C   UNL     1       3.518   3.097  18.827  0.00  0.00    +0.000 C 
ATOM      2  O   UNL     1       2.199   3.420  18.316  0.00  0.00    +0.000 OA
ATOM      3  C   UNL     1       1.718   4.596  19.018  0.00  0.00    +0.000 C 
ATOM      4  C   UNL     1       2.322   4.545  20.414  0.00  0.00    +0.000 C 
ATOM      5  C   UNL     1       3.519   3.596  20.299  0.00  0.00    +0.000 C 
ENDROOT
BRANCH   1   6
ATOM      6  C   UNL     1       4.487   3.783  17.865  0.00  0.00    +0.000 A 
ATOM      7  C   UNL     1       4.564   3.683  16.478  0.00  0.00    +0.000 A 
ATOM      8  C   UNL     1       5.580   4.553  16.047  0.00  0.00    +0.000 A 
ATOM      9 BR   UNL     1       5.983   4.839  14.241  0.00  0.00    +0.000 Br
ATOM     10  C   UNL     1       6.174   5.093  17.160  0.00  0.00    +0.000 A 
ATOM     11  C   UNL     1       7.241   6.012  17.372  0.00  0.00    +0.000 A 
ATOM     12  N   UNL     1       7.900   6.665  16.375  0.00  0.00    +0.000 N 
ATOM     13  N   UNL     1       7.613   6.243  18.594  0.00  0.00    +0.000 NA
ATOM     14  C   UNL     1       6.962   5.608  19.621  0.00  0.00    +0.000 A 
ATOM     15  N   UNL     1       5.954   4.797  19.517  0.00  0.00    +0.000 NA
ATOM     16  N   UNL     1       5.557   4.563  18.259  0.00  0.00    +0.000 N 
ATOM     17  H   UNL     1       7.895   6.235  15.458  0.00  0.00    +0.000 HD
ATOM     18  H   UNL     1       8.796   7.046  16.656  0.00  0.00    +0.000 HD
ENDBRANCH   1   6
BRANCH   1  20
ATOM     19  N   UNL     1       4.164   0.394  18.719  0.00  0.00    +0.000 NA
ATOM     20  C   UNL     1       3.872   1.619  18.768  0.00  0.00    +0.000 C 
ENDBRANCH   1  20
BRANCH   4  21
ATOM     21  O   UNL     1       1.362   4.099  21.374  0.00  0.00    +0.000 OA
ATOM     22  H   UNL     1       1.496   4.567  22.215  0.00  0.00    +0.000 HD
ENDBRANCH   4  21
BRANCH   5  23
ATOM     23  O   UNL     1       3.449   2.553  21.285  0.00  0.00    +0.000 OA
ATOM     24  H   UNL     1       3.328   2.945  22.167  0.00  0.00    +0.000 HD
ENDBRANCH   5  23
BRANCH   3  25
ATOM     25  C   UNL     1       2.090   5.915  18.310  0.00  0.00    +0.000 C 
BRANCH  25  26
ATOM     26  O   UNL     1       2.743   6.811  19.200  0.00  0.00    +0.000 OA
ATOM     27  H   UNL     1       3.301   7.398  18.662  0.00  0.00    +0.000 HD
ENDBRANCH  25  26
ENDBRANCH   3  25
TORSDOF 6
ENDMDL
