MODEL 1
REMARK VINA RESULT:      -7.8      0.000      0.000
REMARK  Name = 
REMARK  4 active torsions:
REMARK  status: ('A' for Active; 'I' for Inactive)
REMARK    1  A    between atoms: N_1  and  S_2
REMARK    2  A    between atoms: S_2  and  C_5
REMARK    3  A    between atoms: C_8  and  N_9
REMARK    4  A    between atoms: C_15  and  C_16
REMARK                            x       y       z     vdW  Elec       q    Type
REMARK                         _______ _______ _______ _____ _____    ______ ____
ROOT
ATOM      1  N   UNL     1       3.197   7.399  17.869  0.00  0.00    +0.000 N 
ATOM      2  N   UNL     1       4.385   7.864  17.388  0.00  0.00    +0.000 NA
ATOM      3  C   UNL     1       4.996   6.798  16.868  0.00  0.00    +0.000 A 
ATOM      4  C   UNL     1       4.258   5.626  17.056  0.00  0.00    +0.000 A 
ATOM      5  C   UNL     1       3.087   6.031  17.651  0.00  0.00    +0.000 A 
ATOM      6  C   UNL     1       1.963   5.142  18.035  0.00  0.00    +0.000 C 
ATOM      7  C   UNL     1       2.303   3.634  17.943  0.00  0.00    +0.000 C 
ATOM      8  C   UNL     1       3.512   3.205  17.077  0.00  0.00    +0.000 C 
ATOM      9  C   UNL     1       4.561   4.254  16.744  0.00  0.00    +0.000 C 
ATOM     10  O   UNL     1       5.613   3.940  16.191  0.00  0.00    +0.000 OA
ENDROOT
BRANCH   1  14
ATOM     11  C   UNL     1       0.685  10.209  19.792  0.00  0.00    +0.000 A 
ATOM     12  C   UNL     1       1.008   9.024  20.449  0.00  0.00    +0.000 A 
ATOM     13  C   UNL     1       1.809   8.077  19.811  0.00  0.00    +0.000 A 
ATOM     14  C   UNL     1       2.300   8.304  18.519  0.00  0.00    +0.000 A 
ATOM     15  C   UNL     1       1.918   9.479  17.850  0.00  0.00    +0.000 A 
ATOM     16  C   UNL     1       1.116  10.431  18.484  0.00  0.00    +0.000 A 
BRANCH  11  17
ATOM     17  S   UNL     1      -0.294  11.435  20.608  0.00  0.00    +0.000 S 
ATOM     18  O   UNL     1      -0.983  10.822  21.721  0.00  0.00    +0.000 OA
ATOM     19  O   UNL     1      -0.963  12.246  19.618  0.00  0.00    +0.000 OA
BRANCH  17  20
ATOM     20  N   UNL     1       0.905  12.407  21.276  0.00  0.00    +0.000 NA
ATOM     21  H   UNL     1       1.250  11.982  22.137  0.00  0.00    +0.000 HD
ATOM     22  H   UNL     1       0.566  13.360  21.387  0.00  0.00    +0.000 HD
ENDBRANCH  17  20
ENDBRANCH  11  17
ENDBRANCH   1  14
BRANCH   7  23
ATOM     23  C   UNL     1       2.284   3.053  19.352  0.00  0.00    +0.000 A 
ATOM     24  C   UNL     1       1.107   3.173  20.118  0.00  0.00    +0.000 A 
ATOM     25  C   UNL     1       1.073   2.762  21.449  0.00  0.00    +0.000 A 
ATOM     26  C   UNL     1       2.214   2.222  22.033  0.00  0.00    +0.000 A 
ATOM     27  C   UNL     1       3.385   2.093  21.287  0.00  0.00    +0.000 A 
ATOM     28  C   UNL     1       3.425   2.512  19.956  0.00  0.00    +0.000 A 
ENDBRANCH   7  23
TORSDOF 4
ENDMDL
MODEL 2
REMARK VINA RESULT:      -7.8      0.356      1.012
REMARK  Name = 
REMARK  4 active torsions:
REMARK  status: ('A' for Active; 'I' for Inactive)
REMARK    1  A    between atoms: N_1  and  S_2
REMARK    2  A    between atoms: S_2  and  C_5
REMARK    3  A    between atoms: C_8  and  N_9
REMARK    4  A    between atoms: C_15  and  C_16
REMARK                            x       y       z     vdW  Elec       q    Type
REMARK                         _______ _______ _______ _____ _____    ______ ____
ROOT
ATOM      1  N   UNL     1       3.301   7.369  17.777  0.00  0.00    +0.000 N 
ATOM      2  N   UNL     1       4.503   7.789  17.290  0.00  0.00    +0.000 NA
ATOM      3  C   UNL     1       5.080   6.697  16.786  0.00  0.00    +0.000 A 
ATOM      4  C   UNL     1       4.306   5.552  16.992  0.00  0.00    +0.000 A 
ATOM      5  C   UNL     1       3.148   6.002  17.580  0.00  0.00    +0.000 A 
ATOM      6  C   UNL     1       1.997   5.155  17.976  0.00  0.00    +0.000 C 
ATOM      7  C   UNL     1       2.289   3.635  17.907  0.00  0.00    +0.000 C 
ATOM      8  C   UNL     1       3.484   3.156  17.049  0.00  0.00    +0.000 C 
ATOM      9  C   UNL     1       4.566   4.166  16.700  0.00  0.00    +0.000 C 
ATOM     10  O   UNL     1       5.607   3.811  16.153  0.00  0.00    +0.000 OA
ENDROOT
BRANCH   1  14
ATOM     11  C   UNL     1       0.595  10.017  19.667  0.00  0.00    +0.000 A 
ATOM     12  C   UNL     1       1.058  10.316  18.388  0.00  0.00    +0.000 A 
ATOM     13  C   UNL     1       1.975   9.467  17.769  0.00  0.00    +0.000 A 
ATOM     14  C   UNL     1       2.433   8.311  18.413  0.00  0.00    +0.000 A 
ATOM     15  C   UNL     1       1.998   8.054  19.725  0.00  0.00    +0.000 A 
ATOM     16  C   UNL     1       1.081   8.902  20.350  0.00  0.00    +0.000 A 
BRANCH  11  17
ATOM     17  S   UNL     1      -0.600  11.064  20.444  0.00  0.00    +0.000 S 
ATOM     18  O   UNL     1      -0.768  10.646  21.817  0.00  0.00    +0.000 OA
ATOM     19  O   UNL     1      -1.709  11.270  19.542  0.00  0.00    +0.000 OA
BRANCH  17  20
ATOM     20  N   UNL     1       0.238  12.521  20.495  0.00  0.00    +0.000 NA
ATOM     21  H   UNL     1       0.502  12.797  19.549  0.00  0.00    +0.000 HD
ATOM     22  H   UNL     1       1.019  12.456  21.145  0.00  0.00    +0.000 HD
ENDBRANCH  17  20
ENDBRANCH  11  17
ENDBRANCH   1  14
BRANCH   7  23
ATOM     23  C   UNL     1       2.251   3.077  19.324  0.00  0.00    +0.000 A 
ATOM     24  C   UNL     1       1.070   3.222  20.078  0.00  0.00    +0.000 A 
ATOM     25  C   UNL     1       1.019   2.831  21.415  0.00  0.00    +0.000 A 
ATOM     26  C   UNL     1       2.150   2.288  22.017  0.00  0.00    +0.000 A 
ATOM     27  C   UNL     1       3.325   2.134  21.283  0.00  0.00    +0.000 A 
ATOM     28  C   UNL     1       3.381   2.532  19.946  0.00  0.00    +0.000 A 
ENDBRANCH   7  23
TORSDOF 4
ENDMDL
MODEL 3
REMARK VINA RESULT:      -7.7      2.192      4.258
REMARK  Name = 
REMARK  4 active torsions:
REMARK  status: ('A' for Active; 'I' for Inactive)
REMARK    1  A    between atoms: N_1  and  S_2
REMARK    2  A    between atoms: S_2  and  C_5
REMARK    3  A    between atoms: C_8  and  N_9
REMARK    4  A    between atoms: C_15  and  C_16
REMARK                            x       y       z     vdW  Elec       q    Type
REMARK                         _______ _______ _______ _____ _____    ______ ____
ROOT
ATOM      1  N   UNL     1       2.116   6.080  19.961  0.00  0.00    +0.000 N 
ATOM      2  N   UNL     1       1.091   5.295  20.400  0.00  0.00    +0.000 NA
ATOM      3  C   UNL     1       1.606   4.068  20.502  0.00  0.00    +0.000 A 
ATOM      4  C   UNL     1       2.935   4.019  20.075  0.00  0.00    +0.000 A 
ATOM      5  C   UNL     1       3.266   5.321  19.780  0.00  0.00    +0.000 A 
ATOM      6  C   UNL     1       4.590   5.786  19.301  0.00  0.00    +0.000 C 
ATOM      7  C   UNL     1       5.548   4.636  18.902  0.00  0.00    +0.000 C 
ATOM      8  C   UNL     1       5.253   3.216  19.441  0.00  0.00    +0.000 C 
ATOM      9  C   UNL     1       3.845   2.913  19.929  0.00  0.00    +0.000 C 
ATOM     10  O   UNL     1       3.514   1.768  20.226  0.00  0.00    +0.000 OA
ENDROOT
BRANCH   1  14
ATOM     11  C   UNL     1       1.239  10.164  19.294  0.00  0.00    +0.000 A 
ATOM     12  C   UNL     1       1.786   9.410  18.261  0.00  0.00    +0.000 A 
ATOM     13  C   UNL     1       2.109   8.070  18.479  0.00  0.00    +0.000 A 
ATOM     14  C   UNL     1       1.883   7.471  19.725  0.00  0.00    +0.000 A 
ATOM     15  C   UNL     1       1.382   8.262  20.772  0.00  0.00    +0.000 A 
ATOM     16  C   UNL     1       1.058   9.605  20.559  0.00  0.00    +0.000 A 
BRANCH  11  17
ATOM     17  S   UNL     1       0.786  11.851  19.015  0.00  0.00    +0.000 S 
ATOM     18  O   UNL     1       1.108  12.625  20.193  0.00  0.00    +0.000 OA
ATOM     19  O   UNL     1      -0.507  11.897  18.373  0.00  0.00    +0.000 OA
BRANCH  17  20
ATOM     20  N   UNL     1       1.907  12.292  17.842  0.00  0.00    +0.000 NA
ATOM     21  H   UNL     1       1.542  13.073  17.297  0.00  0.00    +0.000 HD
ATOM     22  H   UNL     1       2.173  11.483  17.286  0.00  0.00    +0.000 HD
ENDBRANCH  17  20
ENDBRANCH  11  17
ENDBRANCH   1  14
BRANCH   7  23
ATOM     23  C   UNL     1       5.789   4.715  17.400  0.00  0.00    +0.000 A 
ATOM     24  C   UNL     1       4.710   4.475  16.526  0.00  0.00    +0.000 A 
ATOM     25  C   UNL     1       4.901   4.423  15.147  0.00  0.00    +0.000 A 
ATOM     26  C   UNL     1       6.174   4.613  14.620  0.00  0.00    +0.000 A 
ATOM     27  C   UNL     1       7.252   4.856  15.470  0.00  0.00    +0.000 A 
ATOM     28  C   UNL     1       7.066   4.901  16.853  0.00  0.00    +0.000 A 
ENDBRANCH   7  23
TORSDOF 4
ENDMDL
MODEL 4
REMARK VINA RESULT:      -7.7      2.138      4.320
REMARK  Name = 
REMARK  4 active torsions:
REMARK  status: ('A' for Active; 'I' for Inactive)
REMARK    1  A    between atoms: N_1  and  S_2
REMARK    2  A    between atoms: S_2  and  C_5
REMARK    3  A    between atoms: C_8  and  N_9
REMARK    4  A    between atoms: C_15  and  C_16
REMARK                            x       y       z     vdW  Elec       q    Type
REMARK                         _______ _______ _______ _____ _____    ______ ____
ROOT
ATOM      1  N   UNL     1       2.075   6.210  20.033  0.00  0.00    +0.000 N 
ATOM      2  N   UNL     1       1.091   5.404  20.522  0.00  0.00    +0.000 NA
ATOM      3  C   UNL     1       1.634   4.187  20.590  0.00  0.00    +0.000 A 
ATOM      4  C   UNL     1       2.940   4.166  20.093  0.00  0.00    +0.000 A 
ATOM      5  C   UNL     1       3.228   5.475  19.788  0.00  0.00    +0.000 A 
ATOM      6  C   UNL     1       4.516   5.969  19.241  0.00  0.00    +0.000 C 
ATOM      7  C   UNL     1       5.474   4.839  18.787  0.00  0.00    +0.000 C 
ATOM      8  C   UNL     1       5.236   3.411  19.333  0.00  0.00    +0.000 C 
ATOM      9  C   UNL     1       3.862   3.079  19.894  0.00  0.00    +0.000 C 
ATOM     10  O   UNL     1       3.570   1.926  20.203  0.00  0.00    +0.000 OA
ENDROOT
BRANCH   1  14
ATOM     11  C   UNL     1       1.082  10.278  19.424  0.00  0.00    +0.000 A 
ATOM     12  C   UNL     1       1.647   9.552  18.378  0.00  0.00    +0.000 A 
ATOM     13  C   UNL     1       2.008   8.219  18.578  0.00  0.00    +0.000 A 
ATOM     14  C   UNL     1       1.803   7.597  19.816  0.00  0.00    +0.000 A 
ATOM     15  C   UNL     1       1.284   8.361  20.876  0.00  0.00    +0.000 A 
ATOM     16  C   UNL     1       0.922   9.696  20.681  0.00  0.00    +0.000 A 
BRANCH  11  17
ATOM     17  S   UNL     1       0.582  11.955  19.169  0.00  0.00    +0.000 S 
ATOM     18  O   UNL     1       1.672  12.684  18.562  0.00  0.00    +0.000 OA
ATOM     19  O   UNL     1      -0.123  12.424  20.339  0.00  0.00    +0.000 OA
BRANCH  17  20
ATOM     20  N   UNL     1      -0.580  11.761  17.969  0.00  0.00    +0.000 NA
ATOM     21  H   UNL     1      -0.852  12.675  17.605  0.00  0.00    +0.000 HD
ATOM     22  H   UNL     1      -1.356  11.202  18.315  0.00  0.00    +0.000 HD
ENDBRANCH  17  20
ENDBRANCH  11  17
ENDBRANCH   1  14
BRANCH   7  23
ATOM     23  C   UNL     1       5.634   4.929  17.274  0.00  0.00    +0.000 A 
ATOM     24  C   UNL     1       5.260   6.121  16.622  0.00  0.00    +0.000 A 
ATOM     25  C   UNL     1       5.280   6.216  15.232  0.00  0.00    +0.000 A 
ATOM     26  C   UNL     1       5.675   5.120  14.472  0.00  0.00    +0.000 A 
ATOM     27  C   UNL     1       6.052   3.935  15.102  0.00  0.00    +0.000 A 
ATOM     28  C   UNL     1       6.026   3.834  16.494  0.00  0.00    +0.000 A 
ENDBRANCH   7  23
TORSDOF 4
ENDMDL
MODEL 5
REMARK VINA RESULT:      -7.6      2.234      4.234
REMARK  Name = 
REMARK  4 active torsions:
REMARK  status: ('A' for Active; 'I' for Inactive)
REMARK    1  A    between atoms: N_1  and  S_2
REMARK    2  A    between atoms: S_2  and  C_5
REMARK    3  A    between atoms: C_8  and  N_9
REMARK    4  A    between atoms: C_15  and  C_16
REMARK                            x       y       z     vdW  Elec       q    Type
REMARK                         _______ _______ _______ _____ _____    ______ ____
ROOT
ATOM      1  N   UNL     1       2.001   6.297  19.978  0.00  0.00    +0.000 N 
ATOM      2  N   UNL     1       1.007   5.506  20.471  0.00  0.00    +0.000 NA
ATOM      3  C   UNL     1       1.543   4.289  20.575  0.00  0.00    +0.000 A 
ATOM      4  C   UNL     1       2.855   4.251  20.096  0.00  0.00    +0.000 A 
ATOM      5  C   UNL     1       3.154   5.551  19.765  0.00  0.00    +0.000 A 
ATOM      6  C   UNL     1       4.452   6.026  19.225  0.00  0.00    +0.000 C 
ATOM      7  C   UNL     1       5.410   4.883  18.810  0.00  0.00    +0.000 C 
ATOM      8  C   UNL     1       5.158   3.469  19.385  0.00  0.00    +0.000 C 
ATOM      9  C   UNL     1       3.775   3.155  19.935  0.00  0.00    +0.000 C 
ATOM     10  O   UNL     1       3.473   2.011  20.265  0.00  0.00    +0.000 OA
ENDROOT
BRANCH   1  14
ATOM     11  C   UNL     1       1.417  10.415  19.205  0.00  0.00    +0.000 A 
ATOM     12  C   UNL     1       1.072   9.903  20.452  0.00  0.00    +0.000 A 
ATOM     13  C   UNL     1       1.231   8.540  20.707  0.00  0.00    +0.000 A 
ATOM     14  C   UNL     1       1.739   7.680  19.726  0.00  0.00    +0.000 A 
ATOM     15  C   UNL     1       2.029   8.205  18.455  0.00  0.00    +0.000 A 
ATOM     16  C   UNL     1       1.871   9.568  18.194  0.00  0.00    +0.000 A 
BRANCH  11  17
ATOM     17  S   UNL     1       1.261  12.148  18.886  0.00  0.00    +0.000 S 
ATOM     18  O   UNL     1       1.863  12.883  19.975  0.00  0.00    +0.000 OA
ATOM     19  O   UNL     1      -0.068  12.422  18.391  0.00  0.00    +0.000 OA
BRANCH  17  20
ATOM     20  N   UNL     1       2.295  12.324  17.571  0.00  0.00    +0.000 NA
ATOM     21  H   UNL     1       3.250  12.462  17.903  0.00  0.00    +0.000 HD
ATOM     22  H   UNL     1       1.958  13.059  16.953  0.00  0.00    +0.000 HD
ENDBRANCH  17  20
ENDBRANCH  11  17
ENDBRANCH   1  14
BRANCH   7  23
ATOM     23  C   UNL     1       5.591   4.937  17.297  0.00  0.00    +0.000 A 
ATOM     24  C   UNL     1       5.252   6.123  16.617  0.00  0.00    +0.000 A 
ATOM     25  C   UNL     1       5.292   6.189  15.225  0.00  0.00    +0.000 A 
ATOM     26  C   UNL     1       5.672   5.069  14.493  0.00  0.00    +0.000 A 
ATOM     27  C   UNL     1       6.015   3.888  15.152  0.00  0.00    +0.000 A 
ATOM     28  C   UNL     1       5.969   3.817  16.546  0.00  0.00    +0.000 A 
ENDBRANCH   7  23
TORSDOF 4
ENDMDL
MODEL 6
REMARK VINA RESULT:      -7.6      1.993      4.295
REMARK  Name = 
REMARK  4 active torsions:
REMARK  status: ('A' for Active; 'I' for Inactive)
REMARK    1  A    between atoms: N_1  and  S_2
REMARK    2  A    between atoms: S_2  and  C_5
REMARK    3  A    between atoms: C_8  and  N_9
REMARK    4  A    between atoms: C_15  and  C_16
REMARK                            x       y       z     vdW  Elec       q    Type
REMARK                         _______ _______ _______ _____ _____    ______ ____
ROOT
ATOM      1  N   UNL     1       1.963   6.180  20.192  0.00  0.00    +0.000 N 
ATOM      2  N   UNL     1       0.977   5.381  20.690  0.00  0.00    +0.000 NA
ATOM      3  C   UNL     1       1.488   4.148  20.687  0.00  0.00    +0.000 A 
ATOM      4  C   UNL     1       2.770   4.112  20.134  0.00  0.00    +0.000 A 
ATOM      5  C   UNL     1       3.083   5.424  19.868  0.00  0.00    +0.000 A 
ATOM      6  C   UNL     1       4.360   5.904  19.286  0.00  0.00    +0.000 C 
ATOM      7  C   UNL     1       5.265   4.769  18.747  0.00  0.00    +0.000 C 
ATOM      8  C   UNL     1       5.010   3.327  19.247  0.00  0.00    +0.000 C 
ATOM      9  C   UNL     1       3.651   3.009  19.853  0.00  0.00    +0.000 C 
ATOM     10  O   UNL     1       3.339   1.853  20.128  0.00  0.00    +0.000 OA
ENDROOT
BRANCH   1  14
ATOM     11  C   UNL     1       1.064  10.294  19.789  0.00  0.00    +0.000 A 
ATOM     12  C   UNL     1       1.550   9.594  18.688  0.00  0.00    +0.000 A 
ATOM     13  C   UNL     1       1.880   8.245  18.818  0.00  0.00    +0.000 A 
ATOM     14  C   UNL     1       1.722   7.582  20.042  0.00  0.00    +0.000 A 
ATOM     15  C   UNL     1       1.283   8.318  21.155  0.00  0.00    +0.000 A 
ATOM     16  C   UNL     1       0.952   9.669  21.030  0.00  0.00    +0.000 A 
BRANCH  11  17
ATOM     17  S   UNL     1       0.601  11.994  19.624  0.00  0.00    +0.000 S 
ATOM     18  O   UNL     1      -0.840  12.088  19.600  0.00  0.00    +0.000 OA
ATOM     19  O   UNL     1       1.447  12.623  18.637  0.00  0.00    +0.000 OA
BRANCH  17  20
ATOM     20  N   UNL     1       1.089  12.602  21.114  0.00  0.00    +0.000 NA
ATOM     21  H   UNL     1       1.643  11.901  21.605  0.00  0.00    +0.000 HD
ATOM     22  H   UNL     1       0.284  12.941  21.637  0.00  0.00    +0.000 HD
ENDBRANCH  17  20
ENDBRANCH  11  17
ENDBRANCH   1  14
BRANCH   7  23
ATOM     23  C   UNL     1       5.364   4.915  17.233  0.00  0.00    +0.000 A 
ATOM     24  C   UNL     1       5.819   3.818  16.475  0.00  0.00    +0.000 A 
ATOM     25  C   UNL     1       6.035   3.935  15.103  0.00  0.00    +0.000 A 
ATOM     26  C   UNL     1       5.798   5.150  14.469  0.00  0.00    +0.000 A 
ATOM     27  C   UNL     1       5.343   6.243  15.204  0.00  0.00    +0.000 A 
ATOM     28  C   UNL     1       5.133   6.132  16.580  0.00  0.00    +0.000 A 
ENDBRANCH   7  23
TORSDOF 4
ENDMDL
MODEL 7
REMARK VINA RESULT:      -7.6      5.575      8.162
REMARK  Name = 
REMARK  4 active torsions:
REMARK  status: ('A' for Active; 'I' for Inactive)
REMARK    1  A    between atoms: N_1  and  S_2
REMARK    2  A    between atoms: S_2  and  C_5
REMARK    3  A    between atoms: C_8  and  N_9
REMARK    4  A    between atoms: C_15  and  C_16
REMARK                            x       y       z     vdW  Elec       q    Type
REMARK                         _______ _______ _______ _____ _____    ______ ____
ROOT
ATOM      1  N   UNL     1      -0.805  11.385  22.613  0.00  0.00    +0.000 N 
ATOM      2  N   UNL     1      -0.462  10.413  23.505  0.00  0.00    +0.000 NA
ATOM      3  C   UNL     1       0.240   9.522  22.803  0.00  0.00    +0.000 A 
ATOM      4  C   UNL     1       0.309   9.858  21.448  0.00  0.00    +0.000 A 
ATOM      5  C   UNL     1      -0.318  11.077  21.349  0.00  0.00    +0.000 A 
ATOM      6  C   UNL     1      -0.484  11.861  20.100  0.00  0.00    +0.000 C 
ATOM      7  C   UNL     1      -0.107  11.078  18.818  0.00  0.00    +0.000 C 
ATOM      8  C   UNL     1       0.789   9.825  18.961  0.00  0.00    +0.000 C 
ATOM      9  C   UNL     1       0.876   9.159  20.325  0.00  0.00    +0.000 C 
ATOM     10  O   UNL     1       1.449   8.080  20.465  0.00  0.00    +0.000 OA
ENDROOT
BRANCH   1  14
ATOM     11  C   UNL     1      -3.242  14.653  23.746  0.00  0.00    +0.000 A 
ATOM     12  C   UNL     1      -1.878  14.857  23.556  0.00  0.00    +0.000 A 
ATOM     13  C   UNL     1      -1.060  13.780  23.213  0.00  0.00    +0.000 A 
ATOM     14  C   UNL     1      -1.593  12.495  23.052  0.00  0.00    +0.000 A 
ATOM     15  C   UNL     1      -2.962  12.297  23.303  0.00  0.00    +0.000 A 
ATOM     16  C   UNL     1      -3.785  13.372  23.647  0.00  0.00    +0.000 A 
BRANCH  11  17
ATOM     17  S   UNL     1      -4.295  16.019  24.138  0.00  0.00    +0.000 S 
ATOM     18  O   UNL     1      -4.426  16.861  22.971  0.00  0.00    +0.000 OA
ATOM     19  O   UNL     1      -3.945  16.530  25.442  0.00  0.00    +0.000 OA
BRANCH  17  20
ATOM     20  N   UNL     1      -5.773  15.239  24.322  0.00  0.00    +0.000 NA
ATOM     21  H   UNL     1      -6.053  15.262  25.303  0.00  0.00    +0.000 HD
ATOM     22  H   UNL     1      -5.732  14.304  23.921  0.00  0.00    +0.000 HD
ENDBRANCH  17  20
ENDBRANCH  11  17
ENDBRANCH   1  14
BRANCH   7  23
ATOM     23  C   UNL     1      -1.372  10.873  17.994  0.00  0.00    +0.000 A 
ATOM     24  C   UNL     1      -2.494  11.683  18.262  0.00  0.00    +0.000 A 
ATOM     25  C   UNL     1      -3.709  11.462  17.617  0.00  0.00    +0.000 A 
ATOM     26  C   UNL     1      -3.820  10.428  16.693  0.00  0.00    +0.000 A 
ATOM     27  C   UNL     1      -2.719   9.620  16.414  0.00  0.00    +0.000 A 
ATOM     28  C   UNL     1      -1.502   9.833  17.065  0.00  0.00    +0.000 A 
ENDBRANCH   7  23
TORSDOF 4
ENDMDL
MODEL 8
REMARK VINA RESULT:      -7.5      5.603      8.207
REMARK  Name = 
REMARK  4 active torsions:
REMARK  status: ('A' for Active; 'I' for Inactive)
REMARK    1  A    between atoms: N_1  and  S_2
REMARK    2  A    between atoms: S_2  and  C_5
REMARK    3  A    between atoms: C_8  and  N_9
REMARK    4  A    between atoms: C_15  and  C_16
REMARK                            x       y       z     vdW  Elec       q    Type
REMARK                         _______ _______ _______ _____ _____    ______ ____
ROOT
ATOM      1  N   UNL     1      -0.826  11.385  22.601  0.00  0.00    +0.000 N 
ATOM      2  N   UNL     1      -0.417  10.427  23.481  0.00  0.00    +0.000 NA
ATOM      3  C   UNL     1       0.280   9.553  22.752  0.00  0.00    +0.000 A 
ATOM      4  C   UNL     1       0.282   9.886  21.395  0.00  0.00    +0.000 A 
ATOM      5  C   UNL     1      -0.384  11.086  21.318  0.00  0.00    +0.000 A 
ATOM      6  C   UNL     1      -0.626  11.859  20.076  0.00  0.00    +0.000 C 
ATOM      7  C   UNL     1      -0.279  11.083  18.781  0.00  0.00    +0.000 C 
ATOM      8  C   UNL     1       0.658   9.856  18.889  0.00  0.00    +0.000 C 
ATOM      9  C   UNL     1       0.822   9.199  20.251  0.00  0.00    +0.000 C 
ATOM     10  O   UNL     1       1.430   8.138  20.369  0.00  0.00    +0.000 OA
ENDROOT
BRANCH   1  14
ATOM     11  C   UNL     1      -3.303  14.589  23.824  0.00  0.00    +0.000 A 
ATOM     12  C   UNL     1      -1.947  14.821  23.615  0.00  0.00    +0.000 A 
ATOM     13  C   UNL     1      -1.115  13.764  23.242  0.00  0.00    +0.000 A 
ATOM     14  C   UNL     1      -1.627  12.472  23.069  0.00  0.00    +0.000 A 
ATOM     15  C   UNL     1      -2.988  12.246  23.339  0.00  0.00    +0.000 A 
ATOM     16  C   UNL     1      -3.825  13.300  23.713  0.00  0.00    +0.000 A 
BRANCH  11  17
ATOM     17  S   UNL     1      -4.375  15.929  24.254  0.00  0.00    +0.000 S 
ATOM     18  O   UNL     1      -3.845  16.599  25.420  0.00  0.00    +0.000 OA
ATOM     19  O   UNL     1      -5.747  15.491  24.154  0.00  0.00    +0.000 OA
BRANCH  17  20
ATOM     20  N   UNL     1      -4.120  16.969  22.957  0.00  0.00    +0.000 NA
ATOM     21  H   UNL     1      -4.954  17.536  22.804  0.00  0.00    +0.000 HD
ATOM     22  H   UNL     1      -3.814  16.446  22.140  0.00  0.00    +0.000 HD
ENDBRANCH  17  20
ENDBRANCH  11  17
ENDBRANCH   1  14
BRANCH   7  23
ATOM     23  C   UNL     1      -1.572  10.837  18.012  0.00  0.00    +0.000 A 
ATOM     24  C   UNL     1      -1.575   9.876  16.982  0.00  0.00    +0.000 A 
ATOM     25  C   UNL     1      -2.696   9.693  16.174  0.00  0.00    +0.000 A 
ATOM     26  C   UNL     1      -3.831  10.468  16.385  0.00  0.00    +0.000 A 
ATOM     27  C   UNL     1      -3.846  11.421  17.403  0.00  0.00    +0.000 A 
ATOM     28  C   UNL     1      -2.722  11.612  18.209  0.00  0.00    +0.000 A 
ENDBRANCH   7  23
TORSDOF 4
ENDMDL
MODEL 9
REMARK VINA RESULT:      -7.3      2.195      4.223
REMARK  Name = 
REMARK  4 active torsions:
REMARK  status: ('A' for Active; 'I' for Inactive)
REMARK    1  A    between atoms: N_1  and  S_2
REMARK    2  A    between atoms: S_2  and  C_5
REMARK    3  A    between atoms: C_8  and  N_9
REMARK    4  A    between atoms: C_15  and  C_16
REMARK                            x       y       z     vdW  Elec       q    Type
REMARK                         _______ _______ _______ _____ _____    ______ ____
ROOT
ATOM      1  N   UNL     1       2.114   6.028  19.971  0.00  0.00    +0.000 N 
ATOM      2  N   UNL     1       1.125   5.212  20.433  0.00  0.00    +0.000 NA
ATOM      3  C   UNL     1       1.684   4.005  20.541  0.00  0.00    +0.000 A 
ATOM      4  C   UNL     1       3.009   3.999  20.095  0.00  0.00    +0.000 A 
ATOM      5  C   UNL     1       3.288   5.308  19.781  0.00  0.00    +0.000 A 
ATOM      6  C   UNL     1       4.587   5.815  19.277  0.00  0.00    +0.000 C 
ATOM      7  C   UNL     1       5.580   4.696  18.877  0.00  0.00    +0.000 C 
ATOM      8  C   UNL     1       5.345   3.272  19.436  0.00  0.00    +0.000 C 
ATOM      9  C   UNL     1       3.955   2.925  19.948  0.00  0.00    +0.000 C 
ATOM     10  O   UNL     1       3.670   1.772  20.263  0.00  0.00    +0.000 OA
ENDROOT
BRANCH   1  14
ATOM     11  C   UNL     1       1.459  10.137  19.204  0.00  0.00    +0.000 A 
ATOM     12  C   UNL     1       1.158   9.624  20.463  0.00  0.00    +0.000 A 
ATOM     13  C   UNL     1       1.340   8.264  20.717  0.00  0.00    +0.000 A 
ATOM     14  C   UNL     1       1.829   7.407  19.723  0.00  0.00    +0.000 A 
ATOM     15  C   UNL     1       2.074   7.931  18.442  0.00  0.00    +0.000 A 
ATOM     16  C   UNL     1       1.893   9.292  18.182  0.00  0.00    +0.000 A 
BRANCH  11  17
ATOM     17  S   UNL     1       1.274  11.866  18.885  0.00  0.00    +0.000 S 
ATOM     18  O   UNL     1      -0.104  12.136  18.543  0.00  0.00    +0.000 OA
ATOM     19  O   UNL     1       2.386  12.325  18.086  0.00  0.00    +0.000 OA
BRANCH  17  20
ATOM     20  N   UNL     1       1.509  12.502  20.424  0.00  0.00    +0.000 NA
ATOM     21  H   UNL     1       1.006  11.936  21.108  0.00  0.00    +0.000 HD
ATOM     22  H   UNL     1       1.266  13.490  20.439  0.00  0.00    +0.000 HD
ENDBRANCH  17  20
ENDBRANCH  11  17
ENDBRANCH   1  14
BRANCH   7  23
ATOM     23  C   UNL     1       5.797   4.766  17.370  0.00  0.00    +0.000 A 
ATOM     24  C   UNL     1       4.731   4.420  16.515  0.00  0.00    +0.000 A 
ATOM     25  C   UNL     1       4.910   4.358  15.135  0.00  0.00    +0.000 A 
ATOM     26  C   UNL     1       6.157   4.643  14.588  0.00  0.00    +0.000 A 
ATOM     27  C   UNL     1       7.220   4.992  15.420  0.00  0.00    +0.000 A 
ATOM     28  C   UNL     1       7.047   5.047  16.804  0.00  0.00    +0.000 A 
ENDBRANCH   7  23
TORSDOF 4
ENDMDL
