MODEL 1
REMARK VINA RESULT:      -7.7      0.000      0.000
REMARK  Name = 
REMARK  10 active torsions:
REMARK  status: ('A' for Active; 'I' for Inactive)
REMARK    1  A    between atoms: C_1  and  O_2
REMARK    2  A    between atoms: O_2  and  C_3
REMARK    3  A    between atoms: C_7  and  C_8
REMARK    4  A    between atoms: C_8  and  N_9
REMARK    5  A    between atoms: C_10  and  C_12
REMARK    6  A    between atoms: C_16  and  S_17
REMARK    7  A    between atoms: S_17  and  N_20
REMARK    8  A    between atoms: C_29  and  C_30
REMARK    9  A    between atoms: C_32  and  O_33
REMARK   10  A    between atoms: O_33  and  C_34
REMARK                            x       y       z     vdW  Elec       q    Type
REMARK                         _______ _______ _______ _____ _____    ______ ____
ROOT
ATOM      1  C   UNL     1       1.946   9.180  18.936  0.00  0.00    +0.000 C 
ATOM      2  C   UNL     1       2.348   9.028  17.470  0.00  0.00    +0.000 C 
ATOM      3  C   UNL     1       2.843   7.619  17.558  0.00  0.00    +0.000 A 
ATOM      4  C   UNL     1       4.123   7.136  17.354  0.00  0.00    +0.000 A 
ATOM      5  C   UNL     1       4.414   5.849  17.835  0.00  0.00    +0.000 A 
ATOM      6  C   UNL     1       3.400   4.991  18.286  0.00  0.00    +0.000 A 
ATOM      7  C   UNL     1       2.146   5.525  18.556  0.00  0.00    +0.000 A 
ATOM      8  C   UNL     1       1.994   6.894  18.389  0.00  0.00    +0.000 A 
ATOM      9  N   UNL     1       1.473   7.814  19.372  0.00  0.00    +0.000 N 
ATOM     10  C   UNL     1       1.535   7.425  20.722  0.00  0.00    +0.000 C 
ATOM     11  C   UNL     1       1.463   8.507  21.770  0.00  0.00    +0.000 C 
ATOM     12  O   UNL     1       1.663   6.263  21.118  0.00  0.00    +0.000 OA
ENDROOT
BRANCH   1  14
ATOM     13  N   UNL     1      -0.321  10.123  19.150  0.00  0.00    +0.000 N 
ATOM     14  C   UNL     1       1.022  10.384  19.126  0.00  0.00    +0.000 C 
ATOM     15  O   UNL     1       1.488  11.519  19.230  0.00  0.00    +0.000 OA
ATOM     16  H   UNL     1      -0.661   9.200  18.906  0.00  0.00    +0.000 HD
BRANCH  13  17
ATOM     17  C   UNL     1      -1.303  11.155  19.408  0.00  0.00    +0.000 C 
BRANCH  17  22
ATOM     18  C   UNL     1      -4.626  11.521  17.565  0.00  0.00    +0.000 A 
ATOM     19  C   UNL     1      -4.224  11.198  16.254  0.00  0.00    +0.000 A 
ATOM     20  C   UNL     1      -2.914  10.823  15.987  0.00  0.00    +0.000 A 
ATOM     21  C   UNL     1      -1.985  10.798  17.020  0.00  0.00    +0.000 A 
ATOM     22  C   UNL     1      -2.344  11.209  18.318  0.00  0.00    +0.000 A 
ATOM     23  C   UNL     1      -3.667  11.618  18.582  0.00  0.00    +0.000 A 
BRANCH  18  25
ATOM     24  C   UNL     1      -6.457  12.935  17.208  0.00  0.00    +0.000 C 
ATOM     25  O   UNL     1      -5.948  11.749  17.825  0.00  0.00    +0.000 OA
ENDBRANCH  18  25
BRANCH  23  26
ATOM     26  O   UNL     1      -3.900  12.016  19.883  0.00  0.00    +0.000 OA
ATOM     27  C   UNL     1      -3.968  13.416  20.132  0.00  0.00    +0.000 C 
ENDBRANCH  23  26
ENDBRANCH  17  22
ENDBRANCH  13  17
ENDBRANCH   1  14
BRANCH   5  28
ATOM     28  S   UNL     1       6.102   5.427  18.217  0.00  0.00    +0.000 S 
ATOM     29  O   UNL     1       6.872   6.647  18.174  0.00  0.00    +0.000 OA
ATOM     30  O   UNL     1       6.095   4.598  19.401  0.00  0.00    +0.000 OA
BRANCH  28  31
ATOM     31  N   UNL     1       6.612   4.429  16.914  0.00  0.00    +0.000 NA
ATOM     32  C   UNL     1       7.342   5.077  15.789  0.00  0.00    +0.000 C 
ATOM     33  C   UNL     1       6.287   5.325  14.730  0.00  0.00    +0.000 C 
ATOM     34  C   UNL     1       5.387   4.111  14.837  0.00  0.00    +0.000 C 
ATOM     35  C   UNL     1       5.497   3.647  16.289  0.00  0.00    +0.000 C 
ENDBRANCH  28  31
ENDBRANCH   5  28
TORSDOF 7
ENDMDL
MODEL 2
REMARK VINA RESULT:      -7.5      2.786      4.159
REMARK  Name = 
REMARK  10 active torsions:
REMARK  status: ('A' for Active; 'I' for Inactive)
REMARK    1  A    between atoms: C_1  and  O_2
REMARK    2  A    between atoms: O_2  and  C_3
REMARK    3  A    between atoms: C_7  and  C_8
REMARK    4  A    between atoms: C_8  and  N_9
REMARK    5  A    between atoms: C_10  and  C_12
REMARK    6  A    between atoms: C_16  and  S_17
REMARK    7  A    between atoms: S_17  and  N_20
REMARK    8  A    between atoms: C_29  and  C_30
REMARK    9  A    between atoms: C_32  and  O_33
REMARK   10  A    between atoms: O_33  and  C_34
REMARK                            x       y       z     vdW  Elec       q    Type
REMARK                         _______ _______ _______ _____ _____    ______ ____
ROOT
ATOM      1  C   UNL     1      -0.042   9.460  21.033  0.00  0.00    +0.000 C 
ATOM      2  C   UNL     1       1.127   8.854  21.807  0.00  0.00    +0.000 C 
ATOM      3  C   UNL     1       1.742   8.110  20.665  0.00  0.00    +0.000 A 
ATOM      4  C   UNL     1       1.899   6.745  20.504  0.00  0.00    +0.000 A 
ATOM      5  C   UNL     1       2.175   6.272  19.210  0.00  0.00    +0.000 A 
ATOM      6  C   UNL     1       2.516   7.149  18.170  0.00  0.00    +0.000 A 
ATOM      7  C   UNL     1       2.272   8.508  18.335  0.00  0.00    +0.000 A 
ATOM      8  C   UNL     1       1.669   8.900  19.521  0.00  0.00    +0.000 A 
ATOM      9  N   UNL     1       0.480   9.710  19.639  0.00  0.00    +0.000 N 
ATOM     10  C   UNL     1      -0.393   9.745  18.536  0.00  0.00    +0.000 C 
ATOM     11  C   UNL     1      -1.822  10.158  18.783  0.00  0.00    +0.000 C 
ATOM     12  O   UNL     1      -0.083   9.445  17.380  0.00  0.00    +0.000 OA
ENDROOT
BRANCH   1  14
ATOM     13  N   UNL     1      -0.705  11.829  21.179  0.00  0.00    +0.000 N 
ATOM     14  C   UNL     1      -0.669  10.617  21.812  0.00  0.00    +0.000 C 
ATOM     15  O   UNL     1      -1.096  10.442  22.953  0.00  0.00    +0.000 OA
ATOM     16  H   UNL     1      -0.204  11.959  20.307  0.00  0.00    +0.000 HD
BRANCH  13  17
ATOM     17  C   UNL     1      -1.347  12.987  21.764  0.00  0.00    +0.000 C 
BRANCH  17  22
ATOM     18  C   UNL     1      -5.096  12.715  22.430  0.00  0.00    +0.000 A 
ATOM     19  C   UNL     1      -5.592  12.780  21.113  0.00  0.00    +0.000 A 
ATOM     20  C   UNL     1      -4.723  12.862  20.032  0.00  0.00    +0.000 A 
ATOM     21  C   UNL     1      -3.353  12.911  20.258  0.00  0.00    +0.000 A 
ATOM     22  C   UNL     1      -2.843  12.943  21.570  0.00  0.00    +0.000 A 
ATOM     23  C   UNL     1      -3.727  12.891  22.667  0.00  0.00    +0.000 A 
BRANCH  18  25
ATOM     24  C   UNL     1      -6.781  13.626  23.777  0.00  0.00    +0.000 C 
ATOM     25  O   UNL     1      -5.963  12.494  23.463  0.00  0.00    +0.000 OA
ENDBRANCH  18  25
BRANCH  23  26
ATOM     26  O   UNL     1      -3.117  12.947  23.904  0.00  0.00    +0.000 OA
ATOM     27  C   UNL     1      -3.202  14.177  24.615  0.00  0.00    +0.000 C 
ENDBRANCH  23  26
ENDBRANCH  17  22
ENDBRANCH  13  17
ENDBRANCH   1  14
BRANCH   5  28
ATOM     28  S   UNL     1       1.743   4.596  18.788  0.00  0.00    +0.000 S 
ATOM     29  O   UNL     1       0.919   4.082  19.855  0.00  0.00    +0.000 OA
ATOM     30  O   UNL     1       1.271   4.591  17.421  0.00  0.00    +0.000 OA
BRANCH  28  31
ATOM     31  N   UNL     1       3.231   3.740  18.804  0.00  0.00    +0.000 NA
ATOM     32  C   UNL     1       4.468   4.503  19.130  0.00  0.00    +0.000 C 
ATOM     33  C   UNL     1       5.079   4.848  17.786  0.00  0.00    +0.000 C 
ATOM     34  C   UNL     1       4.795   3.622  16.944  0.00  0.00    +0.000 C 
ATOM     35  C   UNL     1       3.517   3.015  17.523  0.00  0.00    +0.000 C 
ENDBRANCH  28  31
ENDBRANCH   5  28
TORSDOF 7
ENDMDL
MODEL 3
REMARK VINA RESULT:      -7.4      3.951      9.408
REMARK  Name = 
REMARK  10 active torsions:
REMARK  status: ('A' for Active; 'I' for Inactive)
REMARK    1  A    between atoms: C_1  and  O_2
REMARK    2  A    between atoms: O_2  and  C_3
REMARK    3  A    between atoms: C_7  and  C_8
REMARK    4  A    between atoms: C_8  and  N_9
REMARK    5  A    between atoms: C_10  and  C_12
REMARK    6  A    between atoms: C_16  and  S_17
REMARK    7  A    between atoms: S_17  and  N_20
REMARK    8  A    between atoms: C_29  and  C_30
REMARK    9  A    between atoms: C_32  and  O_33
REMARK   10  A    between atoms: O_33  and  C_34
REMARK                            x       y       z     vdW  Elec       q    Type
REMARK                         _______ _______ _______ _____ _____    ______ ____
ROOT
ATOM      1  C   UNL     1       0.167  10.056  21.042  0.00  0.00    +0.000 C 
ATOM      2  C   UNL     1      -0.114  10.756  22.371  0.00  0.00    +0.000 C 
ATOM      3  C   UNL     1      -0.560  12.065  21.802  0.00  0.00    +0.000 A 
ATOM      4  C   UNL     1       0.024  13.312  21.937  0.00  0.00    +0.000 A 
ATOM      5  C   UNL     1      -0.368  14.312  21.032  0.00  0.00    +0.000 A 
ATOM      6  C   UNL     1      -1.472  14.138  20.184  0.00  0.00    +0.000 A 
ATOM      7  C   UNL     1      -1.984  12.858  20.010  0.00  0.00    +0.000 A 
ATOM      8  C   UNL     1      -1.338  11.824  20.673  0.00  0.00    +0.000 A 
ATOM      9  N   UNL     1      -0.846  10.608  20.070  0.00  0.00    +0.000 N 
ATOM     10  C   UNL     1      -0.585  10.630  18.688  0.00  0.00    +0.000 C 
ATOM     11  C   UNL     1       0.353   9.586  18.133  0.00  0.00    +0.000 C 
ATOM     12  O   UNL     1      -1.051  11.450  17.892  0.00  0.00    +0.000 OA
ENDROOT
BRANCH   1  14
ATOM     13  N   UNL     1       1.457   7.962  20.884  0.00  0.00    +0.000 N 
ATOM     14  C   UNL     1       0.268   8.543  21.234  0.00  0.00    +0.000 C 
ATOM     15  O   UNL     1      -0.691   7.902  21.665  0.00  0.00    +0.000 OA
ATOM     16  H   UNL     1       2.158   8.503  20.392  0.00  0.00    +0.000 HD
BRANCH  13  17
ATOM     17  C   UNL     1       1.720   6.554  21.094  0.00  0.00    +0.000 C 
BRANCH  17  22
ATOM     18  C   UNL     1       2.359   3.946  18.381  0.00  0.00    +0.000 A 
ATOM     19  C   UNL     1       3.150   4.698  17.489  0.00  0.00    +0.000 A 
ATOM     20  C   UNL     1       3.506   6.007  17.789  0.00  0.00    +0.000 A 
ATOM     21  C   UNL     1       3.049   6.587  18.967  0.00  0.00    +0.000 A 
ATOM     22  C   UNL     1       2.180   5.884  19.823  0.00  0.00    +0.000 A 
ATOM     23  C   UNL     1       1.796   4.566  19.503  0.00  0.00    +0.000 A 
BRANCH  18  25
ATOM     24  C   UNL     1       3.308   1.808  18.294  0.00  0.00    +0.000 C 
ATOM     25  O   UNL     1       2.142   2.621  18.130  0.00  0.00    +0.000 OA
ENDBRANCH  18  25
BRANCH  23  26
ATOM     26  O   UNL     1       0.929   3.983  20.404  0.00  0.00    +0.000 OA
ATOM     27  C   UNL     1       1.484   3.061  21.336  0.00  0.00    +0.000 C 
ENDBRANCH  23  26
ENDBRANCH  17  22
ENDBRANCH  13  17
ENDBRANCH   1  14
BRANCH   5  28
ATOM     28  S   UNL     1       0.744  15.662  20.696  0.00  0.00    +0.000 S 
ATOM     29  O   UNL     1       0.074  16.880  21.084  0.00  0.00    +0.000 OA
ATOM     30  O   UNL     1       2.036  15.320  21.249  0.00  0.00    +0.000 OA
BRANCH  28  31
ATOM     31  N   UNL     1       0.921  15.673  18.987  0.00  0.00    +0.000 NA
ATOM     32  C   UNL     1       2.266  15.366  18.427  0.00  0.00    +0.000 C 
ATOM     33  C   UNL     1       2.893  16.719  18.154  0.00  0.00    +0.000 C 
ATOM     34  C   UNL     1       1.725  17.559  17.679  0.00  0.00    +0.000 C 
ATOM     35  C   UNL     1       0.490  16.960  18.350  0.00  0.00    +0.000 C 
ENDBRANCH  28  31
ENDBRANCH   5  28
TORSDOF 7
ENDMDL
MODEL 4
REMARK VINA RESULT:      -7.4      3.457     10.024
REMARK  Name = 
REMARK  10 active torsions:
REMARK  status: ('A' for Active; 'I' for Inactive)
REMARK    1  A    between atoms: C_1  and  O_2
REMARK    2  A    between atoms: O_2  and  C_3
REMARK    3  A    between atoms: C_7  and  C_8
REMARK    4  A    between atoms: C_8  and  N_9
REMARK    5  A    between atoms: C_10  and  C_12
REMARK    6  A    between atoms: C_16  and  S_17
REMARK    7  A    between atoms: S_17  and  N_20
REMARK    8  A    between atoms: C_29  and  C_30
REMARK    9  A    between atoms: C_32  and  O_33
REMARK   10  A    between atoms: O_33  and  C_34
REMARK                            x       y       z     vdW  Elec       q    Type
REMARK                         _______ _______ _______ _____ _____    ______ ____
ROOT
ATOM      1  C   UNL     1       1.752   8.104  20.370  0.00  0.00    +0.000 C 
ATOM      2  C   UNL     1       0.915   8.400  21.614  0.00  0.00    +0.000 C 
ATOM      3  C   UNL     1       0.360   9.711  21.157  0.00  0.00    +0.000 A 
ATOM      4  C   UNL     1       0.551  10.969  21.700  0.00  0.00    +0.000 A 
ATOM      5  C   UNL     1       0.223  12.076  20.900  0.00  0.00    +0.000 A 
ATOM      6  C   UNL     1      -0.490  11.926  19.701  0.00  0.00    +0.000 A 
ATOM      7  C   UNL     1      -0.595  10.658  19.142  0.00  0.00    +0.000 A 
ATOM      8  C   UNL     1       0.049   9.622  19.803  0.00  0.00    +0.000 A 
ATOM      9  N   UNL     1       0.983   8.693  19.213  0.00  0.00    +0.000 N 
ATOM     10  C   UNL     1       1.642   9.094  18.036  0.00  0.00    +0.000 C 
ATOM     11  C   UNL     1       2.929   8.395  17.678  0.00  0.00    +0.000 C 
ATOM     12  O   UNL     1       1.256   9.990  17.281  0.00  0.00    +0.000 OA
ENDROOT
BRANCH   1  14
ATOM     13  N   UNL     1       3.385   6.351  19.789  0.00  0.00    +0.000 N 
ATOM     14  C   UNL     1       2.156   6.630  20.323  0.00  0.00    +0.000 C 
ATOM     15  O   UNL     1       1.389   5.759  20.734  0.00  0.00    +0.000 OA
ATOM     16  H   UNL     1       3.911   7.082  19.325  0.00  0.00    +0.000 HD
BRANCH  13  17
ATOM     17  C   UNL     1       3.929   5.010  19.763  0.00  0.00    +0.000 C 
BRANCH  17  22
ATOM     18  C   UNL     1       6.061   4.148  16.716  0.00  0.00    +0.000 A 
ATOM     19  C   UNL     1       7.304   4.675  17.119  0.00  0.00    +0.000 A 
ATOM     20  C   UNL     1       7.454   5.254  18.373  0.00  0.00    +0.000 A 
ATOM     21  C   UNL     1       6.357   5.340  19.223  0.00  0.00    +0.000 A 
ATOM     22  C   UNL     1       5.086   4.905  18.801  0.00  0.00    +0.000 A 
ATOM     23  C   UNL     1       4.929   4.345  17.516  0.00  0.00    +0.000 A 
BRANCH  18  25
ATOM     24  C   UNL     1       6.272   4.257  14.386  0.00  0.00    +0.000 C 
ATOM     25  O   UNL     1       5.975   3.460  15.538  0.00  0.00    +0.000 OA
ENDBRANCH  18  25
BRANCH  23  26
ATOM     26  O   UNL     1       3.638   3.971  17.204  0.00  0.00    +0.000 OA
ATOM     27  C   UNL     1       3.249   2.642  17.533  0.00  0.00    +0.000 C 
ENDBRANCH  23  26
ENDBRANCH  17  22
ENDBRANCH  13  17
ENDBRANCH   1  14
BRANCH   5  28
ATOM     28  S   UNL     1       1.020  13.639  21.213  0.00  0.00    +0.000 S 
ATOM     29  O   UNL     1       2.405  13.364  21.509  0.00  0.00    +0.000 OA
ATOM     30  O   UNL     1       0.657  14.543  20.145  0.00  0.00    +0.000 OA
BRANCH  28  31
ATOM     31  N   UNL     1       0.277  14.234  22.643  0.00  0.00    +0.000 NA
ATOM     32  C   UNL     1      -1.084  13.731  22.978  0.00  0.00    +0.000 C 
ATOM     33  C   UNL     1      -2.032  14.794  22.459  0.00  0.00    +0.000 C 
ATOM     34  C   UNL     1      -1.294  16.089  22.732  0.00  0.00    +0.000 C 
ATOM     35  C   UNL     1       0.191  15.730  22.693  0.00  0.00    +0.000 C 
ENDBRANCH  28  31
ENDBRANCH   5  28
TORSDOF 7
ENDMDL
MODEL 5
REMARK VINA RESULT:      -7.4      3.820      9.136
REMARK  Name = 
REMARK  10 active torsions:
REMARK  status: ('A' for Active; 'I' for Inactive)
REMARK    1  A    between atoms: C_1  and  O_2
REMARK    2  A    between atoms: O_2  and  C_3
REMARK    3  A    between atoms: C_7  and  C_8
REMARK    4  A    between atoms: C_8  and  N_9
REMARK    5  A    between atoms: C_10  and  C_12
REMARK    6  A    between atoms: C_16  and  S_17
REMARK    7  A    between atoms: S_17  and  N_20
REMARK    8  A    between atoms: C_29  and  C_30
REMARK    9  A    between atoms: C_32  and  O_33
REMARK   10  A    between atoms: O_33  and  C_34
REMARK                            x       y       z     vdW  Elec       q    Type
REMARK                         _______ _______ _______ _____ _____    ______ ____
ROOT
ATOM      1  C   UNL     1       0.247  10.084  20.926  0.00  0.00    +0.000 C 
ATOM      2  C   UNL     1       0.118  10.836  22.249  0.00  0.00    +0.000 C 
ATOM      3  C   UNL     1      -0.336  12.141  21.679  0.00  0.00    +0.000 A 
ATOM      4  C   UNL     1       0.300  13.370  21.713  0.00  0.00    +0.000 A 
ATOM      5  C   UNL     1      -0.144  14.354  20.814  0.00  0.00    +0.000 A 
ATOM      6  C   UNL     1      -1.328  14.193  20.081  0.00  0.00    +0.000 A 
ATOM      7  C   UNL     1      -1.898  12.927  20.002  0.00  0.00    +0.000 A 
ATOM      8  C   UNL     1      -1.226  11.893  20.637  0.00  0.00    +0.000 A 
ATOM      9  N   UNL     1      -0.836  10.641  20.034  0.00  0.00    +0.000 N 
ATOM     10  C   UNL     1      -0.707  10.608  18.633  0.00  0.00    +0.000 C 
ATOM     11  C   UNL     1       0.138   9.513  18.031  0.00  0.00    +0.000 C 
ATOM     12  O   UNL     1      -1.219  11.419  17.857  0.00  0.00    +0.000 OA
ENDROOT
BRANCH   1  14
ATOM     13  N   UNL     1       1.475   7.951  20.789  0.00  0.00    +0.000 N 
ATOM     14  C   UNL     1       0.315   8.575  21.161  0.00  0.00    +0.000 C 
ATOM     15  O   UNL     1      -0.645   7.974  21.645  0.00  0.00    +0.000 OA
ATOM     16  H   UNL     1       2.172   8.458  20.255  0.00  0.00    +0.000 HD
BRANCH  13  17
ATOM     17  C   UNL     1       1.708   6.543  21.033  0.00  0.00    +0.000 C 
BRANCH  17  22
ATOM     18  C   UNL     1       2.397   3.862  18.405  0.00  0.00    +0.000 A 
ATOM     19  C   UNL     1       3.192   4.593  17.500  0.00  0.00    +0.000 A 
ATOM     20  C   UNL     1       3.535   5.912  17.766  0.00  0.00    +0.000 A 
ATOM     21  C   UNL     1       3.062   6.524  18.920  0.00  0.00    +0.000 A 
ATOM     22  C   UNL     1       2.188   5.840  19.788  0.00  0.00    +0.000 A 
ATOM     23  C   UNL     1       1.816   4.511  19.502  0.00  0.00    +0.000 A 
BRANCH  18  25
ATOM     24  C   UNL     1       3.377   1.738  18.321  0.00  0.00    +0.000 C 
ATOM     25  O   UNL     1       2.191   2.528  18.191  0.00  0.00    +0.000 OA
ENDBRANCH  18  25
BRANCH  23  26
ATOM     26  O   UNL     1       0.943   3.948  20.411  0.00  0.00    +0.000 OA
ATOM     27  C   UNL     1       1.486   3.021  21.345  0.00  0.00    +0.000 C 
ENDBRANCH  23  26
ENDBRANCH  17  22
ENDBRANCH  13  17
ENDBRANCH   1  14
BRANCH   5  28
ATOM     28  S   UNL     1       0.976  15.651  20.326  0.00  0.00    +0.000 S 
ATOM     29  O   UNL     1       0.411  16.294  19.164  0.00  0.00    +0.000 OA
ATOM     30  O   UNL     1       1.309  16.416  21.506  0.00  0.00    +0.000 OA
BRANCH  28  31
ATOM     31  N   UNL     1       2.409  14.836  19.840  0.00  0.00    +0.000 NA
ATOM     32  C   UNL     1       3.714  15.478  20.161  0.00  0.00    +0.000 C 
ATOM     33  C   UNL     1       4.112  16.207  18.893  0.00  0.00    +0.000 C 
ATOM     34  C   UNL     1       3.641  15.282  17.791  0.00  0.00    +0.000 C 
ATOM     35  C   UNL     1       2.450  14.523  18.375  0.00  0.00    +0.000 C 
ENDBRANCH  28  31
ENDBRANCH   5  28
TORSDOF 7
ENDMDL
MODEL 6
REMARK VINA RESULT:      -7.3      3.501     10.527
REMARK  Name = 
REMARK  10 active torsions:
REMARK  status: ('A' for Active; 'I' for Inactive)
REMARK    1  A    between atoms: C_1  and  O_2
REMARK    2  A    between atoms: O_2  and  C_3
REMARK    3  A    between atoms: C_7  and  C_8
REMARK    4  A    between atoms: C_8  and  N_9
REMARK    5  A    between atoms: C_10  and  C_12
REMARK    6  A    between atoms: C_16  and  S_17
REMARK    7  A    between atoms: S_17  and  N_20
REMARK    8  A    between atoms: C_29  and  C_30
REMARK    9  A    between atoms: C_32  and  O_33
REMARK   10  A    between atoms: O_33  and  C_34
REMARK                            x       y       z     vdW  Elec       q    Type
REMARK                         _______ _______ _______ _____ _____    ______ ____
ROOT
ATOM      1  C   UNL     1       0.134  10.722  19.595  0.00  0.00    +0.000 C 
ATOM      2  C   UNL     1      -0.349  11.951  18.828  0.00  0.00    +0.000 C 
ATOM      3  C   UNL     1      -1.125  12.575  19.943  0.00  0.00    +0.000 A 
ATOM      4  C   UNL     1      -2.485  12.812  20.025  0.00  0.00    +0.000 A 
ATOM      5  C   UNL     1      -3.022  13.076  21.297  0.00  0.00    +0.000 A 
ATOM      6  C   UNL     1      -2.194  13.328  22.401  0.00  0.00    +0.000 A 
ATOM      7  C   UNL     1      -0.845  13.003  22.311  0.00  0.00    +0.000 A 
ATOM      8  C   UNL     1      -0.415  12.415  21.131  0.00  0.00    +0.000 A 
ATOM      9  N   UNL     1       0.326  11.182  21.020  0.00  0.00    +0.000 N 
ATOM     10  C   UNL     1       0.237  10.274  22.091  0.00  0.00    +0.000 C 
ATOM     11  C   UNL     1       0.577   8.829  21.818  0.00  0.00    +0.000 C 
ATOM     12  O   UNL     1      -0.117  10.564  23.237  0.00  0.00    +0.000 OA
ENDROOT
BRANCH   1  14
ATOM     13  N   UNL     1       1.407   8.692  19.016  0.00  0.00    +0.000 N 
ATOM     14  C   UNL     1       1.298  10.048  18.868  0.00  0.00    +0.000 C 
ATOM     15  O   UNL     1       2.092  10.716  18.205  0.00  0.00    +0.000 OA
ATOM     16  H   UNL     1       0.826   8.210  19.693  0.00  0.00    +0.000 HD
BRANCH  13  17
ATOM     17  C   UNL     1       2.407   7.915  18.314  0.00  0.00    +0.000 C 
BRANCH  17  22
ATOM     18  C   UNL     1       3.441   4.288  18.904  0.00  0.00    +0.000 A 
ATOM     19  C   UNL     1       2.800   4.040  20.134  0.00  0.00    +0.000 A 
ATOM     20  C   UNL     1       2.011   5.015  20.731  0.00  0.00    +0.000 A 
ATOM     21  C   UNL     1       1.880   6.257  20.122  0.00  0.00    +0.000 A 
ATOM     22  C   UNL     1       2.589   6.556  18.943  0.00  0.00    +0.000 A 
ATOM     23  C   UNL     1       3.413   5.576  18.353  0.00  0.00    +0.000 A 
BRANCH  18  25
ATOM     24  C   UNL     1       3.263   2.135  18.002  0.00  0.00    +0.000 C 
ATOM     25  O   UNL     1       4.094   3.269  18.270  0.00  0.00    +0.000 OA
ENDBRANCH  18  25
BRANCH  23  26
ATOM     26  O   UNL     1       4.072   5.986  17.212  0.00  0.00    +0.000 OA
ATOM     27  C   UNL     1       5.459   6.283  17.333  0.00  0.00    +0.000 C 
ENDBRANCH  23  26
ENDBRANCH  17  22
ENDBRANCH  13  17
ENDBRANCH   1  14
BRANCH   5  28
ATOM     28  S   UNL     1      -4.744  12.737  21.599  0.00  0.00    +0.000 S 
ATOM     29  O   UNL     1      -5.228  11.947  20.492  0.00  0.00    +0.000 OA
ATOM     30  O   UNL     1      -4.871  12.263  22.958  0.00  0.00    +0.000 OA
BRANCH  28  31
ATOM     31  N   UNL     1      -5.514  14.272  21.533  0.00  0.00    +0.000 NA
ATOM     32  C   UNL     1      -6.825  14.420  22.223  0.00  0.00    +0.000 C 
ATOM     33  C   UNL     1      -7.863  14.240  21.132  0.00  0.00    +0.000 C 
ATOM     34  C   UNL     1      -7.228  14.906  19.928  0.00  0.00    +0.000 C 
ATOM     35  C   UNL     1      -5.720  14.777  20.137  0.00  0.00    +0.000 C 
ENDBRANCH  28  31
ENDBRANCH   5  28
TORSDOF 7
ENDMDL
MODEL 7
REMARK VINA RESULT:      -7.3      3.628     10.611
REMARK  Name = 
REMARK  10 active torsions:
REMARK  status: ('A' for Active; 'I' for Inactive)
REMARK    1  A    between atoms: C_1  and  O_2
REMARK    2  A    between atoms: O_2  and  C_3
REMARK    3  A    between atoms: C_7  and  C_8
REMARK    4  A    between atoms: C_8  and  N_9
REMARK    5  A    between atoms: C_10  and  C_12
REMARK    6  A    between atoms: C_16  and  S_17
REMARK    7  A    between atoms: S_17  and  N_20
REMARK    8  A    between atoms: C_29  and  C_30
REMARK    9  A    between atoms: C_32  and  O_33
REMARK   10  A    between atoms: O_33  and  C_34
REMARK                            x       y       z     vdW  Elec       q    Type
REMARK                         _______ _______ _______ _____ _____    ______ ____
ROOT
ATOM      1  C   UNL     1       0.042  10.832  19.790  0.00  0.00    +0.000 C 
ATOM      2  C   UNL     1      -0.448  12.105  19.101  0.00  0.00    +0.000 C 
ATOM      3  C   UNL     1      -1.197  12.670  20.266  0.00  0.00    +0.000 A 
ATOM      4  C   UNL     1      -2.553  12.911  20.390  0.00  0.00    +0.000 A 
ATOM      5  C   UNL     1      -3.061  13.108  21.685  0.00  0.00    +0.000 A 
ATOM      6  C   UNL     1      -2.209  13.293  22.783  0.00  0.00    +0.000 A 
ATOM      7  C   UNL     1      -0.864  12.967  22.647  0.00  0.00    +0.000 A 
ATOM      8  C   UNL     1      -0.463  12.442  21.427  0.00  0.00    +0.000 A 
ATOM      9  N   UNL     1       0.267  11.212  21.234  0.00  0.00    +0.000 N 
ATOM     10  C   UNL     1       0.194  10.247  22.255  0.00  0.00    +0.000 C 
ATOM     11  C   UNL     1       0.519   8.818  21.896  0.00  0.00    +0.000 C 
ATOM     12  O   UNL     1      -0.133  10.476  23.422  0.00  0.00    +0.000 OA
ENDROOT
BRANCH   1  14
ATOM     13  N   UNL     1       1.324   8.836  19.121  0.00  0.00    +0.000 N 
ATOM     14  C   UNL     1       1.186  10.192  19.002  0.00  0.00    +0.000 C 
ATOM     15  O   UNL     1       1.939  10.887  18.318  0.00  0.00    +0.000 OA
ATOM     16  H   UNL     1       0.782   8.332  19.813  0.00  0.00    +0.000 HD
BRANCH  13  17
ATOM     17  C   UNL     1       2.308   8.091  18.364  0.00  0.00    +0.000 C 
BRANCH  17  22
ATOM     18  C   UNL     1       3.547   4.524  18.923  0.00  0.00    +0.000 A 
ATOM     19  C   UNL     1       2.929   4.232  20.156  0.00  0.00    +0.000 A 
ATOM     20  C   UNL     1       2.091   5.158  20.764  0.00  0.00    +0.000 A 
ATOM     21  C   UNL     1       1.887   6.394  20.164  0.00  0.00    +0.000 A 
ATOM     22  C   UNL     1       2.570   6.740  18.982  0.00  0.00    +0.000 A 
ATOM     23  C   UNL     1       3.443   5.811  18.381  0.00  0.00    +0.000 A 
BRANCH  18  25
ATOM     24  C   UNL     1       3.424   2.595  17.601  0.00  0.00    +0.000 C 
ATOM     25  O   UNL     1       4.251   3.547  18.278  0.00  0.00    +0.000 OA
ENDBRANCH  18  25
BRANCH  23  26
ATOM     26  O   UNL     1       4.070   6.264  17.238  0.00  0.00    +0.000 OA
ATOM     27  C   UNL     1       5.459   6.562  17.333  0.00  0.00    +0.000 C 
ENDBRANCH  23  26
ENDBRANCH  17  22
ENDBRANCH  13  17
ENDBRANCH   1  14
BRANCH   5  28
ATOM     28  S   UNL     1      -4.779  12.763  22.004  0.00  0.00    +0.000 S 
ATOM     29  O   UNL     1      -5.272  11.970  20.903  0.00  0.00    +0.000 OA
ATOM     30  O   UNL     1      -4.890  12.288  23.365  0.00  0.00    +0.000 OA
BRANCH  28  31
ATOM     31  N   UNL     1      -5.555  14.294  21.947  0.00  0.00    +0.000 NA
ATOM     32  C   UNL     1      -4.703  15.508  22.075  0.00  0.00    +0.000 C 
ATOM     33  C   UNL     1      -4.799  15.901  23.537  0.00  0.00    +0.000 C 
ATOM     34  C   UNL     1      -6.238  15.586  23.891  0.00  0.00    +0.000 C 
ATOM     35  C   UNL     1      -6.650  14.447  22.959  0.00  0.00    +0.000 C 
ENDBRANCH  28  31
ENDBRANCH   5  28
TORSDOF 7
ENDMDL
MODEL 8
REMARK VINA RESULT:      -7.3      3.460      9.550
REMARK  Name = 
REMARK  10 active torsions:
REMARK  status: ('A' for Active; 'I' for Inactive)
REMARK    1  A    between atoms: C_1  and  O_2
REMARK    2  A    between atoms: O_2  and  C_3
REMARK    3  A    between atoms: C_7  and  C_8
REMARK    4  A    between atoms: C_8  and  N_9
REMARK    5  A    between atoms: C_10  and  C_12
REMARK    6  A    between atoms: C_16  and  S_17
REMARK    7  A    between atoms: S_17  and  N_20
REMARK    8  A    between atoms: C_29  and  C_30
REMARK    9  A    between atoms: C_32  and  O_33
REMARK   10  A    between atoms: O_33  and  C_34
REMARK                            x       y       z     vdW  Elec       q    Type
REMARK                         _______ _______ _______ _____ _____    ______ ____
ROOT
ATOM      1  C   UNL     1       1.743   8.130  20.360  0.00  0.00    +0.000 C 
ATOM      2  C   UNL     1       0.914   8.449  21.603  0.00  0.00    +0.000 C 
ATOM      3  C   UNL     1       0.354   9.750  21.125  0.00  0.00    +0.000 A 
ATOM      4  C   UNL     1       0.547  11.019  21.641  0.00  0.00    +0.000 A 
ATOM      5  C   UNL     1       0.212  12.110  20.822  0.00  0.00    +0.000 A 
ATOM      6  C   UNL     1      -0.509  11.935  19.632  0.00  0.00    +0.000 A 
ATOM      7  C   UNL     1      -0.618  10.656  19.099  0.00  0.00    +0.000 A 
ATOM      8  C   UNL     1       0.033   9.634  19.775  0.00  0.00    +0.000 A 
ATOM      9  N   UNL     1       0.964   8.695  19.197  0.00  0.00    +0.000 N 
ATOM     10  C   UNL     1       1.613   9.074  18.008  0.00  0.00    +0.000 C 
ATOM     11  C   UNL     1       2.899   8.369  17.654  0.00  0.00    +0.000 C 
ATOM     12  O   UNL     1       1.221   9.954  17.237  0.00  0.00    +0.000 OA
ENDROOT
BRANCH   1  14
ATOM     13  N   UNL     1       3.370   6.367  19.794  0.00  0.00    +0.000 N 
ATOM     14  C   UNL     1       2.148   6.656  20.339  0.00  0.00    +0.000 C 
ATOM     15  O   UNL     1       1.388   5.792  20.779  0.00  0.00    +0.000 OA
ATOM     16  H   UNL     1       3.888   7.088  19.307  0.00  0.00    +0.000 HD
BRANCH  13  17
ATOM     17  C   UNL     1       3.916   5.026  19.788  0.00  0.00    +0.000 C 
BRANCH  17  22
ATOM     18  C   UNL     1       6.047   4.170  16.739  0.00  0.00    +0.000 A 
ATOM     19  C   UNL     1       7.300   4.652  17.164  0.00  0.00    +0.000 A 
ATOM     20  C   UNL     1       7.457   5.199  18.431  0.00  0.00    +0.000 A 
ATOM     21  C   UNL     1       6.356   5.298  19.274  0.00  0.00    +0.000 A 
ATOM     22  C   UNL     1       5.077   4.909  18.833  0.00  0.00    +0.000 A 
ATOM     23  C   UNL     1       4.914   4.381  17.536  0.00  0.00    +0.000 A 
BRANCH  18  25
ATOM     24  C   UNL     1       6.443   4.263  14.434  0.00  0.00    +0.000 C 
ATOM     25  O   UNL     1       5.950   3.510  15.546  0.00  0.00    +0.000 OA
ENDBRANCH  18  25
BRANCH  23  26
ATOM     26  O   UNL     1       3.615   4.051  17.206  0.00  0.00    +0.000 OA
ATOM     27  C   UNL     1       3.187   2.725  17.501  0.00  0.00    +0.000 C 
ENDBRANCH  23  26
ENDBRANCH  17  22
ENDBRANCH  13  17
ENDBRANCH   1  14
BRANCH   5  28
ATOM     28  S   UNL     1       1.009  13.679  21.098  0.00  0.00    +0.000 S 
ATOM     29  O   UNL     1       0.121  14.476  21.910  0.00  0.00    +0.000 OA
ATOM     30  O   UNL     1       2.366  13.418  21.523  0.00  0.00    +0.000 OA
BRANCH  28  31
ATOM     31  N   UNL     1       1.104  14.405  19.544  0.00  0.00    +0.000 NA
ATOM     32  C   UNL     1       2.221  13.988  18.651  0.00  0.00    +0.000 C 
ATOM     33  C   UNL     1       3.284  15.053  18.833  0.00  0.00    +0.000 C 
ATOM     34  C   UNL     1       2.483  16.329  18.985  0.00  0.00    +0.000 C 
ATOM     35  C   UNL     1       1.144  15.903  19.586  0.00  0.00    +0.000 C 
ENDBRANCH  28  31
ENDBRANCH   5  28
TORSDOF 7
ENDMDL
MODEL 9
REMARK VINA RESULT:      -7.3      3.408      9.319
REMARK  Name = 
REMARK  10 active torsions:
REMARK  status: ('A' for Active; 'I' for Inactive)
REMARK    1  A    between atoms: C_1  and  O_2
REMARK    2  A    between atoms: O_2  and  C_3
REMARK    3  A    between atoms: C_7  and  C_8
REMARK    4  A    between atoms: C_8  and  N_9
REMARK    5  A    between atoms: C_10  and  C_12
REMARK    6  A    between atoms: C_16  and  S_17
REMARK    7  A    between atoms: S_17  and  N_20
REMARK    8  A    between atoms: C_29  and  C_30
REMARK    9  A    between atoms: C_32  and  O_33
REMARK   10  A    between atoms: O_33  and  C_34
REMARK                            x       y       z     vdW  Elec       q    Type
REMARK                         _______ _______ _______ _____ _____    ______ ____
ROOT
ATOM      1  C   UNL     1       1.436   8.286  20.537  0.00  0.00    +0.000 C 
ATOM      2  C   UNL     1       0.634   8.545  21.811  0.00  0.00    +0.000 C 
ATOM      3  C   UNL     1       0.005   9.831  21.377  0.00  0.00    +0.000 A 
ATOM      4  C   UNL     1       0.161  11.096  21.913  0.00  0.00    +0.000 A 
ATOM      5  C   UNL     1      -0.244  12.188  21.128  0.00  0.00    +0.000 A 
ATOM      6  C   UNL     1      -0.993  12.007  19.956  0.00  0.00    +0.000 A 
ATOM      7  C   UNL     1      -1.064  10.735  19.400  0.00  0.00    +0.000 A 
ATOM      8  C   UNL     1      -0.351   9.728  20.034  0.00  0.00    +0.000 A 
ATOM      9  N   UNL     1       0.600   8.840  19.409  0.00  0.00    +0.000 N 
ATOM     10  C   UNL     1       1.196   9.270  18.210  0.00  0.00    +0.000 C 
ATOM     11  C   UNL     1       2.499   8.627  17.803  0.00  0.00    +0.000 C 
ATOM     12  O   UNL     1       0.745  10.148  17.470  0.00  0.00    +0.000 OA
ENDROOT
BRANCH   1  14
ATOM     13  N   UNL     1       3.162   6.615  19.984  0.00  0.00    +0.000 N 
ATOM     14  C   UNL     1       1.902   6.831  20.473  0.00  0.00    +0.000 C 
ATOM     15  O   UNL     1       1.155   5.920  20.832  0.00  0.00    +0.000 OA
ATOM     16  H   UNL     1       3.676   7.377  19.559  0.00  0.00    +0.000 HD
BRANCH  13  17
ATOM     17  C   UNL     1       3.761   5.297  19.950  0.00  0.00    +0.000 C 
BRANCH  17  22
ATOM     18  C   UNL     1       5.448   4.686  16.580  0.00  0.00    +0.000 A 
ATOM     19  C   UNL     1       6.792   4.936  16.921  0.00  0.00    +0.000 A 
ATOM     20  C   UNL     1       7.144   5.249  18.228  0.00  0.00    +0.000 A 
ATOM     21  C   UNL     1       6.155   5.346  19.199  0.00  0.00    +0.000 A 
ATOM     22  C   UNL     1       4.797   5.193  18.858  0.00  0.00    +0.000 A 
ATOM     23  C   UNL     1       4.438   4.905  17.526  0.00  0.00    +0.000 A 
BRANCH  18  25
ATOM     24  C   UNL     1       6.298   3.919  14.538  0.00  0.00    +0.000 C 
ATOM     25  O   UNL     1       5.146   4.243  15.323  0.00  0.00    +0.000 OA
ENDBRANCH  18  25
BRANCH  23  26
ATOM     26  O   UNL     1       3.080   4.794  17.305  0.00  0.00    +0.000 OA
ATOM     27  C   UNL     1       2.525   3.483  17.313  0.00  0.00    +0.000 C 
ENDBRANCH  23  26
ENDBRANCH  17  22
ENDBRANCH  13  17
ENDBRANCH   1  14
BRANCH   5  28
ATOM     28  S   UNL     1       0.495  13.784  21.413  0.00  0.00    +0.000 S 
ATOM     29  O   UNL     1       0.003  14.676  20.391  0.00  0.00    +0.000 OA
ATOM     30  O   UNL     1       0.334  14.103  22.814  0.00  0.00    +0.000 OA
BRANCH  28  31
ATOM     31  N   UNL     1       2.176  13.545  21.147  0.00  0.00    +0.000 NA
ATOM     32  C   UNL     1       3.112  14.588  21.649  0.00  0.00    +0.000 C 
ATOM     33  C   UNL     1       3.399  15.467  20.447  0.00  0.00    +0.000 C 
ATOM     34  C   UNL     1       3.443  14.484  19.295  0.00  0.00    +0.000 C 
ATOM     35  C   UNL     1       2.527  13.331  19.706  0.00  0.00    +0.000 C 
ENDBRANCH  28  31
ENDBRANCH   5  28
TORSDOF 7
ENDMDL
