MODEL 1
REMARK VINA RESULT:      -7.1      0.000      0.000
REMARK  Name = 
REMARK  4 active torsions:
REMARK  status: ('A' for Active; 'I' for Inactive)
REMARK    1  A    between atoms: C_1  and  C_2
REMARK    2  A    between atoms: C_6  and  N_7
REMARK    3  A    between atoms: C_11  and  C_12
REMARK    4  A    between atoms: C_26  and  C_27
REMARK                            x       y       z     vdW  Elec       q    Type
REMARK                         _______ _______ _______ _____ _____    ______ ____
ROOT
ATOM      1  N   UNL     1      -1.148  12.836  22.677  0.00  0.00    +0.000 N 
ATOM      2  C   UNL     1      -1.613  11.514  23.095  0.00  0.00    +0.000 C 
ATOM      3  C   UNL     1      -0.801  10.461  22.332  0.00  0.00    +0.000 C 
ATOM      4  C   UNL     1      -0.105  11.279  21.310  0.00  0.00    +0.000 A 
ATOM      5  C   UNL     1       0.764  10.953  20.308  0.00  0.00    +0.000 A 
ATOM      6  N   UNL     1       1.324  11.938  19.569  0.00  0.00    +0.000 NA
ATOM      7  C   UNL     1       1.042  13.231  19.821  0.00  0.00    +0.000 A 
ATOM      8  N   UNL     1       1.815  14.186  19.185  0.00  0.00    +0.000 N 
ATOM      9  C   UNL     1       2.833  13.664  18.250  0.00  0.00    +0.000 C 
ATOM     10  C   UNL     1       3.969  14.684  18.116  0.00  0.00    +0.000 C 
ATOM     11  O   UNL     1       3.472  15.952  17.666  0.00  0.00    +0.000 OA
ATOM     12  C   UNL     1       2.509  16.465  18.600  0.00  0.00    +0.000 C 
ATOM     13  C   UNL     1       1.293  15.511  18.772  0.00  0.00    +0.000 C 
ATOM     14  C   UNL     1       0.301  16.171  19.722  0.00  0.00    +0.000 C 
ATOM     15  N   UNL     1       0.188  13.595  20.780  0.00  0.00    +0.000 NA
ATOM     16  C   UNL     1      -0.345  12.619  21.521  0.00  0.00    +0.000 A 
ENDROOT
BRANCH   5  17
ATOM     17  C   UNL     1       1.250   9.607  19.981  0.00  0.00    +0.000 A 
ATOM     18  C   UNL     1       1.332   8.545  20.856  0.00  0.00    +0.000 A 
ATOM     19  N   UNL     1       1.798   7.313  20.546  0.00  0.00    +0.000 NA
ATOM     20  C   UNL     1       2.171   7.119  19.280  0.00  0.00    +0.000 A 
ATOM     21  N   UNL     1       2.641   5.870  18.938  0.00  0.00    +0.000 N 
ATOM     22  N   UNL     1       2.153   8.057  18.336  0.00  0.00    +0.000 NA
ATOM     23  C   UNL     1       1.685   9.272  18.708  0.00  0.00    +0.000 A 
ATOM     24  H   UNL     1       3.005   5.407  19.758  0.00  0.00    +0.000 HD
ATOM     25  H   UNL     1       3.251   5.946  18.136  0.00  0.00    +0.000 HD
ENDBRANCH   5  17
BRANCH   1  31
ATOM     26  C   UNL     1      -5.725  12.642  24.244  0.00  0.00    +0.000 C 
ATOM     27  C   UNL     1      -4.967  12.905  22.969  0.00  0.00    +0.000 C 
ATOM     28  O   UNL     1      -5.285  12.381  21.904  0.00  0.00    +0.000 OA
ATOM     29  N   UNL     1      -3.967  13.842  23.087  0.00  0.00    +0.000 N 
ATOM     30  C   UNL     1      -3.085  14.280  22.012  0.00  0.00    +0.000 C 
ATOM     31  C   UNL     1      -1.892  14.037  22.956  0.00  0.00    +0.000 C 
ATOM     32  C   UNL     1      -2.912  13.869  24.102  0.00  0.00    +0.000 C 
ENDBRANCH   1  31
TORSDOF 2
ENDMDL
MODEL 2
REMARK VINA RESULT:      -7.0      1.100      1.166
REMARK  Name = 
REMARK  4 active torsions:
REMARK  status: ('A' for Active; 'I' for Inactive)
REMARK    1  A    between atoms: C_1  and  C_2
REMARK    2  A    between atoms: C_6  and  N_7
REMARK    3  A    between atoms: C_11  and  C_12
REMARK    4  A    between atoms: C_26  and  C_27
REMARK                            x       y       z     vdW  Elec       q    Type
REMARK                         _______ _______ _______ _____ _____    ______ ____
ROOT
ATOM      1  N   UNL     1      -2.186  13.359  22.906  0.00  0.00    +0.000 N 
ATOM      2  C   UNL     1      -2.515  12.035  23.431  0.00  0.00    +0.000 C 
ATOM      3  C   UNL     1      -1.551  11.022  22.804  0.00  0.00    +0.000 C 
ATOM      4  C   UNL     1      -0.906  11.820  21.734  0.00  0.00    +0.000 A 
ATOM      5  C   UNL     1       0.042  11.511  20.800  0.00  0.00    +0.000 A 
ATOM      6  N   UNL     1       0.519  12.485  19.991  0.00  0.00    +0.000 NA
ATOM      7  C   UNL     1       0.078  13.752  20.108  0.00  0.00    +0.000 A 
ATOM      8  N   UNL     1       0.766  14.731  19.412  0.00  0.00    +0.000 N 
ATOM      9  C   UNL     1       1.881  14.251  18.570  0.00  0.00    +0.000 C 
ATOM     10  C   UNL     1       2.896  15.384  18.380  0.00  0.00    +0.000 C 
ATOM     11  O   UNL     1       2.278  16.537  17.792  0.00  0.00    +0.000 OA
ATOM     12  C   UNL     1       1.218  17.013  18.637  0.00  0.00    +0.000 C 
ATOM     13  C   UNL     1       0.114  15.941  18.855  0.00  0.00    +0.000 C 
ATOM     14  C   UNL     1      -0.992  16.562  19.700  0.00  0.00    +0.000 C 
ATOM     15  N   UNL     1      -0.857  14.097  20.995  0.00  0.00    +0.000 NA
ATOM     16  C   UNL     1      -1.309  13.136  21.806  0.00  0.00    +0.000 A 
ENDROOT
BRANCH   5  17
ATOM     17  C   UNL     1       0.695  10.209  20.622  0.00  0.00    +0.000 A 
ATOM     18  C   UNL     1       0.991   9.311  21.626  0.00  0.00    +0.000 A 
ATOM     19  N   UNL     1       1.610   8.121  21.451  0.00  0.00    +0.000 NA
ATOM     20  C   UNL     1       1.918   7.789  20.196  0.00  0.00    +0.000 A 
ATOM     21  N   UNL     1       2.541   6.578  19.990  0.00  0.00    +0.000 N 
ATOM     22  N   UNL     1       1.699   8.564  19.135  0.00  0.00    +0.000 NA
ATOM     23  C   UNL     1       1.085   9.747  19.374  0.00  0.00    +0.000 A 
ATOM     24  H   UNL     1       3.025   6.297  20.831  0.00  0.00    +0.000 HD
ATOM     25  H   UNL     1       3.076   6.613  19.135  0.00  0.00    +0.000 HD
ENDBRANCH   5  17
BRANCH   1  31
ATOM     26  C   UNL     1      -6.830  12.746  24.130  0.00  0.00    +0.000 C 
ATOM     27  C   UNL     1      -6.001  13.013  22.901  0.00  0.00    +0.000 C 
ATOM     28  O   UNL     1      -6.171  12.391  21.855  0.00  0.00    +0.000 OA
ATOM     29  N   UNL     1      -5.122  14.063  23.027  0.00  0.00    +0.000 N 
ATOM     30  C   UNL     1      -4.206  14.530  21.994  0.00  0.00    +0.000 C 
ATOM     31  C   UNL     1      -3.077  14.484  23.041  0.00  0.00    +0.000 C 
ATOM     32  C   UNL     1      -4.164  14.273  24.115  0.00  0.00    +0.000 C 
ENDBRANCH   1  31
TORSDOF 2
ENDMDL
MODEL 3
REMARK VINA RESULT:      -6.9      5.788      8.297
REMARK  Name = 
REMARK  4 active torsions:
REMARK  status: ('A' for Active; 'I' for Inactive)
REMARK    1  A    between atoms: C_1  and  C_2
REMARK    2  A    between atoms: C_6  and  N_7
REMARK    3  A    between atoms: C_11  and  C_12
REMARK    4  A    between atoms: C_26  and  C_27
REMARK                            x       y       z     vdW  Elec       q    Type
REMARK                         _______ _______ _______ _____ _____    ______ ____
ROOT
ATOM      1  N   UNL     1       4.464  15.163  19.438  0.00  0.00    +0.000 N 
ATOM      2  C   UNL     1       4.736  15.450  18.030  0.00  0.00    +0.000 C 
ATOM      3  C   UNL     1       6.170  15.008  17.723  0.00  0.00    +0.000 C 
ATOM      4  C   UNL     1       6.717  14.746  19.075  0.00  0.00    +0.000 A 
ATOM      5  C   UNL     1       7.946  14.332  19.506  0.00  0.00    +0.000 A 
ATOM      6  N   UNL     1       8.138  14.085  20.823  0.00  0.00    +0.000 NA
ATOM      7  C   UNL     1       7.130  14.230  21.704  0.00  0.00    +0.000 A 
ATOM      8  N   UNL     1       7.331  13.747  22.985  0.00  0.00    +0.000 N 
ATOM      9  C   UNL     1       8.666  13.173  23.248  0.00  0.00    +0.000 C 
ATOM     10  C   UNL     1       8.565  12.161  24.395  0.00  0.00    +0.000 C 
ATOM     11  O   UNL     1       8.037  12.775  25.579  0.00  0.00    +0.000 OA
ATOM     12  C   UNL     1       6.725  13.299  25.319  0.00  0.00    +0.000 C 
ATOM     13  C   UNL     1       6.733  14.369  24.191  0.00  0.00    +0.000 C 
ATOM     14  C   UNL     1       5.316  14.911  24.039  0.00  0.00    +0.000 C 
ATOM     15  N   UNL     1       5.919  14.646  21.331  0.00  0.00    +0.000 NA
ATOM     16  C   UNL     1       5.728  14.868  20.026  0.00  0.00    +0.000 A 
ENDROOT
BRANCH   5  17
ATOM     17  C   UNL     1       9.107  14.028  18.663  0.00  0.00    +0.000 A 
ATOM     18  C   UNL     1      10.027  14.944  18.196  0.00  0.00    +0.000 A 
ATOM     19  N   UNL     1      11.084  14.653  17.404  0.00  0.00    +0.000 NA
ATOM     20  C   UNL     1      11.257  13.369  17.089  0.00  0.00    +0.000 A 
ATOM     21  N   UNL     1      12.332  13.046  16.290  0.00  0.00    +0.000 N 
ATOM     22  N   UNL     1      10.441  12.385  17.462  0.00  0.00    +0.000 NA
ATOM     23  C   UNL     1       9.396  12.737  18.245  0.00  0.00    +0.000 A 
ATOM     24  H   UNL     1      12.602  13.849  15.742  0.00  0.00    +0.000 HD
ATOM     25  H   UNL     1      12.141  12.187  15.796  0.00  0.00    +0.000 HD
ENDBRANCH   5  17
BRANCH   1  31
ATOM     26  C   UNL     1       0.601  12.464  20.549  0.00  0.00    +0.000 C 
ATOM     27  C   UNL     1       1.019  13.490  19.529  0.00  0.00    +0.000 C 
ATOM     28  O   UNL     1       0.810  13.336  18.327  0.00  0.00    +0.000 OA
ATOM     29  N   UNL     1       1.556  14.637  20.066  0.00  0.00    +0.000 N 
ATOM     30  C   UNL     1       2.039  15.784  19.306  0.00  0.00    +0.000 C 
ATOM     31  C   UNL     1       3.337  15.726  20.135  0.00  0.00    +0.000 C 
ATOM     32  C   UNL     1       2.628  14.716  21.061  0.00  0.00    +0.000 C 
ENDBRANCH   1  31
TORSDOF 2
ENDMDL
MODEL 4
REMARK VINA RESULT:      -6.9      1.683      6.117
REMARK  Name = 
REMARK  4 active torsions:
REMARK  status: ('A' for Active; 'I' for Inactive)
REMARK    1  A    between atoms: C_1  and  C_2
REMARK    2  A    between atoms: C_6  and  N_7
REMARK    3  A    between atoms: C_11  and  C_12
REMARK    4  A    between atoms: C_26  and  C_27
REMARK                            x       y       z     vdW  Elec       q    Type
REMARK                         _______ _______ _______ _____ _____    ______ ____
ROOT
ATOM      1  N   UNL     1       1.203  15.229  19.855  0.00  0.00    +0.000 N 
ATOM      2  C   UNL     1       2.289  14.602  19.104  0.00  0.00    +0.000 C 
ATOM      3  C   UNL     1       2.201  13.086  19.315  0.00  0.00    +0.000 C 
ATOM      4  C   UNL     1       1.214  12.977  20.414  0.00  0.00    +0.000 A 
ATOM      5  C   UNL     1       0.695  11.904  21.081  0.00  0.00    +0.000 A 
ATOM      6  N   UNL     1      -0.280  12.101  22.000  0.00  0.00    +0.000 NA
ATOM      7  C   UNL     1      -0.747  13.339  22.251  0.00  0.00    +0.000 A 
ATOM      8  N   UNL     1      -1.889  13.442  23.026  0.00  0.00    +0.000 N 
ATOM      9  C   UNL     1      -2.429  12.166  23.538  0.00  0.00    +0.000 C 
ATOM     10  C   UNL     1      -3.930  12.325  23.808  0.00  0.00    +0.000 C 
ATOM     11  O   UNL     1      -4.177  13.388  24.738  0.00  0.00    +0.000 OA
ATOM     12  C   UNL     1      -3.677  14.628  24.214  0.00  0.00    +0.000 C 
ATOM     13  C   UNL     1      -2.146  14.577  23.945  0.00  0.00    +0.000 C 
ATOM     14  C   UNL     1      -1.702  15.952  23.460  0.00  0.00    +0.000 C 
ATOM     15  N   UNL     1      -0.260  14.417  21.634  0.00  0.00    +0.000 NA
ATOM     16  C   UNL     1       0.686  14.215  20.712  0.00  0.00    +0.000 A 
ENDROOT
BRANCH   5  17
ATOM     17  C   UNL     1       1.022  10.493  20.847  0.00  0.00    +0.000 A 
ATOM     18  C   UNL     1       1.203   9.901  19.614  0.00  0.00    +0.000 A 
ATOM     19  N   UNL     1       1.488   8.594  19.411  0.00  0.00    +0.000 NA
ATOM     20  C   UNL     1       1.636   7.840  20.501  0.00  0.00    +0.000 A 
ATOM     21  N   UNL     1       1.935   6.508  20.320  0.00  0.00    +0.000 N 
ATOM     22  N   UNL     1       1.480   8.279  21.748  0.00  0.00    +0.000 NA
ATOM     23  C   UNL     1       1.187   9.593  21.889  0.00  0.00    +0.000 A 
ATOM     24  H   UNL     1       1.614   6.207  19.411  0.00  0.00    +0.000 HD
ATOM     25  H   UNL     1       1.624   5.979  21.122  0.00  0.00    +0.000 HD
ENDBRANCH   5  17
BRANCH   1  31
ATOM     26  C   UNL     1       0.495  18.457  16.317  0.00  0.00    +0.000 C 
ATOM     27  C   UNL     1       1.626  17.894  17.136  0.00  0.00    +0.000 C 
ATOM     28  O   UNL     1       2.682  17.529  16.624  0.00  0.00    +0.000 OA
ATOM     29  N   UNL     1       1.409  17.918  18.495  0.00  0.00    +0.000 N 
ATOM     30  C   UNL     1       2.337  17.437  19.510  0.00  0.00    +0.000 C 
ATOM     31  C   UNL     1       1.172  16.642  20.130  0.00  0.00    +0.000 C 
ATOM     32  C   UNL     1       0.223  17.423  19.198  0.00  0.00    +0.000 C 
ENDBRANCH   1  31
TORSDOF 2
ENDMDL
MODEL 5
REMARK VINA RESULT:      -6.8      1.803      6.154
REMARK  Name = 
REMARK  4 active torsions:
REMARK  status: ('A' for Active; 'I' for Inactive)
REMARK    1  A    between atoms: C_1  and  C_2
REMARK    2  A    between atoms: C_6  and  N_7
REMARK    3  A    between atoms: C_11  and  C_12
REMARK    4  A    between atoms: C_26  and  C_27
REMARK                            x       y       z     vdW  Elec       q    Type
REMARK                         _______ _______ _______ _____ _____    ______ ____
ROOT
ATOM      1  N   UNL     1       1.030  15.545  19.960  0.00  0.00    +0.000 N 
ATOM      2  C   UNL     1       2.320  14.926  19.660  0.00  0.00    +0.000 C 
ATOM      3  C   UNL     1       2.183  13.414  19.867  0.00  0.00    +0.000 C 
ATOM      4  C   UNL     1       0.872  13.306  20.549  0.00  0.00    +0.000 A 
ATOM      5  C   UNL     1       0.164  12.236  21.018  0.00  0.00    +0.000 A 
ATOM      6  N   UNL     1      -1.075  12.431  21.527  0.00  0.00    +0.000 NA
ATOM      7  C   UNL     1      -1.617  13.664  21.562  0.00  0.00    +0.000 A 
ATOM      8  N   UNL     1      -2.960  13.758  21.881  0.00  0.00    +0.000 N 
ATOM      9  C   UNL     1      -3.631  12.481  22.203  0.00  0.00    +0.000 C 
ATOM     10  C   UNL     1      -5.131  12.613  21.921  0.00  0.00    +0.000 C 
ATOM     11  O   UNL     1      -5.706  13.689  22.674  0.00  0.00    +0.000 OA
ATOM     12  C   UNL     1      -5.068  14.929  22.327  0.00  0.00    +0.000 C 
ATOM     13  C   UNL     1      -3.541  14.906  22.618  0.00  0.00    +0.000 C 
ATOM     14  C   UNL     1      -2.972  16.280  22.284  0.00  0.00    +0.000 C 
ATOM     15  N   UNL     1      -0.958  14.739  21.129  0.00  0.00    +0.000 NA
ATOM     16  C   UNL     1       0.257  14.538  20.607  0.00  0.00    +0.000 A 
ENDROOT
BRANCH   5  17
ATOM     17  C   UNL     1       0.571  10.828  20.954  0.00  0.00    +0.000 A 
ATOM     18  C   UNL     1       0.871  10.127  19.803  0.00  0.00    +0.000 A 
ATOM     19  N   UNL     1       1.229   8.824  19.755  0.00  0.00    +0.000 NA
ATOM     20  C   UNL     1       1.329   8.190  20.925  0.00  0.00    +0.000 A 
ATOM     21  N   UNL     1       1.700   6.864  20.903  0.00  0.00    +0.000 N 
ATOM     22  N   UNL     1       1.060   8.741  22.107  0.00  0.00    +0.000 NA
ATOM     23  C   UNL     1       0.699  10.045  22.091  0.00  0.00    +0.000 A 
ATOM     24  H   UNL     1       1.462   6.458  20.009  0.00  0.00    +0.000 HD
ATOM     25  H   UNL     1       1.354   6.401  21.731  0.00  0.00    +0.000 HD
ENDBRANCH   5  17
BRANCH   1  31
ATOM     26  C   UNL     1       0.265  18.558  16.249  0.00  0.00    +0.000 C 
ATOM     27  C   UNL     1       1.393  18.115  17.143  0.00  0.00    +0.000 C 
ATOM     28  O   UNL     1       2.496  17.807  16.696  0.00  0.00    +0.000 OA
ATOM     29  N   UNL     1       1.109  18.182  18.488  0.00  0.00    +0.000 N 
ATOM     30  C   UNL     1       2.020  17.813  19.565  0.00  0.00    +0.000 C 
ATOM     31  C   UNL     1       0.886  16.963  20.168  0.00  0.00    +0.000 C 
ATOM     32  C   UNL     1      -0.071  17.631  19.159  0.00  0.00    +0.000 C 
ENDBRANCH   1  31
TORSDOF 2
ENDMDL
MODEL 6
REMARK VINA RESULT:      -6.8      6.159      8.582
REMARK  Name = 
REMARK  4 active torsions:
REMARK  status: ('A' for Active; 'I' for Inactive)
REMARK    1  A    between atoms: C_1  and  C_2
REMARK    2  A    between atoms: C_6  and  N_7
REMARK    3  A    between atoms: C_11  and  C_12
REMARK    4  A    between atoms: C_26  and  C_27
REMARK                            x       y       z     vdW  Elec       q    Type
REMARK                         _______ _______ _______ _____ _____    ______ ____
ROOT
ATOM      1  N   UNL     1       4.520  15.871  19.977  0.00  0.00    +0.000 N 
ATOM      2  C   UNL     1       4.792  16.331  18.617  0.00  0.00    +0.000 C 
ATOM      3  C   UNL     1       6.137  15.744  18.175  0.00  0.00    +0.000 C 
ATOM      4  C   UNL     1       6.677  15.201  19.444  0.00  0.00    +0.000 A 
ATOM      5  C   UNL     1       7.843  14.557  19.747  0.00  0.00    +0.000 A 
ATOM      6  N   UNL     1       8.034  14.084  21.000  0.00  0.00    +0.000 NA
ATOM      7  C   UNL     1       7.083  14.233  21.943  0.00  0.00    +0.000 A 
ATOM      8  N   UNL     1       7.246  13.533  23.126  0.00  0.00    +0.000 N 
ATOM      9  C   UNL     1       8.490  12.743  23.233  0.00  0.00    +0.000 C 
ATOM     10  C   UNL     1       8.273  11.591  24.220  0.00  0.00    +0.000 C 
ATOM     11  O   UNL     1       7.874  12.082  25.507  0.00  0.00    +0.000 OA
ATOM     12  C   UNL     1       6.647  12.820  25.394  0.00  0.00    +0.000 C 
ATOM     13  C   UNL     1       6.780  14.040  24.439  0.00  0.00    +0.000 C 
ATOM     14  C   UNL     1       5.455  14.793  24.441  0.00  0.00    +0.000 C 
ATOM     15  N   UNL     1       5.936  14.867  21.697  0.00  0.00    +0.000 NA
ATOM     16  C   UNL     1       5.743  15.313  20.451  0.00  0.00    +0.000 A 
ENDROOT
BRANCH   5  17
ATOM     17  C   UNL     1       8.923  14.226  18.810  0.00  0.00    +0.000 A 
ATOM     18  C   UNL     1       9.812  15.123  18.256  0.00  0.00    +0.000 A 
ATOM     19  N   UNL     1      10.793  14.808  17.380  0.00  0.00    +0.000 NA
ATOM     20  C   UNL     1      10.919  13.518  17.065  0.00  0.00    +0.000 A 
ATOM     21  N   UNL     1      11.916  13.170  16.181  0.00  0.00    +0.000 N 
ATOM     22  N   UNL     1      10.124  12.550  17.517  0.00  0.00    +0.000 NA
ATOM     23  C   UNL     1       9.155  12.927  18.384  0.00  0.00    +0.000 A 
ATOM     24  H   UNL     1      12.150  13.964  15.602  0.00  0.00    +0.000 HD
ATOM     25  H   UNL     1      11.670  12.310  15.714  0.00  0.00    +0.000 HD
ENDBRANCH   5  17
BRANCH   1  31
ATOM     26  C   UNL     1       0.016  16.550  18.338  0.00  0.00    +0.000 C 
ATOM     27  C   UNL     1       1.275  17.342  18.572  0.00  0.00    +0.000 C 
ATOM     28  O   UNL     1       1.724  18.115  17.727  0.00  0.00    +0.000 OA
ATOM     29  N   UNL     1       1.810  17.198  19.831  0.00  0.00    +0.000 N 
ATOM     30  C   UNL     1       3.020  17.850  20.317  0.00  0.00    +0.000 C 
ATOM     31  C   UNL     1       3.508  16.473  20.807  0.00  0.00    +0.000 C 
ATOM     32  C   UNL     1       2.090  15.937  20.521  0.00  0.00    +0.000 C 
ENDBRANCH   1  31
TORSDOF 2
ENDMDL
MODEL 7
REMARK VINA RESULT:      -6.8      6.470      9.099
REMARK  Name = 
REMARK  4 active torsions:
REMARK  status: ('A' for Active; 'I' for Inactive)
REMARK    1  A    between atoms: C_1  and  C_2
REMARK    2  A    between atoms: C_6  and  N_7
REMARK    3  A    between atoms: C_11  and  C_12
REMARK    4  A    between atoms: C_26  and  C_27
REMARK                            x       y       z     vdW  Elec       q    Type
REMARK                         _______ _______ _______ _____ _____    ______ ____
ROOT
ATOM      1  N   UNL     1       6.166  15.818  20.122  0.00  0.00    +0.000 N 
ATOM      2  C   UNL     1       5.263  16.141  21.225  0.00  0.00    +0.000 C 
ATOM      3  C   UNL     1       5.793  15.458  22.490  0.00  0.00    +0.000 C 
ATOM      4  C   UNL     1       6.832  14.551  21.947  0.00  0.00    +0.000 A 
ATOM      5  C   UNL     1       7.674  13.656  22.543  0.00  0.00    +0.000 A 
ATOM      6  N   UNL     1       8.602  13.017  21.794  0.00  0.00    +0.000 NA
ATOM      7  C   UNL     1       8.709  13.265  20.474  0.00  0.00    +0.000 A 
ATOM      8  N   UNL     1       9.816  12.754  19.819  0.00  0.00    +0.000 N 
ATOM      9  C   UNL     1      10.728  11.939  20.648  0.00  0.00    +0.000 C 
ATOM     10  C   UNL     1      12.133  11.972  20.037  0.00  0.00    +0.000 C 
ATOM     11  O   UNL     1      12.119  11.497  18.684  0.00  0.00    +0.000 OA
ATOM     12  C   UNL     1      11.255  12.317  17.882  0.00  0.00    +0.000 C 
ATOM     13  C   UNL     1       9.790  12.314  18.403  0.00  0.00    +0.000 C 
ATOM     14  C   UNL     1       8.944  13.151  17.452  0.00  0.00    +0.000 C 
ATOM     15  N   UNL     1       7.900  14.120  19.847  0.00  0.00    +0.000 NA
ATOM     16  C   UNL     1       6.999  14.765  20.596  0.00  0.00    +0.000 A 
ENDROOT
BRANCH   5  17
ATOM     17  C   UNL     1       7.752  13.356  23.978  0.00  0.00    +0.000 A 
ATOM     18  C   UNL     1       7.183  12.268  24.606  0.00  0.00    +0.000 A 
ATOM     19  N   UNL     1       7.248  12.012  25.933  0.00  0.00    +0.000 NA
ATOM     20  C   UNL     1       7.951  12.871  26.672  0.00  0.00    +0.000 A 
ATOM     21  N   UNL     1       8.039  12.628  28.025  0.00  0.00    +0.000 N 
ATOM     22  N   UNL     1       8.542  13.966  26.198  0.00  0.00    +0.000 NA
ATOM     23  C   UNL     1       8.435  14.174  24.864  0.00  0.00    +0.000 A 
ATOM     24  H   UNL     1       7.250  12.072  28.323  0.00  0.00    +0.000 HD
ATOM     25  H   UNL     1       8.210  13.494  28.515  0.00  0.00    +0.000 HD
ENDBRANCH   5  17
BRANCH   1  31
ATOM     26  C   UNL     1       1.578  15.396  18.633  0.00  0.00    +0.000 C 
ATOM     27  C   UNL     1       2.860  14.606  18.614  0.00  0.00    +0.000 C 
ATOM     28  O   UNL     1       2.895  13.415  18.919  0.00  0.00    +0.000 OA
ATOM     29  N   UNL     1       3.947  15.300  18.137  0.00  0.00    +0.000 N 
ATOM     30  C   UNL     1       5.302  14.774  18.013  0.00  0.00    +0.000 C 
ATOM     31  C   UNL     1       5.806  16.034  18.744  0.00  0.00    +0.000 C 
ATOM     32  C   UNL     1       4.393  16.627  18.570  0.00  0.00    +0.000 C 
ENDBRANCH   1  31
TORSDOF 2
ENDMDL
MODEL 8
REMARK VINA RESULT:      -6.8      1.426      1.985
REMARK  Name = 
REMARK  4 active torsions:
REMARK  status: ('A' for Active; 'I' for Inactive)
REMARK    1  A    between atoms: C_1  and  C_2
REMARK    2  A    between atoms: C_6  and  N_7
REMARK    3  A    between atoms: C_11  and  C_12
REMARK    4  A    between atoms: C_26  and  C_27
REMARK                            x       y       z     vdW  Elec       q    Type
REMARK                         _______ _______ _______ _____ _____    ______ ____
ROOT
ATOM      1  N   UNL     1      -2.678  13.930  22.887  0.00  0.00    +0.000 N 
ATOM      2  C   UNL     1      -3.031  12.630  23.455  0.00  0.00    +0.000 C 
ATOM      3  C   UNL     1      -2.046  11.590  22.910  0.00  0.00    +0.000 C 
ATOM      4  C   UNL     1      -1.355  12.341  21.835  0.00  0.00    +0.000 A 
ATOM      5  C   UNL     1      -0.371  11.992  20.955  0.00  0.00    +0.000 A 
ATOM      6  N   UNL     1       0.142  12.930  20.125  0.00  0.00    +0.000 NA
ATOM      7  C   UNL     1      -0.301  14.202  20.170  0.00  0.00    +0.000 A 
ATOM      8  N   UNL     1       0.418  15.149  19.462  0.00  0.00    +0.000 N 
ATOM      9  C   UNL     1       1.565  14.633  18.687  0.00  0.00    +0.000 C 
ATOM     10  C   UNL     1       2.590  15.756  18.491  0.00  0.00    +0.000 C 
ATOM     11  O   UNL     1       2.000  16.883  17.830  0.00  0.00    +0.000 OA
ATOM     12  C   UNL     1       0.907  17.396  18.609  0.00  0.00    +0.000 C 
ATOM     13  C   UNL     1      -0.208  16.335  18.827  0.00  0.00    +0.000 C 
ATOM     14  C   UNL     1      -1.346  16.992  19.600  0.00  0.00    +0.000 C 
ATOM     15  N   UNL     1      -1.270  14.585  21.002  0.00  0.00    +0.000 NA
ATOM     16  C   UNL     1      -1.757  13.659  21.835  0.00  0.00    +0.000 A 
ENDROOT
BRANCH   5  17
ATOM     17  C   UNL     1       0.286  10.683  20.859  0.00  0.00    +0.000 A 
ATOM     18  C   UNL     1       0.678  10.062  19.691  0.00  0.00    +0.000 A 
ATOM     19  N   UNL     1       1.267   8.847  19.614  0.00  0.00    +0.000 NA
ATOM     20  C   UNL     1       1.514   8.230  20.771  0.00  0.00    +0.000 A 
ATOM     21  N   UNL     1       2.122   6.995  20.719  0.00  0.00    +0.000 N 
ATOM     22  N   UNL     1       1.181   8.710  21.967  0.00  0.00    +0.000 NA
ATOM     23  C   UNL     1       0.586   9.925  21.981  0.00  0.00    +0.000 A 
ATOM     24  H   UNL     1       1.938   6.562  19.826  0.00  0.00    +0.000 HD
ATOM     25  H   UNL     1       1.889   6.468  21.549  0.00  0.00    +0.000 HD
ENDBRANCH   5  17
BRANCH   1  31
ATOM     26  C   UNL     1      -7.344  13.389  24.061  0.00  0.00    +0.000 C 
ATOM     27  C   UNL     1      -6.493  13.581  22.834  0.00  0.00    +0.000 C 
ATOM     28  O   UNL     1      -6.643  12.897  21.824  0.00  0.00    +0.000 OA
ATOM     29  N   UNL     1      -5.615  14.638  22.912  0.00  0.00    +0.000 N 
ATOM     30  C   UNL     1      -4.680  15.042  21.869  0.00  0.00    +0.000 C 
ATOM     31  C   UNL     1      -3.570  15.060  22.938  0.00  0.00    +0.000 C 
ATOM     32  C   UNL     1      -4.677  14.914  24.003  0.00  0.00    +0.000 C 
ENDBRANCH   1  31
TORSDOF 2
ENDMDL
MODEL 9
REMARK VINA RESULT:      -6.8      6.202      8.641
REMARK  Name = 
REMARK  4 active torsions:
REMARK  status: ('A' for Active; 'I' for Inactive)
REMARK    1  A    between atoms: C_1  and  C_2
REMARK    2  A    between atoms: C_6  and  N_7
REMARK    3  A    between atoms: C_11  and  C_12
REMARK    4  A    between atoms: C_26  and  C_27
REMARK                            x       y       z     vdW  Elec       q    Type
REMARK                         _______ _______ _______ _____ _____    ______ ____
ROOT
ATOM      1  N   UNL     1       7.597  15.305  23.193  0.00  0.00    +0.000 N 
ATOM      2  C   UNL     1       8.988  14.888  23.363  0.00  0.00    +0.000 C 
ATOM      3  C   UNL     1       9.563  14.573  21.978  0.00  0.00    +0.000 C 
ATOM      4  C   UNL     1       8.351  14.571  21.126  0.00  0.00    +0.000 A 
ATOM      5  C   UNL     1       8.166  14.349  19.790  0.00  0.00    +0.000 A 
ATOM      6  N   UNL     1       6.932  14.504  19.256  0.00  0.00    +0.000 NA
ATOM      7  C   UNL     1       5.894  14.886  20.025  0.00  0.00    +0.000 A 
ATOM      8  N   UNL     1       4.723  15.244  19.379  0.00  0.00    +0.000 N 
ATOM      9  C   UNL     1       4.738  15.106  17.908  0.00  0.00    +0.000 C 
ATOM     10  C   UNL     1       3.711  16.068  17.300  0.00  0.00    +0.000 C 
ATOM     11  O   UNL     1       2.398  15.816  17.818  0.00  0.00    +0.000 OA
ATOM     12  C   UNL     1       2.390  15.985  19.245  0.00  0.00    +0.000 C 
ATOM     13  C   UNL     1       3.376  15.018  19.957  0.00  0.00    +0.000 C 
ATOM     14  C   UNL     1       3.243  15.225  21.461  0.00  0.00    +0.000 C 
ATOM     15  N   UNL     1       6.025  15.100  21.335  0.00  0.00    +0.000 NA
ATOM     16  C   UNL     1       7.250  14.966  21.853  0.00  0.00    +0.000 A 
ENDROOT
BRANCH   5  17
ATOM     17  C   UNL     1       9.209  14.032  18.808  0.00  0.00    +0.000 A 
ATOM     18  C   UNL     1      10.041  14.945  18.194  0.00  0.00    +0.000 A 
ATOM     19  N   UNL     1      10.988  14.643  17.276  0.00  0.00    +0.000 NA
ATOM     20  C   UNL     1      11.140  13.351  16.981  0.00  0.00    +0.000 A 
ATOM     21  N   UNL     1      12.104  13.017  16.055  0.00  0.00    +0.000 N 
ATOM     22  N   UNL     1      10.400  12.368  17.490  0.00  0.00    +0.000 NA
ATOM     23  C   UNL     1       9.462  12.733  18.396  0.00  0.00    +0.000 A 
ATOM     24  H   UNL     1      12.283  13.805  15.450  0.00  0.00    +0.000 HD
ATOM     25  H   UNL     1      11.864  12.139  15.618  0.00  0.00    +0.000 HD
ENDBRANCH   5  17
BRANCH   1  31
ATOM     26  C   UNL     1       6.718  11.441  25.974  0.00  0.00    +0.000 C 
ATOM     27  C   UNL     1       6.077  12.200  24.842  0.00  0.00    +0.000 C 
ATOM     28  O   UNL     1       5.607  11.629  23.860  0.00  0.00    +0.000 OA
ATOM     29  N   UNL     1       5.980  13.556  25.051  0.00  0.00    +0.000 N 
ATOM     30  C   UNL     1       5.405  14.518  24.119  0.00  0.00    +0.000 C 
ATOM     31  C   UNL     1       6.673  15.375  24.296  0.00  0.00    +0.000 C 
ATOM     32  C   UNL     1       7.059  14.453  25.471  0.00  0.00    +0.000 C 
ENDBRANCH   1  31
TORSDOF 2
ENDMDL
