MODEL 1
REMARK VINA RESULT:      -7.6      0.000      0.000
REMARK  Name = 
REMARK  7 active torsions:
REMARK  status: ('A' for Active; 'I' for Inactive)
REMARK    1  A    between atoms: C_1  and  O_2
REMARK    2  A    between atoms: O_2  and  C_3
REMARK    3  A    between atoms: C_8  and  N_9
REMARK    4  A    between atoms: N_13  and  C_14
REMARK    5  A    between atoms: C_14  and  C_15
REMARK    6  A    between atoms: C_15  and  C_16
REMARK    7  A    between atoms: C_15  and  O_17
REMARK                            x       y       z     vdW  Elec       q    Type
REMARK                         _______ _______ _______ _____ _____    ______ ____
ROOT
ATOM      1  N   UNL     1       4.922   7.202  16.970  0.00  0.00    +0.000 N 
ATOM      2  C   UNL     1       3.865   7.012  17.870  0.00  0.00    +0.000 A 
ATOM      3  N   UNL     1       3.038   8.044  18.032  0.00  0.00    +0.000 NA
ATOM      4  C   UNL     1       2.145   7.909  18.997  0.00  0.00    +0.000 A 
ATOM      5  N   UNL     1       1.325   8.964  19.380  0.00  0.00    +0.000 N 
ATOM      6  N   UNL     1       2.017   6.824  19.749  0.00  0.00    +0.000 NA
ATOM      7  C   UNL     1       2.833   5.814  19.483  0.00  0.00    +0.000 A 
ATOM      8  N   UNL     1       2.686   4.661  20.218  0.00  0.00    +0.000 N 
ATOM      9  C   UNL     1       3.448   3.463  19.919  0.00  0.00    +0.000 C 
ATOM     10  C   UNL     1       2.446   2.330  20.135  0.00  0.00    +0.000 C 
ATOM     11  C   UNL     1       1.500   2.882  21.190  0.00  0.00    +0.000 C 
ATOM     12  C   UNL     1       1.412   4.371  20.859  0.00  0.00    +0.000 C 
ATOM     13  N   UNL     1       3.800   5.888  18.583  0.00  0.00    +0.000 NA
ATOM     14  H   UNL     1       4.701   8.014  16.410  0.00  0.00    +0.000 HD
ATOM     15  H   UNL     1       1.676   9.231  20.297  0.00  0.00    +0.000 HD
ENDROOT
BRANCH   1  21
ATOM     16  C   UNL     1       6.910   5.750  16.584  0.00  0.00    +0.000 A 
ATOM     17  C   UNL     1       7.513   4.742  15.814  0.00  0.00    +0.000 A 
ATOM     18  C   UNL     1       6.813   4.124  14.779  0.00  0.00    +0.000 A 
ATOM     19  C   UNL     1       5.505   4.505  14.503  0.00  0.00    +0.000 A 
ATOM     20  C   UNL     1       4.914   5.533  15.239  0.00  0.00    +0.000 A 
ATOM     21  C   UNL     1       5.619   6.206  16.249  0.00  0.00    +0.000 A 
BRANCH  16  23
ATOM     22  C   UNL     1       7.450   5.581  18.889  0.00  0.00    +0.000 C 
ATOM     23  O   UNL     1       7.515   6.323  17.677  0.00  0.00    +0.000 OA
ENDBRANCH  16  23
ENDBRANCH   1  21
BRANCH   5  24
ATOM     24  C   UNL     1       1.200  10.083  18.454  0.00  0.00    +0.000 C 
BRANCH  24  25
ATOM     25  C   UNL     1      -0.227  10.668  18.511  0.00  0.00    +0.000 C 
ATOM     26  C   UNL     1      -0.269  12.184  18.684  0.00  0.00    +0.000 C 
BRANCH  25  27
ATOM     27  O   UNL     1      -0.950  10.315  17.326  0.00  0.00    +0.000 OA
ATOM     28  H   UNL     1      -0.740  10.980  16.648  0.00  0.00    +0.000 HD
ENDBRANCH  25  27
ENDBRANCH  24  25
ENDBRANCH   5  24
TORSDOF 5
ENDMDL
MODEL 2
REMARK VINA RESULT:      -6.9      1.573      6.562
REMARK  Name = 
REMARK  7 active torsions:
REMARK  status: ('A' for Active; 'I' for Inactive)
REMARK    1  A    between atoms: C_1  and  O_2
REMARK    2  A    between atoms: O_2  and  C_3
REMARK    3  A    between atoms: C_8  and  N_9
REMARK    4  A    between atoms: N_13  and  C_14
REMARK    5  A    between atoms: C_14  and  C_15
REMARK    6  A    between atoms: C_15  and  C_16
REMARK    7  A    between atoms: C_15  and  O_17
REMARK                            x       y       z     vdW  Elec       q    Type
REMARK                         _______ _______ _______ _____ _____    ______ ____
ROOT
ATOM      1  N   UNL     1       2.126   8.332  18.443  0.00  0.00    +0.000 N 
ATOM      2  C   UNL     1       2.669   7.041  18.396  0.00  0.00    +0.000 A 
ATOM      3  N   UNL     1       3.724   6.876  17.599  0.00  0.00    +0.000 NA
ATOM      4  C   UNL     1       4.125   5.626  17.441  0.00  0.00    +0.000 A 
ATOM      5  N   UNL     1       5.110   5.291  16.518  0.00  0.00    +0.000 N 
ATOM      6  N   UNL     1       3.573   4.583  18.046  0.00  0.00    +0.000 NA
ATOM      7  C   UNL     1       2.570   4.836  18.875  0.00  0.00    +0.000 A 
ATOM      8  N   UNL     1       2.015   3.774  19.550  0.00  0.00    +0.000 N 
ATOM      9  C   UNL     1       0.998   3.965  20.567  0.00  0.00    +0.000 C 
ATOM     10  C   UNL     1       1.359   2.940  21.640  0.00  0.00    +0.000 C 
ATOM     11  C   UNL     1       2.039   1.826  20.859  0.00  0.00    +0.000 C 
ATOM     12  C   UNL     1       2.793   2.561  19.753  0.00  0.00    +0.000 C 
ATOM     13  N   UNL     1       2.061   6.046  19.040  0.00  0.00    +0.000 NA
ATOM     14  H   UNL     1       2.812   8.964  18.053  0.00  0.00    +0.000 HD
ATOM     15  H   UNL     1       4.606   4.794  15.787  0.00  0.00    +0.000 HD
ENDROOT
BRANCH   1  21
ATOM     16  C   UNL     1       0.265   9.745  19.308  0.00  0.00    +0.000 A 
ATOM     17  C   UNL     1      -0.420  10.254  20.423  0.00  0.00    +0.000 A 
ATOM     18  C   UNL     1      -0.063   9.866  21.715  0.00  0.00    +0.000 A 
ATOM     19  C   UNL     1       0.978   8.966  21.905  0.00  0.00    +0.000 A 
ATOM     20  C   UNL     1       1.688   8.487  20.802  0.00  0.00    +0.000 A 
ATOM     21  C   UNL     1       1.382   8.906  19.498  0.00  0.00    +0.000 A 
BRANCH  16  23
ATOM     22  C   UNL     1      -1.475  10.343  17.809  0.00  0.00    +0.000 C 
ATOM     23  O   UNL     1      -0.106  10.014  18.012  0.00  0.00    +0.000 OA
ENDBRANCH  16  23
ENDBRANCH   1  21
BRANCH   5  24
ATOM     24  C   UNL     1       5.950   6.372  16.017  0.00  0.00    +0.000 C 
BRANCH  24  25
ATOM     25  C   UNL     1       7.357   6.292  16.647  0.00  0.00    +0.000 C 
ATOM     26  C   UNL     1       7.547   7.202  17.858  0.00  0.00    +0.000 C 
BRANCH  25  27
ATOM     27  O   UNL     1       7.649   4.943  17.027  0.00  0.00    +0.000 OA
ATOM     28  H   UNL     1       7.527   4.880  17.990  0.00  0.00    +0.000 HD
ENDBRANCH  25  27
ENDBRANCH  24  25
ENDBRANCH   5  24
TORSDOF 5
ENDMDL
MODEL 3
REMARK VINA RESULT:      -6.7      3.740      6.602
REMARK  Name = 
REMARK  7 active torsions:
REMARK  status: ('A' for Active; 'I' for Inactive)
REMARK    1  A    between atoms: C_1  and  O_2
REMARK    2  A    between atoms: O_2  and  C_3
REMARK    3  A    between atoms: C_8  and  N_9
REMARK    4  A    between atoms: N_13  and  C_14
REMARK    5  A    between atoms: C_14  and  C_15
REMARK    6  A    between atoms: C_15  and  C_16
REMARK    7  A    between atoms: C_15  and  O_17
REMARK                            x       y       z     vdW  Elec       q    Type
REMARK                         _______ _______ _______ _____ _____    ______ ____
ROOT
ATOM      1  N   UNL     1       4.171   5.479  18.430  0.00  0.00    +0.000 N 
ATOM      2  C   UNL     1       5.223   5.693  17.529  0.00  0.00    +0.000 A 
ATOM      3  N   UNL     1       6.206   6.487  17.952  0.00  0.00    +0.000 NA
ATOM      4  C   UNL     1       7.108   6.808  17.040  0.00  0.00    +0.000 A 
ATOM      5  N   UNL     1       8.097   7.750  17.298  0.00  0.00    +0.000 N 
ATOM      6  N   UNL     1       7.098   6.361  15.792  0.00  0.00    +0.000 NA
ATOM      7  C   UNL     1       6.124   5.523  15.465  0.00  0.00    +0.000 A 
ATOM      8  N   UNL     1       6.122   5.010  14.190  0.00  0.00    +0.000 N 
ATOM      9  C   UNL     1       5.172   3.994  13.777  0.00  0.00    +0.000 C 
ATOM     10  C   UNL     1       5.994   3.066  12.886  0.00  0.00    +0.000 C 
ATOM     11  C   UNL     1       7.058   3.980  12.298  0.00  0.00    +0.000 C 
ATOM     12  C   UNL     1       7.362   4.962  13.429  0.00  0.00    +0.000 C 
ATOM     13  N   UNL     1       5.144   5.202  16.293  0.00  0.00    +0.000 NA
ATOM     14  H   UNL     1       4.492   5.767  19.344  0.00  0.00    +0.000 HD
ATOM     15  H   UNL     1       7.830   8.551  16.730  0.00  0.00    +0.000 HD
ENDROOT
BRANCH   1  21
ATOM     16  C   UNL     1       3.613   3.144  19.099  0.00  0.00    +0.000 A 
ATOM     17  C   UNL     1       2.670   2.104  19.103  0.00  0.00    +0.000 A 
ATOM     18  C   UNL     1       1.394   2.298  18.575  0.00  0.00    +0.000 A 
ATOM     19  C   UNL     1       1.047   3.532  18.040  0.00  0.00    +0.000 A 
ATOM     20  C   UNL     1       1.992   4.559  17.998  0.00  0.00    +0.000 A 
ATOM     21  C   UNL     1       3.299   4.368  18.474  0.00  0.00    +0.000 A 
BRANCH  16  23
ATOM     22  C   UNL     1       5.031   1.933  20.568  0.00  0.00    +0.000 C 
ATOM     23  O   UNL     1       4.848   3.041  19.693  0.00  0.00    +0.000 OA
ENDBRANCH  16  23
ENDBRANCH   1  21
BRANCH   5  24
ATOM     24  C   UNL     1       8.354   8.084  18.693  0.00  0.00    +0.000 C 
BRANCH  24  25
ATOM     25  C   UNL     1       9.082   9.441  18.794  0.00  0.00    +0.000 C 
ATOM     26  C   UNL     1       8.459  10.545  17.943  0.00  0.00    +0.000 C 
BRANCH  25  27
ATOM     27  O   UNL     1       9.127   9.874  20.158  0.00  0.00    +0.000 OA
ATOM     28  H   UNL     1       8.519   9.307  20.663  0.00  0.00    +0.000 HD
ENDBRANCH  25  27
ENDBRANCH  24  25
ENDBRANCH   5  24
TORSDOF 5
ENDMDL
MODEL 4
REMARK VINA RESULT:      -6.6      0.985      1.030
REMARK  Name = 
REMARK  7 active torsions:
REMARK  status: ('A' for Active; 'I' for Inactive)
REMARK    1  A    between atoms: C_1  and  O_2
REMARK    2  A    between atoms: O_2  and  C_3
REMARK    3  A    between atoms: C_8  and  N_9
REMARK    4  A    between atoms: N_13  and  C_14
REMARK    5  A    between atoms: C_14  and  C_15
REMARK    6  A    between atoms: C_15  and  C_16
REMARK    7  A    between atoms: C_15  and  O_17
REMARK                            x       y       z     vdW  Elec       q    Type
REMARK                         _______ _______ _______ _____ _____    ______ ____
ROOT
ATOM      1  N   UNL     1       4.889   7.126  17.604  0.00  0.00    +0.000 N 
ATOM      2  C   UNL     1       3.831   6.803  18.464  0.00  0.00    +0.000 A 
ATOM      3  N   UNL     1       3.024   7.806  18.806  0.00  0.00    +0.000 NA
ATOM      4  C   UNL     1       2.131   7.523  19.738  0.00  0.00    +0.000 A 
ATOM      5  N   UNL     1       1.331   8.512  20.302  0.00  0.00    +0.000 N 
ATOM      6  N   UNL     1       1.984   6.328  20.292  0.00  0.00    +0.000 NA
ATOM      7  C   UNL     1       2.780   5.364  19.852  0.00  0.00    +0.000 A 
ATOM      8  N   UNL     1       2.612   4.104  20.378  0.00  0.00    +0.000 N 
ATOM      9  C   UNL     1       3.351   2.962  19.873  0.00  0.00    +0.000 C 
ATOM     10  C   UNL     1       2.329   1.828  19.896  0.00  0.00    +0.000 C 
ATOM     11  C   UNL     1       1.396   2.207  21.036  0.00  0.00    +0.000 C 
ATOM     12  C   UNL     1       1.335   3.732  20.967  0.00  0.00    +0.000 C 
ATOM     13  N   UNL     1       3.746   5.574  18.972  0.00  0.00    +0.000 NA
ATOM     14  H   UNL     1       4.682   8.026  17.194  0.00  0.00    +0.000 HD
ATOM     15  H   UNL     1       1.690   8.610  21.249  0.00  0.00    +0.000 HD
ENDROOT
BRANCH   1  21
ATOM     16  C   UNL     1       6.682   5.477  17.081  0.00  0.00    +0.000 A 
ATOM     17  C   UNL     1       7.275   4.629  16.132  0.00  0.00    +0.000 A 
ATOM     18  C   UNL     1       6.717   4.482  14.863  0.00  0.00    +0.000 A 
ATOM     19  C   UNL     1       5.561   5.177  14.529  0.00  0.00    +0.000 A 
ATOM     20  C   UNL     1       4.989   6.052  15.456  0.00  0.00    +0.000 A 
ATOM     21  C   UNL     1       5.565   6.257  16.719  0.00  0.00    +0.000 A 
BRANCH  16  23
ATOM     22  C   UNL     1       8.015   6.667  18.644  0.00  0.00    +0.000 C 
ATOM     23  O   UNL     1       7.131   5.585  18.376  0.00  0.00    +0.000 OA
ENDBRANCH  16  23
ENDBRANCH   1  21
BRANCH   5  24
ATOM     24  C   UNL     1       1.226   9.776  19.583  0.00  0.00    +0.000 C 
BRANCH  24  25
ATOM     25  C   UNL     1       0.741   9.531  18.138  0.00  0.00    +0.000 C 
ATOM     26  C   UNL     1      -0.617  10.152  17.826  0.00  0.00    +0.000 C 
BRANCH  25  27
ATOM     27  O   UNL     1       1.707  10.029  17.206  0.00  0.00    +0.000 OA
ATOM     28  H   UNL     1       1.768  10.991  17.336  0.00  0.00    +0.000 HD
ENDBRANCH  25  27
ENDBRANCH  24  25
ENDBRANCH   5  24
TORSDOF 5
ENDMDL
MODEL 5
REMARK VINA RESULT:      -6.5      1.695      6.648
REMARK  Name = 
REMARK  7 active torsions:
REMARK  status: ('A' for Active; 'I' for Inactive)
REMARK    1  A    between atoms: C_1  and  O_2
REMARK    2  A    between atoms: O_2  and  C_3
REMARK    3  A    between atoms: C_8  and  N_9
REMARK    4  A    between atoms: N_13  and  C_14
REMARK    5  A    between atoms: C_14  and  C_15
REMARK    6  A    between atoms: C_15  and  C_16
REMARK    7  A    between atoms: C_15  and  O_17
REMARK                            x       y       z     vdW  Elec       q    Type
REMARK                         _______ _______ _______ _____ _____    ______ ____
ROOT
ATOM      1  N   UNL     1       2.266   7.885  18.118  0.00  0.00    +0.000 N 
ATOM      2  C   UNL     1       2.749   6.571  18.178  0.00  0.00    +0.000 A 
ATOM      3  N   UNL     1       3.722   6.263  17.323  0.00  0.00    +0.000 NA
ATOM      4  C   UNL     1       4.056   4.985  17.280  0.00  0.00    +0.000 A 
ATOM      5  N   UNL     1       4.942   4.497  16.325  0.00  0.00    +0.000 N 
ATOM      6  N   UNL     1       3.516   4.047  18.046  0.00  0.00    +0.000 NA
ATOM      7  C   UNL     1       2.600   4.442  18.918  0.00  0.00    +0.000 A 
ATOM      8  N   UNL     1       2.063   3.494  19.757  0.00  0.00    +0.000 N 
ATOM      9  C   UNL     1       1.147   3.850  20.824  0.00  0.00    +0.000 C 
ATOM     10  C   UNL     1       1.557   2.936  21.976  0.00  0.00    +0.000 C 
ATOM     11  C   UNL     1       2.119   1.707  21.279  0.00  0.00    +0.000 C 
ATOM     12  C   UNL     1       2.804   2.273  20.036  0.00  0.00    +0.000 C 
ATOM     13  N   UNL     1       2.158   5.688  18.982  0.00  0.00    +0.000 NA
ATOM     14  H   UNL     1       2.940   8.433  17.602  0.00  0.00    +0.000 HD
ATOM     15  H   UNL     1       4.356   3.947  15.701  0.00  0.00    +0.000 HD
ENDROOT
BRANCH   1  21
ATOM     16  C   UNL     1       0.634   9.577  18.945  0.00  0.00    +0.000 A 
ATOM     17  C   UNL     1       0.062  10.236  20.045  0.00  0.00    +0.000 A 
ATOM     18  C   UNL     1       0.413   9.881  21.348  0.00  0.00    +0.000 A 
ATOM     19  C   UNL     1       1.336   8.866  21.565  0.00  0.00    +0.000 A 
ATOM     20  C   UNL     1       1.938   8.234  20.474  0.00  0.00    +0.000 A 
ATOM     21  C   UNL     1       1.641   8.612  19.156  0.00  0.00    +0.000 A 
BRANCH  16  23
ATOM     22  C   UNL     1      -1.141   9.984  17.424  0.00  0.00    +0.000 C 
ATOM     23  O   UNL     1       0.254   9.816  17.646  0.00  0.00    +0.000 OA
ENDBRANCH  16  23
ENDBRANCH   1  21
BRANCH   5  24
ATOM     24  C   UNL     1       5.780   5.470  15.634  0.00  0.00    +0.000 C 
BRANCH  24  25
ATOM     25  C   UNL     1       6.850   4.749  14.787  0.00  0.00    +0.000 C 
ATOM     26  C   UNL     1       6.282   3.957  13.612  0.00  0.00    +0.000 C 
BRANCH  25  27
ATOM     27  O   UNL     1       7.805   5.695  14.294  0.00  0.00    +0.000 OA
ATOM     28  H   UNL     1       8.033   5.430  13.386  0.00  0.00    +0.000 HD
ENDBRANCH  25  27
ENDBRANCH  24  25
ENDBRANCH   5  24
TORSDOF 5
ENDMDL
MODEL 6
REMARK VINA RESULT:      -6.5      6.863      9.520
REMARK  Name = 
REMARK  7 active torsions:
REMARK  status: ('A' for Active; 'I' for Inactive)
REMARK    1  A    between atoms: C_1  and  O_2
REMARK    2  A    between atoms: O_2  and  C_3
REMARK    3  A    between atoms: C_8  and  N_9
REMARK    4  A    between atoms: N_13  and  C_14
REMARK    5  A    between atoms: C_14  and  C_15
REMARK    6  A    between atoms: C_15  and  C_16
REMARK    7  A    between atoms: C_15  and  O_17
REMARK                            x       y       z     vdW  Elec       q    Type
REMARK                         _______ _______ _______ _____ _____    ______ ____
ROOT
ATOM      1  N   UNL     1      -0.886  11.007  17.548  0.00  0.00    +0.000 N 
ATOM      2  C   UNL     1      -2.246  11.028  17.207  0.00  0.00    +0.000 A 
ATOM      3  N   UNL     1      -2.548  10.629  15.973  0.00  0.00    +0.000 NA
ATOM      4  C   UNL     1      -3.807  10.805  15.612  0.00  0.00    +0.000 A 
ATOM      5  N   UNL     1      -4.227  10.580  14.305  0.00  0.00    +0.000 N 
ATOM      6  N   UNL     1      -4.748  11.301  16.404  0.00  0.00    +0.000 NA
ATOM      7  C   UNL     1      -4.383  11.614  17.640  0.00  0.00    +0.000 A 
ATOM      8  N   UNL     1      -5.353  12.085  18.494  0.00  0.00    +0.000 N 
ATOM      9  C   UNL     1      -5.079  12.337  19.895  0.00  0.00    +0.000 C 
ATOM     10  C   UNL     1      -6.345  11.864  20.606  0.00  0.00    +0.000 C 
ATOM     11  C   UNL     1      -7.439  12.077  19.571  0.00  0.00    +0.000 C 
ATOM     12  C   UNL     1      -6.752  11.769  18.243  0.00  0.00    +0.000 C 
ATOM     13  N   UNL     1      -3.132  11.534  18.063  0.00  0.00    +0.000 NA
ATOM     14  H   UNL     1      -0.411  10.436  16.864  0.00  0.00    +0.000 HD
ATOM     15  H   UNL     1      -4.417  11.512  13.943  0.00  0.00    +0.000 HD
ENDROOT
BRANCH   1  21
ATOM     16  C   UNL     1       0.313  11.947  19.520  0.00  0.00    +0.000 A 
ATOM     17  C   UNL     1       0.815  11.739  20.815  0.00  0.00    +0.000 A 
ATOM     18  C   UNL     1       0.601  10.528  21.474  0.00  0.00    +0.000 A 
ATOM     19  C   UNL     1      -0.116   9.516  20.848  0.00  0.00    +0.000 A 
ATOM     20  C   UNL     1      -0.585   9.703  19.546  0.00  0.00    +0.000 A 
ATOM     21  C   UNL     1      -0.334  10.892  18.844  0.00  0.00    +0.000 A 
BRANCH  16  23
ATOM     22  C   UNL     1      -0.492  14.168  19.290  0.00  0.00    +0.000 C 
ATOM     23  O   UNL     1       0.407  13.151  18.863  0.00  0.00    +0.000 OA
ENDBRANCH  16  23
ENDBRANCH   1  21
BRANCH   5  24
ATOM     24  C   UNL     1      -3.351   9.789  13.450  0.00  0.00    +0.000 C 
BRANCH  24  25
ATOM     25  C   UNL     1      -4.101   9.351  12.174  0.00  0.00    +0.000 C 
ATOM     26  C   UNL     1      -5.603   9.625  12.212  0.00  0.00    +0.000 C 
BRANCH  25  27
ATOM     27  O   UNL     1      -3.539   9.998  11.027  0.00  0.00    +0.000 OA
ATOM     28  H   UNL     1      -3.565   9.361  10.293  0.00  0.00    +0.000 HD
ENDBRANCH  25  27
ENDBRANCH  24  25
ENDBRANCH   5  24
TORSDOF 5
ENDMDL
MODEL 7
REMARK VINA RESULT:      -6.5      1.778      6.478
REMARK  Name = 
REMARK  7 active torsions:
REMARK  status: ('A' for Active; 'I' for Inactive)
REMARK    1  A    between atoms: C_1  and  O_2
REMARK    2  A    between atoms: O_2  and  C_3
REMARK    3  A    between atoms: C_8  and  N_9
REMARK    4  A    between atoms: N_13  and  C_14
REMARK    5  A    between atoms: C_14  and  C_15
REMARK    6  A    between atoms: C_15  and  C_16
REMARK    7  A    between atoms: C_15  and  O_17
REMARK                            x       y       z     vdW  Elec       q    Type
REMARK                         _______ _______ _______ _____ _____    ______ ____
ROOT
ATOM      1  N   UNL     1       2.574   7.995  18.031  0.00  0.00    +0.000 N 
ATOM      2  C   UNL     1       3.008   6.665  18.112  0.00  0.00    +0.000 A 
ATOM      3  N   UNL     1       4.000   6.320  17.293  0.00  0.00    +0.000 NA
ATOM      4  C   UNL     1       4.290   5.031  17.265  0.00  0.00    +0.000 A 
ATOM      5  N   UNL     1       5.193   4.509  16.345  0.00  0.00    +0.000 N 
ATOM      6  N   UNL     1       3.691   4.115  18.013  0.00  0.00    +0.000 NA
ATOM      7  C   UNL     1       2.758   4.545  18.851  0.00  0.00    +0.000 A 
ATOM      8  N   UNL     1       2.158   3.619  19.671  0.00  0.00    +0.000 N 
ATOM      9  C   UNL     1       1.217   4.011  20.704  0.00  0.00    +0.000 C 
ATOM     10  C   UNL     1       1.552   3.087  21.872  0.00  0.00    +0.000 C 
ATOM     11  C   UNL     1       2.096   1.837  21.199  0.00  0.00    +0.000 C 
ATOM     12  C   UNL     1       2.845   2.374  19.980  0.00  0.00    +0.000 C 
ATOM     13  N   UNL     1       2.358   5.805  18.896  0.00  0.00    +0.000 NA
ATOM     14  H   UNL     1       3.285   8.516  17.539  0.00  0.00    +0.000 HD
ATOM     15  H   UNL     1       4.611   3.978  15.701  0.00  0.00    +0.000 HD
ENDROOT
BRANCH   1  21
ATOM     16  C   UNL     1       1.661  10.126  18.945  0.00  0.00    +0.000 A 
ATOM     17  C   UNL     1       1.008  10.782  20.000  0.00  0.00    +0.000 A 
ATOM     18  C   UNL     1       0.549  10.067  21.106  0.00  0.00    +0.000 A 
ATOM     19  C   UNL     1       0.736   8.692  21.169  0.00  0.00    +0.000 A 
ATOM     20  C   UNL     1       1.419   8.039  20.140  0.00  0.00    +0.000 A 
ATOM     21  C   UNL     1       1.937   8.747  19.044  0.00  0.00    +0.000 A 
BRANCH  16  23
ATOM     22  C   UNL     1       2.487  12.107  17.932  0.00  0.00    +0.000 C 
ATOM     23  O   UNL     1       2.045  10.762  17.788  0.00  0.00    +0.000 OA
ENDBRANCH  16  23
ENDBRANCH   1  21
BRANCH   5  24
ATOM     24  C   UNL     1       6.089   5.449  15.682  0.00  0.00    +0.000 C 
BRANCH  24  25
ATOM     25  C   UNL     1       7.007   4.705  14.689  0.00  0.00    +0.000 C 
ATOM     26  C   UNL     1       6.256   3.960  13.589  0.00  0.00    +0.000 C 
BRANCH  25  27
ATOM     27  O   UNL     1       7.925   5.624  14.087  0.00  0.00    +0.000 OA
ATOM     28  H   UNL     1       7.620   5.786  13.178  0.00  0.00    +0.000 HD
ENDBRANCH  25  27
ENDBRANCH  24  25
ENDBRANCH   5  24
TORSDOF 5
ENDMDL
MODEL 8
REMARK VINA RESULT:      -6.3      3.190      6.700
REMARK  Name = 
REMARK  7 active torsions:
REMARK  status: ('A' for Active; 'I' for Inactive)
REMARK    1  A    between atoms: C_1  and  O_2
REMARK    2  A    between atoms: O_2  and  C_3
REMARK    3  A    between atoms: C_8  and  N_9
REMARK    4  A    between atoms: N_13  and  C_14
REMARK    5  A    between atoms: C_14  and  C_15
REMARK    6  A    between atoms: C_15  and  C_16
REMARK    7  A    between atoms: C_15  and  O_17
REMARK                            x       y       z     vdW  Elec       q    Type
REMARK                         _______ _______ _______ _____ _____    ______ ____
ROOT
ATOM      1  N   UNL     1       4.456   5.377  18.736  0.00  0.00    +0.000 N 
ATOM      2  C   UNL     1       5.438   5.668  17.780  0.00  0.00    +0.000 A 
ATOM      3  N   UNL     1       6.393   6.517  18.157  0.00  0.00    +0.000 NA
ATOM      4  C   UNL     1       7.217   6.905  17.200  0.00  0.00    +0.000 A 
ATOM      5  N   UNL     1       8.160   7.905  17.415  0.00  0.00    +0.000 N 
ATOM      6  N   UNL     1       7.162   6.473  15.948  0.00  0.00    +0.000 NA
ATOM      7  C   UNL     1       6.225   5.579  15.665  0.00  0.00    +0.000 A 
ATOM      8  N   UNL     1       6.181   5.081  14.384  0.00  0.00    +0.000 N 
ATOM      9  C   UNL     1       5.274   4.013  14.011  0.00  0.00    +0.000 C 
ATOM     10  C   UNL     1       6.098   3.149  13.060  0.00  0.00    +0.000 C 
ATOM     11  C   UNL     1       7.067   4.135  12.426  0.00  0.00    +0.000 C 
ATOM     12  C   UNL     1       7.375   5.121  13.552  0.00  0.00    +0.000 C 
ATOM     13  N   UNL     1       5.317   5.187  16.543  0.00  0.00    +0.000 NA
ATOM     14  H   UNL     1       4.810   5.674  19.635  0.00  0.00    +0.000 HD
ATOM     15  H   UNL     1       7.811   8.694  16.875  0.00  0.00    +0.000 HD
ENDROOT
BRANCH   1  21
ATOM     16  C   UNL     1       2.285   4.220  19.131  0.00  0.00    +0.000 A 
ATOM     17  C   UNL     1       1.573   3.010  19.166  0.00  0.00    +0.000 A 
ATOM     18  C   UNL     1       2.189   1.812  18.801  0.00  0.00    +0.000 A 
ATOM     19  C   UNL     1       3.518   1.812  18.397  0.00  0.00    +0.000 A 
ATOM     20  C   UNL     1       4.242   3.007  18.398  0.00  0.00    +0.000 A 
ATOM     21  C   UNL     1       3.658   4.214  18.813  0.00  0.00    +0.000 A 
BRANCH  16  23
ATOM     22  C   UNL     1       1.641   5.831  20.750  0.00  0.00    +0.000 C 
ATOM     23  O   UNL     1       1.703   5.439  19.384  0.00  0.00    +0.000 OA
ENDBRANCH  16  23
ENDBRANCH   1  21
BRANCH   5  24
ATOM     24  C   UNL     1       8.476   8.238  18.798  0.00  0.00    +0.000 C 
BRANCH  24  25
ATOM     25  C   UNL     1       9.194   9.603  18.870  0.00  0.00    +0.000 C 
ATOM     26  C   UNL     1       8.600  10.666  17.949  0.00  0.00    +0.000 C 
BRANCH  25  27
ATOM     27  O   UNL     1       9.183  10.093  20.215  0.00  0.00    +0.000 OA
ATOM     28  H   UNL     1       9.771   9.521  20.737  0.00  0.00    +0.000 HD
ENDBRANCH  25  27
ENDBRANCH  24  25
ENDBRANCH   5  24
TORSDOF 5
ENDMDL
MODEL 9
REMARK VINA RESULT:      -6.3      7.105      9.757
REMARK  Name = 
REMARK  7 active torsions:
REMARK  status: ('A' for Active; 'I' for Inactive)
REMARK    1  A    between atoms: C_1  and  O_2
REMARK    2  A    between atoms: O_2  and  C_3
REMARK    3  A    between atoms: C_8  and  N_9
REMARK    4  A    between atoms: N_13  and  C_14
REMARK    5  A    between atoms: C_14  and  C_15
REMARK    6  A    between atoms: C_15  and  C_16
REMARK    7  A    between atoms: C_15  and  O_17
REMARK                            x       y       z     vdW  Elec       q    Type
REMARK                         _______ _______ _______ _____ _____    ______ ____
ROOT
ATOM      1  N   UNL     1      -0.978  10.838  18.961  0.00  0.00    +0.000 N 
ATOM      2  C   UNL     1      -2.218  10.966  18.321  0.00  0.00    +0.000 A 
ATOM      3  N   UNL     1      -2.257  10.606  17.039  0.00  0.00    +0.000 NA
ATOM      4  C   UNL     1      -3.385  10.881  16.407  0.00  0.00    +0.000 A 
ATOM      5  N   UNL     1      -3.509  10.705  15.033  0.00  0.00    +0.000 N 
ATOM      6  N   UNL     1      -4.444  11.437  16.978  0.00  0.00    +0.000 NA
ATOM      7  C   UNL     1      -4.351  11.706  18.273  0.00  0.00    +0.000 A 
ATOM      8  N   UNL     1      -5.455  12.238  18.897  0.00  0.00    +0.000 N 
ATOM      9  C   UNL     1      -5.491  12.452  20.331  0.00  0.00    +0.000 C 
ATOM     10  C   UNL     1      -6.917  12.068  20.722  0.00  0.00    +0.000 C 
ATOM     11  C   UNL     1      -7.727  12.375  19.472  0.00  0.00    +0.000 C 
ATOM     12  C   UNL     1      -6.777  12.032  18.326  0.00  0.00    +0.000 C 
ATOM     13  N   UNL     1      -3.239  11.528  18.967  0.00  0.00    +0.000 NA
ATOM     14  H   UNL     1      -0.400  10.241  18.386  0.00  0.00    +0.000 HD
ATOM     15  H   UNL     1      -3.545  11.652  14.664  0.00  0.00    +0.000 HD
ENDROOT
BRANCH   1  21
ATOM     16  C   UNL     1      -0.853  11.702  21.295  0.00  0.00    +0.000 A 
ATOM     17  C   UNL     1      -0.619  11.428  22.652  0.00  0.00    +0.000 A 
ATOM     18  C   UNL     1      -0.371  10.124  23.081  0.00  0.00    +0.000 A 
ATOM     19  C   UNL     1      -0.355   9.083  22.161  0.00  0.00    +0.000 A 
ATOM     20  C   UNL     1      -0.549   9.356  20.805  0.00  0.00    +0.000 A 
ATOM     21  C   UNL     1      -0.746  10.667  20.344  0.00  0.00    +0.000 A 
BRANCH  16  23
ATOM     22  C   UNL     1      -0.498  14.047  21.402  0.00  0.00    +0.000 C 
ATOM     23  O   UNL     1      -1.200  12.949  20.830  0.00  0.00    +0.000 OA
ENDBRANCH  16  23
ENDBRANCH   1  21
BRANCH   5  24
ATOM     24  C   UNL     1      -2.519   9.860  14.376  0.00  0.00    +0.000 C 
BRANCH  24  25
ATOM     25  C   UNL     1      -3.057   9.360  13.018  0.00  0.00    +0.000 C 
ATOM     26  C   UNL     1      -4.358  10.030  12.582  0.00  0.00    +0.000 C 
BRANCH  25  27
ATOM     27  O   UNL     1      -2.070   9.551  11.999  0.00  0.00    +0.000 OA
ATOM     28  H   UNL     1      -1.340   8.934  12.182  0.00  0.00    +0.000 HD
ENDBRANCH  25  27
ENDBRANCH  24  25
ENDBRANCH   5  24
TORSDOF 5
ENDMDL
