MODEL 1
REMARK VINA RESULT:      -8.6      0.000      0.000
REMARK  Name = 
REMARK  4 active torsions:
REMARK  status: ('A' for Active; 'I' for Inactive)
REMARK    1  A    between atoms: C_1  and  C_2
REMARK    2  A    between atoms: N_10  and  C_11
REMARK    3  A    between atoms: C_14  and  N_15
REMARK    4  A    between atoms: N_16  and  C_17
REMARK                            x       y       z     vdW  Elec       q    Type
REMARK                         _______ _______ _______ _____ _____    ______ ____
ROOT
ATOM      1  C   UNL     1       1.944   8.052  19.380  0.00  0.00    +0.000 A 
ATOM      2  C   UNL     1       2.504   8.240  18.107  0.00  0.00    +0.000 A 
ATOM      3  C   UNL     1       3.150   7.199  17.427  0.00  0.00    +0.000 A 
ATOM      4  C   UNL     1       3.270   5.932  17.998  0.00  0.00    +0.000 A 
ATOM      5  C   UNL     1       2.768   5.754  19.292  0.00  0.00    +0.000 A 
ATOM      6  C   UNL     1       2.149   6.808  19.990  0.00  0.00    +0.000 A 
ENDROOT
BRANCH   1  16
ATOM      7  C   UNL     1      -3.026  13.336  20.879  0.00  0.00    +0.000 C 
ATOM      8  C   UNL     1      -1.953  12.306  21.097  0.00  0.00    +0.000 A 
ATOM      9  C   UNL     1      -1.497  11.979  22.396  0.00  0.00    +0.000 A 
ATOM     10  C   UNL     1      -0.515  10.995  22.599  0.00  0.00    +0.000 A 
ATOM     11  C   UNL     1      -0.003  10.366  21.478  0.00  0.00    +0.000 A 
ATOM     12  C   UNL     1      -0.432  10.702  20.216  0.00  0.00    +0.000 A 
ATOM     13  C   UNL     1      -1.412  11.651  19.986  0.00  0.00    +0.000 A 
ATOM     14  C   UNL     1       0.288   9.882  19.259  0.00  0.00    +0.000 C 
ATOM     15  O   UNL     1       0.049   9.963  18.067  0.00  0.00    +0.000 OA
ATOM     16  N   UNL     1       1.139   9.066  19.979  0.00  0.00    +0.000 N 
ATOM     17  C   UNL     1       0.992   9.295  21.333  0.00  0.00    +0.000 C 
ATOM     18  O   UNL     1       1.526   8.790  22.303  0.00  0.00    +0.000 OA
ENDBRANCH   1  16
BRANCH   4  19
ATOM     19  N   UNL     1       3.782   4.895  17.188  0.00  0.00    +0.000 NA
ATOM     20  N   UNL     1       5.006   4.651  17.045  0.00  0.00    +0.000 NA
BRANCH  20  21
ATOM     21  C   UNL     1       6.001   5.441  17.650  0.00  0.00    +0.000 A 
ATOM     22  C   UNL     1       6.465   6.572  16.971  0.00  0.00    +0.000 A 
ATOM     23  C   UNL     1       7.511   7.334  17.494  0.00  0.00    +0.000 A 
ATOM     24  C   UNL     1       8.097   6.965  18.704  0.00  0.00    +0.000 A 
ATOM     25  C   UNL     1       7.594   5.882  19.421  0.00  0.00    +0.000 A 
ATOM     26  C   UNL     1       6.523   5.150  18.916  0.00  0.00    +0.000 A 
ENDBRANCH  20  21
ENDBRANCH   4  19
TORSDOF 3
ENDMDL
MODEL 2
REMARK VINA RESULT:      -8.3      2.274      3.695
REMARK  Name = 
REMARK  4 active torsions:
REMARK  status: ('A' for Active; 'I' for Inactive)
REMARK    1  A    between atoms: C_1  and  C_2
REMARK    2  A    between atoms: N_10  and  C_11
REMARK    3  A    between atoms: C_14  and  N_15
REMARK    4  A    between atoms: N_16  and  C_17
REMARK                            x       y       z     vdW  Elec       q    Type
REMARK                         _______ _______ _______ _____ _____    ______ ____
ROOT
ATOM      1  C   UNL     1       2.581   7.020  18.491  0.00  0.00    +0.000 A 
ATOM      2  C   UNL     1       1.782   6.017  17.919  0.00  0.00    +0.000 A 
ATOM      3  C   UNL     1       2.323   4.793  17.508  0.00  0.00    +0.000 A 
ATOM      4  C   UNL     1       3.686   4.526  17.641  0.00  0.00    +0.000 A 
ATOM      5  C   UNL     1       4.498   5.544  18.153  0.00  0.00    +0.000 A 
ATOM      6  C   UNL     1       3.962   6.788  18.535  0.00  0.00    +0.000 A 
ENDROOT
BRANCH   1  16
ATOM      7  C   UNL     1      -0.552  13.610  19.763  0.00  0.00    +0.000 C 
ATOM      8  C   UNL     1      -0.045  12.218  20.014  0.00  0.00    +0.000 A 
ATOM      9  C   UNL     1      -0.250  11.569  21.255  0.00  0.00    +0.000 A 
ATOM     10  C   UNL     1       0.200  10.257  21.477  0.00  0.00    +0.000 A 
ATOM     11  C   UNL     1       0.860   9.626  20.438  0.00  0.00    +0.000 A 
ATOM     12  C   UNL     1       1.078  10.267  19.241  0.00  0.00    +0.000 A 
ATOM     13  C   UNL     1       0.629  11.551  18.986  0.00  0.00    +0.000 A 
ATOM     14  C   UNL     1       1.795   9.359  18.365  0.00  0.00    +0.000 C 
ATOM     15  O   UNL     1       2.066   9.683  17.222  0.00  0.00    +0.000 OA
ATOM     16  N   UNL     1       1.990   8.185  19.065  0.00  0.00    +0.000 N 
ATOM     17  C   UNL     1       1.425   8.275  20.322  0.00  0.00    +0.000 C 
ATOM     18  O   UNL     1       1.353   7.477  21.238  0.00  0.00    +0.000 OA
ENDBRANCH   1  16
BRANCH   4  19
ATOM     19  N   UNL     1       4.127   3.214  17.361  0.00  0.00    +0.000 NA
ATOM     20  N   UNL     1       3.816   2.205  18.042  0.00  0.00    +0.000 NA
BRANCH  20  21
ATOM     21  C   UNL     1       3.023   2.300  19.200  0.00  0.00    +0.000 A 
ATOM     22  C   UNL     1       1.637   2.156  19.077  0.00  0.00    +0.000 A 
ATOM     23  C   UNL     1       0.806   2.330  20.185  0.00  0.00    +0.000 A 
ATOM     24  C   UNL     1       1.361   2.650  21.423  0.00  0.00    +0.000 A 
ATOM     25  C   UNL     1       2.744   2.727  21.569  0.00  0.00    +0.000 A 
ATOM     26  C   UNL     1       3.573   2.511  20.471  0.00  0.00    +0.000 A 
ENDBRANCH  20  21
ENDBRANCH   4  19
TORSDOF 3
ENDMDL
MODEL 3
REMARK VINA RESULT:      -8.2      0.453      1.843
REMARK  Name = 
REMARK  4 active torsions:
REMARK  status: ('A' for Active; 'I' for Inactive)
REMARK    1  A    between atoms: C_1  and  C_2
REMARK    2  A    between atoms: N_10  and  C_11
REMARK    3  A    between atoms: C_14  and  N_15
REMARK    4  A    between atoms: N_16  and  C_17
REMARK                            x       y       z     vdW  Elec       q    Type
REMARK                         _______ _______ _______ _____ _____    ______ ____
ROOT
ATOM      1  C   UNL     1       1.966   7.869  19.266  0.00  0.00    +0.000 A 
ATOM      2  C   UNL     1       2.608   8.000  18.025  0.00  0.00    +0.000 A 
ATOM      3  C   UNL     1       3.295   6.931  17.437  0.00  0.00    +0.000 A 
ATOM      4  C   UNL     1       3.376   5.691  18.071  0.00  0.00    +0.000 A 
ATOM      5  C   UNL     1       2.792   5.571  19.337  0.00  0.00    +0.000 A 
ATOM      6  C   UNL     1       2.130   6.654  19.945  0.00  0.00    +0.000 A 
ENDROOT
BRANCH   1  16
ATOM      7  C   UNL     1      -1.447  13.014  23.359  0.00  0.00    +0.000 C 
ATOM      8  C   UNL     1      -1.041  12.210  22.155  0.00  0.00    +0.000 A 
ATOM      9  C   UNL     1      -1.492  12.546  20.856  0.00  0.00    +0.000 A 
ATOM     10  C   UNL     1      -1.087  11.810  19.730  0.00  0.00    +0.000 A 
ATOM     11  C   UNL     1      -0.239  10.738  19.941  0.00  0.00    +0.000 A 
ATOM     12  C   UNL     1       0.179  10.400  21.207  0.00  0.00    +0.000 A 
ATOM     13  C   UNL     1      -0.185  11.118  22.332  0.00  0.00    +0.000 A 
ATOM     14  C   UNL     1       1.044   9.240  21.104  0.00  0.00    +0.000 C 
ATOM     15  O   UNL     1       1.581   8.775  22.094  0.00  0.00    +0.000 OA
ATOM     16  N   UNL     1       1.125   8.908  19.766  0.00  0.00    +0.000 N 
ATOM     17  C   UNL     1       0.387   9.794  19.006  0.00  0.00    +0.000 C 
ATOM     18  O   UNL     1       0.204   9.875  17.806  0.00  0.00    +0.000 OA
ENDBRANCH   1  16
BRANCH   4  19
ATOM     19  N   UNL     1       3.939   4.619  17.345  0.00  0.00    +0.000 NA
ATOM     20  N   UNL     1       5.174   4.424  17.218  0.00  0.00    +0.000 NA
BRANCH  20  21
ATOM     21  C   UNL     1       6.128   5.305  17.758  0.00  0.00    +0.000 A 
ATOM     22  C   UNL     1       6.535   6.403  16.992  0.00  0.00    +0.000 A 
ATOM     23  C   UNL     1       7.543   7.252  17.452  0.00  0.00    +0.000 A 
ATOM     24  C   UNL     1       8.147   7.006  18.684  0.00  0.00    +0.000 A 
ATOM     25  C   UNL     1       7.699   5.957  19.483  0.00  0.00    +0.000 A 
ATOM     26  C   UNL     1       6.665   5.136  19.040  0.00  0.00    +0.000 A 
ENDBRANCH  20  21
ENDBRANCH   4  19
TORSDOF 3
ENDMDL
MODEL 4
REMARK VINA RESULT:      -8.2      2.228      4.008
REMARK  Name = 
REMARK  4 active torsions:
REMARK  status: ('A' for Active; 'I' for Inactive)
REMARK    1  A    between atoms: C_1  and  C_2
REMARK    2  A    between atoms: N_10  and  C_11
REMARK    3  A    between atoms: C_14  and  N_15
REMARK    4  A    between atoms: N_16  and  C_17
REMARK                            x       y       z     vdW  Elec       q    Type
REMARK                         _______ _______ _______ _____ _____    ______ ____
ROOT
ATOM      1  C   UNL     1       2.556   7.054  18.519  0.00  0.00    +0.000 A 
ATOM      2  C   UNL     1       1.868   6.040  17.835  0.00  0.00    +0.000 A 
ATOM      3  C   UNL     1       2.492   4.837  17.484  0.00  0.00    +0.000 A 
ATOM      4  C   UNL     1       3.831   4.603  17.793  0.00  0.00    +0.000 A 
ATOM      5  C   UNL     1       4.541   5.633  18.420  0.00  0.00    +0.000 A 
ATOM      6  C   UNL     1       3.925   6.857  18.743  0.00  0.00    +0.000 A 
ENDROOT
BRANCH   1  16
ATOM      7  C   UNL     1      -0.878  12.107  22.708  0.00  0.00    +0.000 C 
ATOM      8  C   UNL     1      -0.222  11.477  21.511  0.00  0.00    +0.000 A 
ATOM      9  C   UNL     1      -0.005  12.207  20.318  0.00  0.00    +0.000 A 
ATOM     10  C   UNL     1       0.634  11.625  19.211  0.00  0.00    +0.000 A 
ATOM     11  C   UNL     1       1.034  10.306  19.328  0.00  0.00    +0.000 A 
ATOM     12  C   UNL     1       0.802   9.592  20.480  0.00  0.00    +0.000 A 
ATOM     13  C   UNL     1       0.194  10.144  21.594  0.00  0.00    +0.000 A 
ATOM     14  C   UNL     1       1.324   8.251  20.295  0.00  0.00    +0.000 C 
ATOM     15  O   UNL     1       1.279   7.436  21.200  0.00  0.00    +0.000 OA
ATOM     16  N   UNL     1       1.863   8.194  19.025  0.00  0.00    +0.000 N 
ATOM     17  C   UNL     1       1.740   9.417  18.395  0.00  0.00    +0.000 C 
ATOM     18  O   UNL     1       2.089   9.801  17.295  0.00  0.00    +0.000 OA
ENDBRANCH   1  16
BRANCH   4  19
ATOM     19  N   UNL     1       4.342   3.308  17.558  0.00  0.00    +0.000 NA
ATOM     20  N   UNL     1       4.010   2.289  18.214  0.00  0.00    +0.000 NA
BRANCH  20  21
ATOM     21  C   UNL     1       3.117   2.357  19.299  0.00  0.00    +0.000 A 
ATOM     22  C   UNL     1       1.752   2.176  19.057  0.00  0.00    +0.000 A 
ATOM     23  C   UNL     1       0.824   2.323  20.089  0.00  0.00    +0.000 A 
ATOM     24  C   UNL     1       1.261   2.652  21.371  0.00  0.00    +0.000 A 
ATOM     25  C   UNL     1       2.624   2.764  21.636  0.00  0.00    +0.000 A 
ATOM     26  C   UNL     1       3.550   2.576  20.613  0.00  0.00    +0.000 A 
ENDBRANCH  20  21
ENDBRANCH   4  19
TORSDOF 3
ENDMDL
MODEL 5
REMARK VINA RESULT:      -8.1      0.686      2.118
REMARK  Name = 
REMARK  4 active torsions:
REMARK  status: ('A' for Active; 'I' for Inactive)
REMARK    1  A    between atoms: C_1  and  C_2
REMARK    2  A    between atoms: N_10  and  C_11
REMARK    3  A    between atoms: C_14  and  N_15
REMARK    4  A    between atoms: N_16  and  C_17
REMARK                            x       y       z     vdW  Elec       q    Type
REMARK                         _______ _______ _______ _____ _____    ______ ____
ROOT
ATOM      1  C   UNL     1       2.204   7.646  19.116  0.00  0.00    +0.000 A 
ATOM      2  C   UNL     1       2.895   7.809  17.905  0.00  0.00    +0.000 A 
ATOM      3  C   UNL     1       3.604   6.755  17.316  0.00  0.00    +0.000 A 
ATOM      4  C   UNL     1       3.658   5.498  17.919  0.00  0.00    +0.000 A 
ATOM      5  C   UNL     1       3.024   5.345  19.156  0.00  0.00    +0.000 A 
ATOM      6  C   UNL     1       2.340   6.413  19.767  0.00  0.00    +0.000 A 
ENDROOT
BRANCH   1  16
ATOM      7  C   UNL     1      -1.434  12.614  23.233  0.00  0.00    +0.000 C 
ATOM      8  C   UNL     1      -0.946  11.876  22.018  0.00  0.00    +0.000 A 
ATOM      9  C   UNL     1      -1.282  12.301  20.711  0.00  0.00    +0.000 A 
ATOM     10  C   UNL     1      -0.800  11.625  19.577  0.00  0.00    +0.000 A 
ATOM     11  C   UNL     1       0.007  10.522  19.788  0.00  0.00    +0.000 A 
ATOM     12  C   UNL     1       0.313  10.098  21.060  0.00  0.00    +0.000 A 
ATOM     13  C   UNL     1      -0.129  10.754  22.195  0.00  0.00    +0.000 A 
ATOM     14  C   UNL     1       1.161   8.924  20.955  0.00  0.00    +0.000 C 
ATOM     15  O   UNL     1       1.605   8.387  21.955  0.00  0.00    +0.000 OA
ATOM     16  N   UNL     1       1.345   8.673  19.610  0.00  0.00    +0.000 N 
ATOM     17  C   UNL     1       0.690   9.621  18.849  0.00  0.00    +0.000 C 
ATOM     18  O   UNL     1       0.607   9.780  17.646  0.00  0.00    +0.000 OA
ENDBRANCH   1  16
BRANCH   4  19
ATOM     19  N   UNL     1       4.248   4.445  17.186  0.00  0.00    +0.000 NA
ATOM     20  N   UNL     1       5.486   4.309  17.018  0.00  0.00    +0.000 NA
BRANCH  20  21
ATOM     21  C   UNL     1       6.413   5.244  17.513  0.00  0.00    +0.000 A 
ATOM     22  C   UNL     1       6.976   5.027  18.775  0.00  0.00    +0.000 A 
ATOM     23  C   UNL     1       7.832   5.973  19.341  0.00  0.00    +0.000 A 
ATOM     24  C   UNL     1       8.131   7.142  18.642  0.00  0.00    +0.000 A 
ATOM     25  C   UNL     1       7.631   7.333  17.356  0.00  0.00    +0.000 A 
ATOM     26  C   UNL     1       6.810   6.368  16.778  0.00  0.00    +0.000 A 
ENDBRANCH  20  21
ENDBRANCH   4  19
TORSDOF 3
ENDMDL
MODEL 6
REMARK VINA RESULT:      -8.0      1.159      2.011
REMARK  Name = 
REMARK  4 active torsions:
REMARK  status: ('A' for Active; 'I' for Inactive)
REMARK    1  A    between atoms: C_1  and  C_2
REMARK    2  A    between atoms: N_10  and  C_11
REMARK    3  A    between atoms: C_14  and  N_15
REMARK    4  A    between atoms: N_16  and  C_17
REMARK                            x       y       z     vdW  Elec       q    Type
REMARK                         _______ _______ _______ _____ _____    ______ ____
ROOT
ATOM      1  C   UNL     1       2.558   7.055  18.454  0.00  0.00    +0.000 A 
ATOM      2  C   UNL     1       2.317   5.673  18.483  0.00  0.00    +0.000 A 
ATOM      3  C   UNL     1       3.080   4.778  17.722  0.00  0.00    +0.000 A 
ATOM      4  C   UNL     1       4.108   5.230  16.895  0.00  0.00    +0.000 A 
ATOM      5  C   UNL     1       4.315   6.612  16.814  0.00  0.00    +0.000 A 
ATOM      6  C   UNL     1       3.526   7.516  17.551  0.00  0.00    +0.000 A 
ENDROOT
BRANCH   1  16
ATOM      7  C   UNL     1      -1.295  12.498  21.679  0.00  0.00    +0.000 C 
ATOM      8  C   UNL     1      -0.552  11.201  21.515  0.00  0.00    +0.000 A 
ATOM      9  C   UNL     1      -0.464  10.262  22.570  0.00  0.00    +0.000 A 
ATOM     10  C   UNL     1       0.207   9.039  22.404  0.00  0.00    +0.000 A 
ATOM     11  C   UNL     1       0.786   8.792  21.173  0.00  0.00    +0.000 A 
ATOM     12  C   UNL     1       0.718   9.716  20.157  0.00  0.00    +0.000 A 
ATOM     13  C   UNL     1       0.048  10.920  20.283  0.00  0.00    +0.000 A 
ATOM     14  C   UNL     1       1.420   9.177  19.006  0.00  0.00    +0.000 C 
ATOM     15  O   UNL     1       1.461   9.796  17.957  0.00  0.00    +0.000 OA
ATOM     16  N   UNL     1       1.895   7.931  19.364  0.00  0.00    +0.000 N 
ATOM     17  C   UNL     1       1.523   7.629  20.659  0.00  0.00    +0.000 C 
ATOM     18  O   UNL     1       1.714   6.645  21.349  0.00  0.00    +0.000 OA
ENDBRANCH   1  16
BRANCH   4  19
ATOM     19  N   UNL     1       4.938   4.260  16.291  0.00  0.00    +0.000 NA
ATOM     20  N   UNL     1       6.186   4.216  16.430  0.00  0.00    +0.000 NA
BRANCH  20  21
ATOM     21  C   UNL     1       6.890   5.181  17.173  0.00  0.00    +0.000 A 
ATOM     22  C   UNL     1       7.256   4.878  18.489  0.00  0.00    +0.000 A 
ATOM     23  C   UNL     1       7.876   5.837  19.290  0.00  0.00    +0.000 A 
ATOM     24  C   UNL     1       8.135   7.107  18.775  0.00  0.00    +0.000 A 
ATOM     25  C   UNL     1       7.839   7.394  17.445  0.00  0.00    +0.000 A 
ATOM     26  C   UNL     1       7.257   6.421  16.636  0.00  0.00    +0.000 A 
ENDBRANCH  20  21
ENDBRANCH   4  19
TORSDOF 3
ENDMDL
MODEL 7
REMARK VINA RESULT:      -7.9      1.982      3.198
REMARK  Name = 
REMARK  4 active torsions:
REMARK  status: ('A' for Active; 'I' for Inactive)
REMARK    1  A    between atoms: C_1  and  C_2
REMARK    2  A    between atoms: N_10  and  C_11
REMARK    3  A    between atoms: C_14  and  N_15
REMARK    4  A    between atoms: N_16  and  C_17
REMARK                            x       y       z     vdW  Elec       q    Type
REMARK                         _______ _______ _______ _____ _____    ______ ____
ROOT
ATOM      1  C   UNL     1       1.576   8.527  19.417  0.00  0.00    +0.000 A 
ATOM      2  C   UNL     1       1.953   7.439  20.219  0.00  0.00    +0.000 A 
ATOM      3  C   UNL     1       2.888   6.493  19.781  0.00  0.00    +0.000 A 
ATOM      4  C   UNL     1       3.476   6.592  18.520  0.00  0.00    +0.000 A 
ATOM      5  C   UNL     1       3.059   7.639  17.691  0.00  0.00    +0.000 A 
ATOM      6  C   UNL     1       2.094   8.571  18.116  0.00  0.00    +0.000 A 
ENDROOT
BRANCH   1  16
ATOM      7  C   UNL     1      -3.627  13.646  20.678  0.00  0.00    +0.000 C 
ATOM      8  C   UNL     1      -2.449  12.744  20.917  0.00  0.00    +0.000 A 
ATOM      9  C   UNL     1      -1.812  12.680  22.179  0.00  0.00    +0.000 A 
ATOM     10  C   UNL     1      -0.730  11.815  22.408  0.00  0.00    +0.000 A 
ATOM     11  C   UNL     1      -0.303  11.035  21.348  0.00  0.00    +0.000 A 
ATOM     12  C   UNL     1      -0.909  11.116  20.117  0.00  0.00    +0.000 A 
ATOM     13  C   UNL     1      -1.989  11.943  19.866  0.00  0.00    +0.000 A 
ATOM     14  C   UNL     1      -0.239  10.192  19.220  0.00  0.00    +0.000 C 
ATOM     15  O   UNL     1      -0.626  10.048  18.073  0.00  0.00    +0.000 OA
ATOM     16  N   UNL     1       0.761   9.574  19.944  0.00  0.00    +0.000 N 
ATOM     17  C   UNL     1       0.759  10.024  21.249  0.00  0.00    +0.000 C 
ATOM     18  O   UNL     1       1.448   9.733  22.209  0.00  0.00    +0.000 OA
ENDBRANCH   1  16
BRANCH   4  19
ATOM     19  N   UNL     1       4.529   5.701  18.215  0.00  0.00    +0.000 NA
ATOM     20  N   UNL     1       4.437   4.450  18.288  0.00  0.00    +0.000 NA
BRANCH  20  21
ATOM     21  C   UNL     1       3.267   3.812  18.738  0.00  0.00    +0.000 A 
ATOM     22  C   UNL     1       2.184   3.701  17.861  0.00  0.00    +0.000 A 
ATOM     23  C   UNL     1       0.975   3.154  18.293  0.00  0.00    +0.000 A 
ATOM     24  C   UNL     1       0.846   2.714  19.610  0.00  0.00    +0.000 A 
ATOM     25  C   UNL     1       1.942   2.756  20.470  0.00  0.00    +0.000 A 
ATOM     26  C   UNL     1       3.159   3.264  20.022  0.00  0.00    +0.000 A 
ENDBRANCH  20  21
ENDBRANCH   4  19
TORSDOF 3
ENDMDL
MODEL 8
REMARK VINA RESULT:      -7.9      2.006      3.546
REMARK  Name = 
REMARK  4 active torsions:
REMARK  status: ('A' for Active; 'I' for Inactive)
REMARK    1  A    between atoms: C_1  and  C_2
REMARK    2  A    between atoms: N_10  and  C_11
REMARK    3  A    between atoms: C_14  and  N_15
REMARK    4  A    between atoms: N_16  and  C_17
REMARK                            x       y       z     vdW  Elec       q    Type
REMARK                         _______ _______ _______ _____ _____    ______ ____
ROOT
ATOM      1  C   UNL     1       1.682   8.518  19.463  0.00  0.00    +0.000 A 
ATOM      2  C   UNL     1       2.237   8.670  18.184  0.00  0.00    +0.000 A 
ATOM      3  C   UNL     1       3.040   7.677  17.609  0.00  0.00    +0.000 A 
ATOM      4  C   UNL     1       3.328   6.497  18.294  0.00  0.00    +0.000 A 
ATOM      5  C   UNL     1       2.829   6.364  19.594  0.00  0.00    +0.000 A 
ATOM      6  C   UNL     1       2.050   7.376  20.187  0.00  0.00    +0.000 A 
ENDROOT
BRANCH   1  16
ATOM      7  C   UNL     1      -2.155  13.450  23.441  0.00  0.00    +0.000 C 
ATOM      8  C   UNL     1      -1.734  12.599  22.276  0.00  0.00    +0.000 A 
ATOM      9  C   UNL     1      -2.359  12.716  21.011  0.00  0.00    +0.000 A 
ATOM     10  C   UNL     1      -1.945  11.940  19.917  0.00  0.00    +0.000 A 
ATOM     11  C   UNL     1      -0.909  11.048  20.125  0.00  0.00    +0.000 A 
ATOM     12  C   UNL     1      -0.318  10.919  21.360  0.00  0.00    +0.000 A 
ATOM     13  C   UNL     1      -0.691  11.684  22.451  0.00  0.00    +0.000 A 
ATOM     14  C   UNL     1       0.720   9.909  21.264  0.00  0.00    +0.000 C 
ATOM     15  O   UNL     1       1.421   9.646  22.225  0.00  0.00    +0.000 OA
ATOM     16  N   UNL     1       0.726   9.454  19.960  0.00  0.00    +0.000 N 
ATOM     17  C   UNL     1      -0.223  10.122  19.213  0.00  0.00    +0.000 C 
ATOM     18  O   UNL     1      -0.532  10.044  18.039  0.00  0.00    +0.000 OA
ENDBRANCH   1  16
BRANCH   4  19
ATOM     19  N   UNL     1       4.001   5.476  17.587  0.00  0.00    +0.000 NA
ATOM     20  N   UNL     1       3.820   4.247  17.780  0.00  0.00    +0.000 NA
BRANCH  20  21
ATOM     21  C   UNL     1       2.948   3.768  18.775  0.00  0.00    +0.000 A 
ATOM     22  C   UNL     1       1.583   3.681  18.484  0.00  0.00    +0.000 A 
ATOM     23  C   UNL     1       0.672   3.295  19.469  0.00  0.00    +0.000 A 
ATOM     24  C   UNL     1       1.127   2.993  20.752  0.00  0.00    +0.000 A 
ATOM     25  C   UNL     1       2.491   3.009  21.030  0.00  0.00    +0.000 A 
ATOM     26  C   UNL     1       3.401   3.354  20.034  0.00  0.00    +0.000 A 
ENDBRANCH  20  21
ENDBRANCH   4  19
TORSDOF 3
ENDMDL
MODEL 9
REMARK VINA RESULT:      -7.9      2.083      3.671
REMARK  Name = 
REMARK  4 active torsions:
REMARK  status: ('A' for Active; 'I' for Inactive)
REMARK    1  A    between atoms: C_1  and  C_2
REMARK    2  A    between atoms: N_10  and  C_11
REMARK    3  A    between atoms: C_14  and  N_15
REMARK    4  A    between atoms: N_16  and  C_17
REMARK                            x       y       z     vdW  Elec       q    Type
REMARK                         _______ _______ _______ _____ _____    ______ ____
ROOT
ATOM      1  C   UNL     1       1.348   8.628  19.435  0.00  0.00    +0.000 A 
ATOM      2  C   UNL     1       1.753   7.566  20.257  0.00  0.00    +0.000 A 
ATOM      3  C   UNL     1       2.745   6.662  19.855  0.00  0.00    +0.000 A 
ATOM      4  C   UNL     1       3.364   6.779  18.610  0.00  0.00    +0.000 A 
ATOM      5  C   UNL     1       2.921   7.798  17.760  0.00  0.00    +0.000 A 
ATOM      6  C   UNL     1       1.900   8.686  18.148  0.00  0.00    +0.000 A 
ENDROOT
BRANCH   1  16
ATOM      7  C   UNL     1      -1.976  14.008  23.291  0.00  0.00    +0.000 C 
ATOM      8  C   UNL     1      -1.682  13.052  22.169  0.00  0.00    +0.000 A 
ATOM      9  C   UNL     1      -2.404  13.097  20.952  0.00  0.00    +0.000 A 
ATOM     10  C   UNL     1      -2.108  12.221  19.895  0.00  0.00    +0.000 A 
ATOM     11  C   UNL     1      -1.090  11.306  20.092  0.00  0.00    +0.000 A 
ATOM     12  C   UNL     1      -0.405  11.250  21.283  0.00  0.00    +0.000 A 
ATOM     13  C   UNL     1      -0.660  12.112  22.335  0.00  0.00    +0.000 A 
ATOM     14  C   UNL     1       0.586  10.194  21.187  0.00  0.00    +0.000 C 
ATOM     15  O   UNL     1       1.354   9.977  22.107  0.00  0.00    +0.000 OA
ATOM     16  N   UNL     1       0.469   9.638  19.928  0.00  0.00    +0.000 N 
ATOM     17  C   UNL     1      -0.514  10.285  19.206  0.00  0.00    +0.000 C 
ATOM     18  O   UNL     1      -0.921  10.129  18.070  0.00  0.00    +0.000 OA
ENDBRANCH   1  16
BRANCH   4  19
ATOM     19  N   UNL     1       4.466   5.938  18.344  0.00  0.00    +0.000 NA
ATOM     20  N   UNL     1       4.426   4.683  18.401  0.00  0.00    +0.000 NA
BRANCH  20  21
ATOM     21  C   UNL     1       3.266   3.990  18.793  0.00  0.00    +0.000 A 
ATOM     22  C   UNL     1       2.228   3.842  17.868  0.00  0.00    +0.000 A 
ATOM     23  C   UNL     1       1.026   3.240  18.241  0.00  0.00    +0.000 A 
ATOM     24  C   UNL     1       0.859   2.780  19.547  0.00  0.00    +0.000 A 
ATOM     25  C   UNL     1       1.912   2.861  20.455  0.00  0.00    +0.000 A 
ATOM     26  C   UNL     1       3.125   3.425  20.067  0.00  0.00    +0.000 A 
ENDBRANCH  20  21
ENDBRANCH   4  19
TORSDOF 3
ENDMDL
