MODEL 1
REMARK VINA RESULT:      -7.1      0.000      0.000
REMARK  Name = 
REMARK  7 active torsions:
REMARK  status: ('A' for Active; 'I' for Inactive)
REMARK    1  A    between atoms: C_1  and  N_2
REMARK    2  A    between atoms: N_2  and  C_3
REMARK    3  A    between atoms: N_2  and  C_4
REMARK    4  A    between atoms: C_7  and  C_8
REMARK    5  A    between atoms: C_9  and  C_10
REMARK    6  A    between atoms: C_9  and  C_12
REMARK    7  A    between atoms: C_17  and  C_18
REMARK                            x       y       z     vdW  Elec       q    Type
REMARK                         _______ _______ _______ _____ _____    ______ ____
ROOT
ATOM      1  C   UNL     1       2.273   8.334  17.593  0.00  0.00    +0.000 C 
ATOM      2  C   UNL     1       2.636   7.299  18.378  0.00  0.00    +0.000 C 
ENDROOT
BRANCH   1   6
ATOM      3  C   UNL     1      -0.146  11.731  18.778  0.00  0.00    +0.000 A 
ATOM      4  C   UNL     1      -0.732  10.525  18.365  0.00  0.00    +0.000 A 
ATOM      5  C   UNL     1       0.032   9.417  17.970  0.00  0.00    +0.000 A 
ATOM      6  C   UNL     1       1.424   9.484  17.939  0.00  0.00    +0.000 A 
ATOM      7  C   UNL     1       2.031  10.667  18.357  0.00  0.00    +0.000 A 
ATOM      8  C   UNL     1       1.257  11.765  18.761  0.00  0.00    +0.000 A 
BRANCH   3  10
ATOM      9  C   UNL     1      -0.375  14.171  19.151  0.00  0.00    +0.000 C 
ATOM     10  N   UNL     1      -0.905  12.816  19.201  0.00  0.00    +0.000 N 
ATOM     11  C   UNL     1      -2.220  12.615  19.792  0.00  0.00    +0.000 C 
ENDBRANCH   3  10
ENDBRANCH   1   6
BRANCH   2  12
ATOM     12  C   UNL     1       3.609   6.342  17.813  0.00  0.00    +0.000 A 
ATOM     13  C   UNL     1       4.876   6.864  17.484  0.00  0.00    +0.000 A 
ATOM     14  C   UNL     1       5.844   6.071  16.874  0.00  0.00    +0.000 A 
ATOM     15  C   UNL     1       5.573   4.737  16.602  0.00  0.00    +0.000 A 
ATOM     16  C   UNL     1       4.331   4.198  16.942  0.00  0.00    +0.000 A 
ATOM     17  C   UNL     1       3.328   4.988  17.543  0.00  0.00    +0.000 A 
BRANCH  17  18
ATOM     18  C   UNL     1       2.003   4.320  17.833  0.00  0.00    +0.000 C 
ATOM     19  F   UNL     1       1.674   4.225  19.148  0.00  0.00    +0.000 F 
ATOM     20  F   UNL     1       0.965   4.979  17.243  0.00  0.00    +0.000 F 
ATOM     21  F   UNL     1       1.952   3.047  17.348  0.00  0.00    +0.000 F 
ENDBRANCH  17  18
ENDBRANCH   2  12
BRANCH   2  22
ATOM     22  C   UNL     1       2.211   7.122  19.732  0.00  0.00    +0.000 C 
ATOM     23  N   UNL     1       1.835   7.005  20.822  0.00  0.00    +0.000 NA
ENDBRANCH   2  22
TORSDOF 5
ENDMDL
MODEL 2
REMARK VINA RESULT:      -7.1      2.334      3.036
REMARK  Name = 
REMARK  7 active torsions:
REMARK  status: ('A' for Active; 'I' for Inactive)
REMARK    1  A    between atoms: C_1  and  N_2
REMARK    2  A    between atoms: N_2  and  C_3
REMARK    3  A    between atoms: N_2  and  C_4
REMARK    4  A    between atoms: C_7  and  C_8
REMARK    5  A    between atoms: C_9  and  C_10
REMARK    6  A    between atoms: C_9  and  C_12
REMARK    7  A    between atoms: C_17  and  C_18
REMARK                            x       y       z     vdW  Elec       q    Type
REMARK                         _______ _______ _______ _____ _____    ______ ____
ROOT
ATOM      1  C   UNL     1       3.492   7.411  17.731  0.00  0.00    +0.000 C 
ATOM      2  C   UNL     1       3.563   6.089  17.476  0.00  0.00    +0.000 C 
ENDROOT
BRANCH   1   6
ATOM      3  C   UNL     1       0.401   9.755  19.669  0.00  0.00    +0.000 A 
ATOM      4  C   UNL     1       1.071   8.726  20.347  0.00  0.00    +0.000 A 
ATOM      5  C   UNL     1       2.068   7.951  19.737  0.00  0.00    +0.000 A 
ATOM      6  C   UNL     1       2.412   8.152  18.401  0.00  0.00    +0.000 A 
ATOM      7  C   UNL     1       1.770   9.179  17.708  0.00  0.00    +0.000 A 
ATOM      8  C   UNL     1       0.782   9.954  18.332  0.00  0.00    +0.000 A 
BRANCH   3  10
ATOM      9  C   UNL     1      -1.460  11.385  19.508  0.00  0.00    +0.000 C 
ATOM     10  N   UNL     1      -0.562  10.543  20.286  0.00  0.00    +0.000 N 
ATOM     11  C   UNL     1      -0.640  10.618  21.738  0.00  0.00    +0.000 C 
ENDBRANCH   3  10
ENDBRANCH   1   6
BRANCH   2  12
ATOM     12  C   UNL     1       4.828   5.586  16.904  0.00  0.00    +0.000 A 
ATOM     13  C   UNL     1       4.944   5.650  15.500  0.00  0.00    +0.000 A 
ATOM     14  C   UNL     1       6.060   5.133  14.847  0.00  0.00    +0.000 A 
ATOM     15  C   UNL     1       7.089   4.563  15.585  0.00  0.00    +0.000 A 
ATOM     16  C   UNL     1       7.000   4.512  16.976  0.00  0.00    +0.000 A 
ATOM     17  C   UNL     1       5.869   5.012  17.658  0.00  0.00    +0.000 A 
BRANCH  17  18
ATOM     18  C   UNL     1       5.852   4.871  19.164  0.00  0.00    +0.000 C 
ATOM     19  F   UNL     1       5.105   5.793  19.826  0.00  0.00    +0.000 F 
ATOM     20  F   UNL     1       5.365   3.658  19.551  0.00  0.00    +0.000 F 
ATOM     21  F   UNL     1       7.101   4.954  19.702  0.00  0.00    +0.000 F 
ENDBRANCH  17  18
ENDBRANCH   2  12
BRANCH   2  22
ATOM     22  C   UNL     1       2.538   5.146  17.801  0.00  0.00    +0.000 C 
ATOM     23  N   UNL     1       1.733   4.352  18.052  0.00  0.00    +0.000 NA
ENDBRANCH   2  22
TORSDOF 5
ENDMDL
MODEL 3
REMARK VINA RESULT:      -7.1      0.201      1.071
REMARK  Name = 
REMARK  7 active torsions:
REMARK  status: ('A' for Active; 'I' for Inactive)
REMARK    1  A    between atoms: C_1  and  N_2
REMARK    2  A    between atoms: N_2  and  C_3
REMARK    3  A    between atoms: N_2  and  C_4
REMARK    4  A    between atoms: C_7  and  C_8
REMARK    5  A    between atoms: C_9  and  C_10
REMARK    6  A    between atoms: C_9  and  C_12
REMARK    7  A    between atoms: C_17  and  C_18
REMARK                            x       y       z     vdW  Elec       q    Type
REMARK                         _______ _______ _______ _____ _____    ______ ____
ROOT
ATOM      1  C   UNL     1       2.426   8.274  17.533  0.00  0.00    +0.000 C 
ATOM      2  C   UNL     1       2.758   7.216  18.302  0.00  0.00    +0.000 C 
ENDROOT
BRANCH   1   6
ATOM      3  C   UNL     1       0.032  11.682  18.738  0.00  0.00    +0.000 A 
ATOM      4  C   UNL     1      -0.562  10.473  18.348  0.00  0.00    +0.000 A 
ATOM      5  C   UNL     1       0.193   9.361  17.947  0.00  0.00    +0.000 A 
ATOM      6  C   UNL     1       1.584   9.427  17.886  0.00  0.00    +0.000 A 
ATOM      7  C   UNL     1       2.200  10.614  18.282  0.00  0.00    +0.000 A 
ATOM      8  C   UNL     1       1.435  11.715  18.691  0.00  0.00    +0.000 A 
BRANCH   3  10
ATOM      9  C   UNL     1      -1.958  12.587  19.908  0.00  0.00    +0.000 C 
ATOM     10  N   UNL     1      -0.718  12.770  19.167  0.00  0.00    +0.000 N 
ATOM     11  C   UNL     1      -0.330  14.126  18.805  0.00  0.00    +0.000 C 
ENDBRANCH   3  10
ENDBRANCH   1   6
BRANCH   2  12
ATOM     12  C   UNL     1       3.730   6.260  17.737  0.00  0.00    +0.000 A 
ATOM     13  C   UNL     1       5.000   6.780  17.415  0.00  0.00    +0.000 A 
ATOM     14  C   UNL     1       5.969   5.988  16.805  0.00  0.00    +0.000 A 
ATOM     15  C   UNL     1       5.695   4.655  16.526  0.00  0.00    +0.000 A 
ATOM     16  C   UNL     1       4.451   4.118  16.859  0.00  0.00    +0.000 A 
ATOM     17  C   UNL     1       3.447   4.908  17.460  0.00  0.00    +0.000 A 
BRANCH  17  18
ATOM     18  C   UNL     1       2.120   4.241  17.742  0.00  0.00    +0.000 C 
ATOM     19  F   UNL     1       1.025   4.910  17.293  0.00  0.00    +0.000 F 
ATOM     20  F   UNL     1       2.048   3.001  17.179  0.00  0.00    +0.000 F 
ATOM     21  F   UNL     1       1.914   4.050  19.076  0.00  0.00    +0.000 F 
ENDBRANCH  17  18
ENDBRANCH   2  12
BRANCH   2  22
ATOM     22  C   UNL     1       2.300   7.014  19.641  0.00  0.00    +0.000 C 
ATOM     23  N   UNL     1       1.966   6.836  20.736  0.00  0.00    +0.000 NA
ENDBRANCH   2  22
TORSDOF 5
ENDMDL
MODEL 4
REMARK VINA RESULT:      -7.0      2.754      3.706
REMARK  Name = 
REMARK  7 active torsions:
REMARK  status: ('A' for Active; 'I' for Inactive)
REMARK    1  A    between atoms: C_1  and  N_2
REMARK    2  A    between atoms: N_2  and  C_3
REMARK    3  A    between atoms: N_2  and  C_4
REMARK    4  A    between atoms: C_7  and  C_8
REMARK    5  A    between atoms: C_9  and  C_10
REMARK    6  A    between atoms: C_9  and  C_12
REMARK    7  A    between atoms: C_17  and  C_18
REMARK                            x       y       z     vdW  Elec       q    Type
REMARK                         _______ _______ _______ _____ _____    ______ ____
ROOT
ATOM      1  C   UNL     1       3.655   6.965  17.520  0.00  0.00    +0.000 C 
ATOM      2  C   UNL     1       3.885   5.638  17.441  0.00  0.00    +0.000 C 
ENDROOT
BRANCH   1   6
ATOM      3  C   UNL     1       0.868   9.202  19.975  0.00  0.00    +0.000 A 
ATOM      4  C   UNL     1       1.529   8.068  20.469  0.00  0.00    +0.000 A 
ATOM      5  C   UNL     1       2.428   7.325  19.689  0.00  0.00    +0.000 A 
ATOM      6  C   UNL     1       2.677   7.670  18.362  0.00  0.00    +0.000 A 
ATOM      7  C   UNL     1       2.041   8.802  17.851  0.00  0.00    +0.000 A 
ATOM      8  C   UNL     1       1.152   9.543  18.643  0.00  0.00    +0.000 A 
BRANCH   3  10
ATOM      9  C   UNL     1      -0.800  11.025  20.185  0.00  0.00    +0.000 C 
ATOM     10  N   UNL     1       0.003   9.954  20.761  0.00  0.00    +0.000 N 
ATOM     11  C   UNL     1      -0.056   9.753  22.201  0.00  0.00    +0.000 C 
ENDBRANCH   3  10
ENDBRANCH   1   6
BRANCH   2  12
ATOM     12  C   UNL     1       5.024   5.207  16.606  0.00  0.00    +0.000 A 
ATOM     13  C   UNL     1       4.701   4.677  15.339  0.00  0.00    +0.000 A 
ATOM     14  C   UNL     1       5.688   4.168  14.500  0.00  0.00    +0.000 A 
ATOM     15  C   UNL     1       7.018   4.198  14.901  0.00  0.00    +0.000 A 
ATOM     16  C   UNL     1       7.357   4.739  16.142  0.00  0.00    +0.000 A 
ATOM     17  C   UNL     1       6.370   5.243  17.017  0.00  0.00    +0.000 A 
BRANCH  17  18
ATOM     18  C   UNL     1       6.838   5.769  18.355  0.00  0.00    +0.000 C 
ATOM     19  F   UNL     1       6.041   5.462  19.412  0.00  0.00    +0.000 F 
ATOM     20  F   UNL     1       8.075   5.295  18.680  0.00  0.00    +0.000 F 
ATOM     21  F   UNL     1       6.952   7.127  18.362  0.00  0.00    +0.000 F 
ENDBRANCH  17  18
ENDBRANCH   2  12
BRANCH   2  22
ATOM     22  C   UNL     1       3.160   4.646  18.173  0.00  0.00    +0.000 C 
ATOM     23  N   UNL     1       2.602   3.844  18.794  0.00  0.00    +0.000 NA
ENDBRANCH   2  22
TORSDOF 5
ENDMDL
MODEL 5
REMARK VINA RESULT:      -7.0      0.344      1.480
REMARK  Name = 
REMARK  7 active torsions:
REMARK  status: ('A' for Active; 'I' for Inactive)
REMARK    1  A    between atoms: C_1  and  N_2
REMARK    2  A    between atoms: N_2  and  C_3
REMARK    3  A    between atoms: N_2  and  C_4
REMARK    4  A    between atoms: C_7  and  C_8
REMARK    5  A    between atoms: C_9  and  C_10
REMARK    6  A    between atoms: C_9  and  C_12
REMARK    7  A    between atoms: C_17  and  C_18
REMARK                            x       y       z     vdW  Elec       q    Type
REMARK                         _______ _______ _______ _____ _____    ______ ____
ROOT
ATOM      1  C   UNL     1       2.519   8.258  17.568  0.00  0.00    +0.000 C 
ATOM      2  C   UNL     1       2.845   7.143  18.253  0.00  0.00    +0.000 C 
ENDROOT
BRANCH   1   6
ATOM      3  C   UNL     1      -0.051  11.562  18.695  0.00  0.00    +0.000 A 
ATOM      4  C   UNL     1       1.345  11.696  18.674  0.00  0.00    +0.000 A 
ATOM      5  C   UNL     1       2.194  10.638  18.320  0.00  0.00    +0.000 A 
ATOM      6  C   UNL     1       1.678   9.382  18.005  0.00  0.00    +0.000 A 
ATOM      7  C   UNL     1       0.292   9.226  18.006  0.00  0.00    +0.000 A 
ATOM      8  C   UNL     1      -0.548  10.295  18.351  0.00  0.00    +0.000 A 
BRANCH   3  10
ATOM      9  C   UNL     1      -2.279  12.395  19.396  0.00  0.00    +0.000 C 
ATOM     10  N   UNL     1      -0.892  12.622  19.014  0.00  0.00    +0.000 N 
ATOM     11  C   UNL     1      -0.433  13.997  18.886  0.00  0.00    +0.000 C 
ENDBRANCH   3  10
ENDBRANCH   1   6
BRANCH   2  12
ATOM     12  C   UNL     1       3.819   6.231  17.620  0.00  0.00    +0.000 A 
ATOM     13  C   UNL     1       5.053   6.800  17.245  0.00  0.00    +0.000 A 
ATOM     14  C   UNL     1       6.014   6.053  16.571  0.00  0.00    +0.000 A 
ATOM     15  C   UNL     1       5.771   4.717  16.279  0.00  0.00    +0.000 A 
ATOM     16  C   UNL     1       4.563   4.132  16.663  0.00  0.00    +0.000 A 
ATOM     17  C   UNL     1       3.566   4.876  17.329  0.00  0.00    +0.000 A 
BRANCH  17  18
ATOM     18  C   UNL     1       2.278   4.159  17.665  0.00  0.00    +0.000 C 
ATOM     19  F   UNL     1       1.139   4.816  17.320  0.00  0.00    +0.000 F 
ATOM     20  F   UNL     1       2.200   2.945  17.048  0.00  0.00    +0.000 F 
ATOM     21  F   UNL     1       2.165   3.901  18.998  0.00  0.00    +0.000 F 
ENDBRANCH  17  18
ENDBRANCH   2  12
BRANCH   2  22
ATOM     22  C   UNL     1       2.380   6.838  19.571  0.00  0.00    +0.000 C 
ATOM     23  N   UNL     1       2.035   6.566  20.643  0.00  0.00    +0.000 NA
ENDBRANCH   2  22
TORSDOF 5
ENDMDL
MODEL 6
REMARK VINA RESULT:      -7.0      0.213      1.016
REMARK  Name = 
REMARK  7 active torsions:
REMARK  status: ('A' for Active; 'I' for Inactive)
REMARK    1  A    between atoms: C_1  and  N_2
REMARK    2  A    between atoms: N_2  and  C_3
REMARK    3  A    between atoms: N_2  and  C_4
REMARK    4  A    between atoms: C_7  and  C_8
REMARK    5  A    between atoms: C_9  and  C_10
REMARK    6  A    between atoms: C_9  and  C_12
REMARK    7  A    between atoms: C_17  and  C_18
REMARK                            x       y       z     vdW  Elec       q    Type
REMARK                         _______ _______ _______ _____ _____    ______ ____
ROOT
ATOM      1  C   UNL     1       2.340   8.222  17.622  0.00  0.00    +0.000 C 
ATOM      2  C   UNL     1       2.699   7.143  18.348  0.00  0.00    +0.000 C 
ENDROOT
BRANCH   1   6
ATOM      3  C   UNL     1      -0.162  11.598  18.686  0.00  0.00    +0.000 A 
ATOM      4  C   UNL     1       1.237  11.680  18.738  0.00  0.00    +0.000 A 
ATOM      5  C   UNL     1       2.064  10.598  18.406  0.00  0.00    +0.000 A 
ATOM      6  C   UNL     1       1.520   9.368  18.039  0.00  0.00    +0.000 A 
ATOM      7  C   UNL     1       0.131   9.264  17.967  0.00  0.00    +0.000 A 
ATOM      8  C   UNL     1      -0.686  10.357  18.291  0.00  0.00    +0.000 A 
BRANCH   3  10
ATOM      9  C   UNL     1      -0.488  14.049  18.874  0.00  0.00    +0.000 C 
ATOM     10  N   UNL     1      -0.979  12.682  18.984  0.00  0.00    +0.000 N 
ATOM     11  C   UNL     1      -2.323  12.477  19.504  0.00  0.00    +0.000 C 
ENDBRANCH   3  10
ENDBRANCH   1   6
BRANCH   2  12
ATOM     12  C   UNL     1       3.643   6.198  17.718  0.00  0.00    +0.000 A 
ATOM     13  C   UNL     1       4.893   6.728  17.337  0.00  0.00    +0.000 A 
ATOM     14  C   UNL     1       5.829   5.947  16.665  0.00  0.00    +0.000 A 
ATOM     15  C   UNL     1       5.545   4.618  16.382  0.00  0.00    +0.000 A 
ATOM     16  C   UNL     1       4.321   4.072  16.772  0.00  0.00    +0.000 A 
ATOM     17  C   UNL     1       3.349   4.850  17.436  0.00  0.00    +0.000 A 
BRANCH  17  18
ATOM     18  C   UNL     1       2.039   4.175  17.779  0.00  0.00    +0.000 C 
ATOM     19  F   UNL     1       1.782   4.042  19.106  0.00  0.00    +0.000 F 
ATOM     20  F   UNL     1       0.973   4.852  17.265  0.00  0.00    +0.000 F 
ATOM     21  F   UNL     1       1.959   2.917  17.260  0.00  0.00    +0.000 F 
ENDBRANCH  17  18
ENDBRANCH   2  12
BRANCH   2  22
ATOM     22  C   UNL     1       2.296   6.908  19.700  0.00  0.00    +0.000 C 
ATOM     23  N   UNL     1       1.977   6.676  20.789  0.00  0.00    +0.000 NA
ENDBRANCH   2  22
TORSDOF 5
ENDMDL
MODEL 7
REMARK VINA RESULT:      -7.0      2.767      3.734
REMARK  Name = 
REMARK  7 active torsions:
REMARK  status: ('A' for Active; 'I' for Inactive)
REMARK    1  A    between atoms: C_1  and  N_2
REMARK    2  A    between atoms: N_2  and  C_3
REMARK    3  A    between atoms: N_2  and  C_4
REMARK    4  A    between atoms: C_7  and  C_8
REMARK    5  A    between atoms: C_9  and  C_10
REMARK    6  A    between atoms: C_9  and  C_12
REMARK    7  A    between atoms: C_17  and  C_18
REMARK                            x       y       z     vdW  Elec       q    Type
REMARK                         _______ _______ _______ _____ _____    ______ ____
ROOT
ATOM      1  C   UNL     1       3.653   6.955  17.527  0.00  0.00    +0.000 C 
ATOM      2  C   UNL     1       3.892   5.632  17.429  0.00  0.00    +0.000 C 
ENDROOT
BRANCH   1   6
ATOM      3  C   UNL     1       0.870   9.139  20.033  0.00  0.00    +0.000 A 
ATOM      4  C   UNL     1       1.537   7.999  20.504  0.00  0.00    +0.000 A 
ATOM      5  C   UNL     1       2.435   7.274  19.708  0.00  0.00    +0.000 A 
ATOM      6  C   UNL     1       2.676   7.642  18.385  0.00  0.00    +0.000 A 
ATOM      7  C   UNL     1       2.034   8.780  17.897  0.00  0.00    +0.000 A 
ATOM      8  C   UNL     1       1.147   9.504  18.706  0.00  0.00    +0.000 A 
BRANCH   3  10
ATOM      9  C   UNL     1      -0.271   9.478  22.209  0.00  0.00    +0.000 C 
ATOM     10  N   UNL     1       0.006   9.875  20.835  0.00  0.00    +0.000 N 
ATOM     11  C   UNL     1      -0.720  11.015  20.293  0.00  0.00    +0.000 C 
ENDBRANCH   3  10
ENDBRANCH   1   6
BRANCH   2  12
ATOM     12  C   UNL     1       5.028   5.219  16.579  0.00  0.00    +0.000 A 
ATOM     13  C   UNL     1       4.698   4.677  15.320  0.00  0.00    +0.000 A 
ATOM     14  C   UNL     1       5.683   4.184  14.469  0.00  0.00    +0.000 A 
ATOM     15  C   UNL     1       7.017   4.243  14.851  0.00  0.00    +0.000 A 
ATOM     16  C   UNL     1       7.363   4.797  16.084  0.00  0.00    +0.000 A 
ATOM     17  C   UNL     1       6.379   5.285  16.971  0.00  0.00    +0.000 A 
BRANCH  17  18
ATOM     18  C   UNL     1       6.854   5.827  18.300  0.00  0.00    +0.000 C 
ATOM     19  F   UNL     1       8.097   5.429  18.680  0.00  0.00    +0.000 F 
ATOM     20  F   UNL     1       6.889   7.190  18.306  0.00  0.00    +0.000 F 
ATOM     21  F   UNL     1       6.026   5.476  19.324  0.00  0.00    +0.000 F 
ENDBRANCH  17  18
ENDBRANCH   2  12
BRANCH   2  22
ATOM     22  C   UNL     1       3.180   4.625  18.154  0.00  0.00    +0.000 C 
ATOM     23  N   UNL     1       2.572   3.836  18.745  0.00  0.00    +0.000 NA
ENDBRANCH   2  22
TORSDOF 5
ENDMDL
MODEL 8
REMARK VINA RESULT:      -6.8      2.755      3.784
REMARK  Name = 
REMARK  7 active torsions:
REMARK  status: ('A' for Active; 'I' for Inactive)
REMARK    1  A    between atoms: C_1  and  N_2
REMARK    2  A    between atoms: N_2  and  C_3
REMARK    3  A    between atoms: N_2  and  C_4
REMARK    4  A    between atoms: C_7  and  C_8
REMARK    5  A    between atoms: C_9  and  C_10
REMARK    6  A    between atoms: C_9  and  C_12
REMARK    7  A    between atoms: C_17  and  C_18
REMARK                            x       y       z     vdW  Elec       q    Type
REMARK                         _______ _______ _______ _____ _____    ______ ____
ROOT
ATOM      1  C   UNL     1       3.772   7.050  17.478  0.00  0.00    +0.000 C 
ATOM      2  C   UNL     1       3.910   5.715  17.350  0.00  0.00    +0.000 C 
ENDROOT
BRANCH   1   6
ATOM      3  C   UNL     1       0.884   9.072  20.001  0.00  0.00    +0.000 A 
ATOM      4  C   UNL     1       1.147   9.511  18.695  0.00  0.00    +0.000 A 
ATOM      5  C   UNL     1       2.082   8.876  17.865  0.00  0.00    +0.000 A 
ATOM      6  C   UNL     1       2.825   7.790  18.326  0.00  0.00    +0.000 A 
ATOM      7  C   UNL     1       2.573   7.327  19.617  0.00  0.00    +0.000 A 
ATOM      8  C   UNL     1       1.627   7.963  20.434  0.00  0.00    +0.000 A 
BRANCH   3  10
ATOM      9  C   UNL     1      -0.440   9.114  22.097  0.00  0.00    +0.000 C 
ATOM     10  N   UNL     1      -0.068   9.683  20.809  0.00  0.00    +0.000 N 
ATOM     11  C   UNL     1      -0.787  10.862  20.347  0.00  0.00    +0.000 C 
ENDBRANCH   3  10
ENDBRANCH   1   6
BRANCH   2  12
ATOM     12  C   UNL     1       5.036   5.236  16.523  0.00  0.00    +0.000 A 
ATOM     13  C   UNL     1       4.706   4.763  15.236  0.00  0.00    +0.000 A 
ATOM     14  C   UNL     1       5.676   4.216  14.400  0.00  0.00    +0.000 A 
ATOM     15  C   UNL     1       6.997   4.152  14.825  0.00  0.00    +0.000 A 
ATOM     16  C   UNL     1       7.344   4.637  16.087  0.00  0.00    +0.000 A 
ATOM     17  C   UNL     1       6.374   5.177  16.958  0.00  0.00    +0.000 A 
BRANCH  17  18
ATOM     18  C   UNL     1       6.847   5.636  18.319  0.00  0.00    +0.000 C 
ATOM     19  F   UNL     1       6.027   5.323  19.357  0.00  0.00    +0.000 F 
ATOM     20  F   UNL     1       8.061   5.102  18.638  0.00  0.00    +0.000 F 
ATOM     21  F   UNL     1       7.014   6.987  18.377  0.00  0.00    +0.000 F 
ENDBRANCH  17  18
ENDBRANCH   2  12
BRANCH   2  22
ATOM     22  C   UNL     1       3.099   4.749  18.024  0.00  0.00    +0.000 C 
ATOM     23  N   UNL     1       2.410   3.993  18.568  0.00  0.00    +0.000 NA
ENDBRANCH   2  22
TORSDOF 5
ENDMDL
MODEL 9
REMARK VINA RESULT:      -6.8      1.228      1.628
REMARK  Name = 
REMARK  7 active torsions:
REMARK  status: ('A' for Active; 'I' for Inactive)
REMARK    1  A    between atoms: C_1  and  N_2
REMARK    2  A    between atoms: N_2  and  C_3
REMARK    3  A    between atoms: N_2  and  C_4
REMARK    4  A    between atoms: C_7  and  C_8
REMARK    5  A    between atoms: C_9  and  C_10
REMARK    6  A    between atoms: C_9  and  C_12
REMARK    7  A    between atoms: C_17  and  C_18
REMARK                            x       y       z     vdW  Elec       q    Type
REMARK                         _______ _______ _______ _____ _____    ______ ____
ROOT
ATOM      1  C   UNL     1       2.344   7.859  18.145  0.00  0.00    +0.000 C 
ATOM      2  C   UNL     1       2.765   6.659  18.595  0.00  0.00    +0.000 C 
ENDROOT
BRANCH   1   6
ATOM      3  C   UNL     1      -0.259  10.798  19.983  0.00  0.00    +0.000 A 
ATOM      4  C   UNL     1       0.545   9.948  20.757  0.00  0.00    +0.000 A 
ATOM      5  C   UNL     1       1.387   8.985  20.183  0.00  0.00    +0.000 A 
ATOM      6  C   UNL     1       1.433   8.809  18.801  0.00  0.00    +0.000 A 
ATOM      7  C   UNL     1       0.654   9.651  18.008  0.00  0.00    +0.000 A 
ATOM      8  C   UNL     1      -0.177  10.618  18.593  0.00  0.00    +0.000 A 
BRANCH   3  10
ATOM      9  C   UNL     1      -2.242  12.282  19.857  0.00  0.00    +0.000 C 
ATOM     10  N   UNL     1      -1.068  11.774  20.553  0.00  0.00    +0.000 N 
ATOM     11  C   UNL     1      -0.710  12.382  21.827  0.00  0.00    +0.000 C 
ENDBRANCH   3  10
ENDBRANCH   1   6
BRANCH   2  12
ATOM     12  C   UNL     1       3.788   5.964  17.788  0.00  0.00    +0.000 A 
ATOM     13  C   UNL     1       4.951   6.702  17.489  0.00  0.00    +0.000 A 
ATOM     14  C   UNL     1       5.947   6.175  16.671  0.00  0.00    +0.000 A 
ATOM     15  C   UNL     1       5.809   4.893  16.155  0.00  0.00    +0.000 A 
ATOM     16  C   UNL     1       4.674   4.141  16.459  0.00  0.00    +0.000 A 
ATOM     17  C   UNL     1       3.643   4.663  17.270  0.00  0.00    +0.000 A 
BRANCH  17  18
ATOM     18  C   UNL     1       2.437   3.782  17.505  0.00  0.00    +0.000 C 
ATOM     19  F   UNL     1       1.232   4.391  17.349  0.00  0.00    +0.000 F 
ATOM     20  F   UNL     1       2.419   2.713  16.658  0.00  0.00    +0.000 F 
ATOM     21  F   UNL     1       2.422   3.254  18.761  0.00  0.00    +0.000 F 
ENDBRANCH  17  18
ENDBRANCH   2  12
BRANCH   2  22
ATOM     22  C   UNL     1       2.351   6.068  19.830  0.00  0.00    +0.000 C 
ATOM     23  N   UNL     1       2.028   5.552  20.816  0.00  0.00    +0.000 NA
ENDBRANCH   2  22
TORSDOF 5
ENDMDL
