MODEL 1
REMARK VINA RESULT:      -7.5      0.000      0.000
REMARK  Name = 
REMARK  3 active torsions:
REMARK  status: ('A' for Active; 'I' for Inactive)
REMARK    1  A    between atoms: C_2  and  C_3
REMARK    2  A    between atoms: N_16  and  C_17
REMARK    3  A    between atoms: C_17  and  C_18
REMARK                            x       y       z     vdW  Elec       q    Type
REMARK                         _______ _______ _______ _____ _____    ______ ____
ROOT
ATOM      1  O   UNL     1       1.719   5.487  21.048  0.00  0.00    +0.000 OA
ATOM      2  C   UNL     1       2.118   6.194  20.130  0.00  0.00    +0.000 C 
ATOM      3  N   UNL     1       1.801   7.553  20.030  0.00  0.00    +0.000 N 
ATOM      4  C   UNL     1       2.167   8.439  18.913  0.00  0.00    +0.000 C 
ATOM      5  C   UNL     1       1.033   9.396  18.531  0.00  0.00    +0.000 C 
ATOM      6  N   UNL     1       0.468  10.140  19.668  0.00  0.00    +0.000 NA
ATOM      7  C   UNL     1       0.029   9.142  20.674  0.00  0.00    +0.000 C 
ATOM      8  C   UNL     1       1.153   8.208  21.163  0.00  0.00    +0.000 C 
ENDROOT
BRANCH   2   9
ATOM      9  C   UNL     1       2.954   5.560  19.060  0.00  0.00    +0.000 A 
ATOM     10  C   UNL     1       2.329   4.828  18.072  0.00  0.00    +0.000 A 
ATOM     11  C   UNL     1       3.132   4.269  17.083  0.00  0.00    +0.000 A 
ATOM     12  C   UNL     1       4.523   4.496  17.109  0.00  0.00    +0.000 A 
ATOM     13  C   UNL     1       5.374   3.968  16.139  0.00  0.00    +0.000 A 
ATOM     14  C   UNL     1       6.743   4.240  16.168  0.00  0.00    +0.000 A 
ATOM     15  C   UNL     1       7.262   5.052  17.172  0.00  0.00    +0.000 A 
ATOM     16  C   UNL     1       6.411   5.564  18.148  0.00  0.00    +0.000 A 
ATOM     17  C   UNL     1       5.057   5.277  18.144  0.00  0.00    +0.000 A 
ATOM     18  N   UNL     1       4.294   5.752  19.123  0.00  0.00    +0.000 NA
ENDBRANCH   2   9
BRANCH   6  19
ATOM     19  C   UNL     1       1.448  11.098  20.219  0.00  0.00    +0.000 C 
BRANCH  19  20
ATOM     20  C   UNL     1       1.268  12.537  19.759  0.00  0.00    +0.000 A 
ATOM     21  C   UNL     1       2.078  13.023  18.718  0.00  0.00    +0.000 A 
ATOM     22  F   UNL     1       2.902  12.189  18.064  0.00  0.00    +0.000 F 
ATOM     23  C   UNL     1       2.046  14.355  18.307  0.00  0.00    +0.000 A 
ATOM     24  C   UNL     1       1.156  15.237  18.902  0.00  0.00    +0.000 A 
ATOM     25  C   UNL     1       0.292  14.767  19.891  0.00  0.00    +0.000 A 
ATOM     26  C   UNL     1       0.352  13.436  20.325  0.00  0.00    +0.000 A 
ATOM     27 CL   UNL     1      -0.766  12.967  21.557  0.00  0.00    +0.000 Cl
ENDBRANCH  19  20
ENDBRANCH   6  19
TORSDOF 3
ENDMDL
MODEL 2
REMARK VINA RESULT:      -7.4      1.457      1.752
REMARK  Name = 
REMARK  3 active torsions:
REMARK  status: ('A' for Active; 'I' for Inactive)
REMARK    1  A    between atoms: C_2  and  C_3
REMARK    2  A    between atoms: N_16  and  C_17
REMARK    3  A    between atoms: C_17  and  C_18
REMARK                            x       y       z     vdW  Elec       q    Type
REMARK                         _______ _______ _______ _____ _____    ______ ____
ROOT
ATOM      1  O   UNL     1       1.714   5.463  21.144  0.00  0.00    +0.000 OA
ATOM      2  C   UNL     1       2.106   6.192  20.240  0.00  0.00    +0.000 C 
ATOM      3  N   UNL     1       1.758   7.544  20.154  0.00  0.00    +0.000 N 
ATOM      4  C   UNL     1       2.115   8.453  19.052  0.00  0.00    +0.000 C 
ATOM      5  C   UNL     1       0.962   9.389  18.671  0.00  0.00    +0.000 C 
ATOM      6  N   UNL     1       0.370  10.105  19.812  0.00  0.00    +0.000 NA
ATOM      7  C   UNL     1      -0.056   9.083  20.800  0.00  0.00    +0.000 C 
ATOM      8  C   UNL     1       1.085   8.169  21.289  0.00  0.00    +0.000 C 
ENDROOT
BRANCH   2   9
ATOM      9  C   UNL     1       2.966   5.591  19.169  0.00  0.00    +0.000 A 
ATOM     10  C   UNL     1       2.361   4.935  18.118  0.00  0.00    +0.000 A 
ATOM     11  C   UNL     1       3.188   4.406  17.132  0.00  0.00    +0.000 A 
ATOM     12  C   UNL     1       4.582   4.586  17.226  0.00  0.00    +0.000 A 
ATOM     13  C   UNL     1       5.457   4.085  16.263  0.00  0.00    +0.000 A 
ATOM     14  C   UNL     1       6.831   4.310  16.362  0.00  0.00    +0.000 A 
ATOM     15  C   UNL     1       7.332   5.049  17.430  0.00  0.00    +0.000 A 
ATOM     16  C   UNL     1       6.456   5.533  18.398  0.00  0.00    +0.000 A 
ATOM     17  C   UNL     1       5.096   5.291  18.324  0.00  0.00    +0.000 A 
ATOM     18  N   UNL     1       4.308   5.735  19.297  0.00  0.00    +0.000 NA
ENDBRANCH   2   9
BRANCH   6  19
ATOM     19  C   UNL     1       1.322  11.077  20.385  0.00  0.00    +0.000 C 
BRANCH  19  20
ATOM     20  C   UNL     1       0.901  12.534  20.267  0.00  0.00    +0.000 A 
ATOM     21  C   UNL     1       0.035  13.071  21.235  0.00  0.00    +0.000 A 
ATOM     22  F   UNL     1      -0.305  12.341  22.309  0.00  0.00    +0.000 F 
ATOM     23  C   UNL     1      -0.478  14.364  21.144  0.00  0.00    +0.000 A 
ATOM     24  C   UNL     1      -0.094  15.184  20.093  0.00  0.00    +0.000 A 
ATOM     25  C   UNL     1       0.817  14.702  19.152  0.00  0.00    +0.000 A 
ATOM     26  C   UNL     1       1.303  13.389  19.230  0.00  0.00    +0.000 A 
ATOM     27 CL   UNL     1       2.425  12.901  18.009  0.00  0.00    +0.000 Cl
ENDBRANCH  19  20
ENDBRANCH   6  19
TORSDOF 3
ENDMDL
MODEL 3
REMARK VINA RESULT:      -7.3      2.304      3.922
REMARK  Name = 
REMARK  3 active torsions:
REMARK  status: ('A' for Active; 'I' for Inactive)
REMARK    1  A    between atoms: C_2  and  C_3
REMARK    2  A    between atoms: N_16  and  C_17
REMARK    3  A    between atoms: C_17  and  C_18
REMARK                            x       y       z     vdW  Elec       q    Type
REMARK                         _______ _______ _______ _____ _____    ______ ____
ROOT
ATOM      1  O   UNL     1       5.397   3.503  18.966  0.00  0.00    +0.000 OA
ATOM      2  C   UNL     1       5.092   4.460  18.265  0.00  0.00    +0.000 C 
ATOM      3  N   UNL     1       4.111   5.387  18.635  0.00  0.00    +0.000 N 
ATOM      4  C   UNL     1       3.629   6.504  17.806  0.00  0.00    +0.000 C 
ATOM      5  C   UNL     1       2.111   6.691  17.903  0.00  0.00    +0.000 C 
ATOM      6  N   UNL     1       1.603   6.764  19.282  0.00  0.00    +0.000 NA
ATOM      7  C   UNL     1       2.051   5.535  19.982  0.00  0.00    +0.000 C 
ATOM      8  C   UNL     1       3.580   5.342  19.995  0.00  0.00    +0.000 C 
ENDROOT
BRANCH   2   9
ATOM      9  C   UNL     1       5.781   4.619  16.944  0.00  0.00    +0.000 A 
ATOM     10  C   UNL     1       6.979   5.300  16.893  0.00  0.00    +0.000 A 
ATOM     11  C   UNL     1       7.601   5.413  15.654  0.00  0.00    +0.000 A 
ATOM     12  C   UNL     1       7.012   4.809  14.526  0.00  0.00    +0.000 A 
ATOM     13  C   UNL     1       7.597   4.883  13.261  0.00  0.00    +0.000 A 
ATOM     14  C   UNL     1       7.010   4.244  12.167  0.00  0.00    +0.000 A 
ATOM     15  C   UNL     1       5.834   3.520  12.342  0.00  0.00    +0.000 A 
ATOM     16  C   UNL     1       5.246   3.464  13.602  0.00  0.00    +0.000 A 
ATOM     17  C   UNL     1       5.803   4.116  14.687  0.00  0.00    +0.000 A 
ATOM     18  N   UNL     1       5.180   4.070  15.859  0.00  0.00    +0.000 NA
ENDBRANCH   2   9
BRANCH   6  19
ATOM     19  C   UNL     1       2.066   7.994  19.957  0.00  0.00    +0.000 C 
BRANCH  19  20
ATOM     20  C   UNL     1       1.146   9.195  19.802  0.00  0.00    +0.000 A 
ATOM     21  C   UNL     1       1.407  10.123  18.778  0.00  0.00    +0.000 A 
ATOM     22  F   UNL     1       2.374   9.876  17.881  0.00  0.00    +0.000 F 
ATOM     23  C   UNL     1       0.674  11.300  18.632  0.00  0.00    +0.000 A 
ATOM     24  C   UNL     1      -0.385  11.562  19.489  0.00  0.00    +0.000 A 
ATOM     25  C   UNL     1      -0.711  10.627  20.472  0.00  0.00    +0.000 A 
ATOM     26  C   UNL     1       0.050   9.461  20.637  0.00  0.00    +0.000 A 
ATOM     27 CL   UNL     1      -0.446   8.378  21.888  0.00  0.00    +0.000 Cl
ENDBRANCH  19  20
ENDBRANCH   6  19
TORSDOF 3
ENDMDL
MODEL 4
REMARK VINA RESULT:      -7.3      2.772      4.355
REMARK  Name = 
REMARK  3 active torsions:
REMARK  status: ('A' for Active; 'I' for Inactive)
REMARK    1  A    between atoms: C_2  and  C_3
REMARK    2  A    between atoms: N_16  and  C_17
REMARK    3  A    between atoms: C_17  and  C_18
REMARK                            x       y       z     vdW  Elec       q    Type
REMARK                         _______ _______ _______ _____ _____    ______ ____
ROOT
ATOM      1  O   UNL     1       5.440   3.340  18.926  0.00  0.00    +0.000 OA
ATOM      2  C   UNL     1       5.130   4.323  18.264  0.00  0.00    +0.000 C 
ATOM      3  N   UNL     1       4.158   5.239  18.680  0.00  0.00    +0.000 N 
ATOM      4  C   UNL     1       3.671   6.388  17.898  0.00  0.00    +0.000 C 
ATOM      5  C   UNL     1       2.155   6.578  18.022  0.00  0.00    +0.000 C 
ATOM      6  N   UNL     1       1.665   6.602  19.410  0.00  0.00    +0.000 NA
ATOM      7  C   UNL     1       2.117   5.347  20.058  0.00  0.00    +0.000 C 
ATOM      8  C   UNL     1       3.645   5.147  20.044  0.00  0.00    +0.000 C 
ENDROOT
BRANCH   2   9
ATOM      9  C   UNL     1       5.803   4.527  16.941  0.00  0.00    +0.000 A 
ATOM     10  C   UNL     1       6.991   5.228  16.897  0.00  0.00    +0.000 A 
ATOM     11  C   UNL     1       7.598   5.383  15.655  0.00  0.00    +0.000 A 
ATOM     12  C   UNL     1       7.007   4.800  14.517  0.00  0.00    +0.000 A 
ATOM     13  C   UNL     1       7.577   4.916  13.249  0.00  0.00    +0.000 A 
ATOM     14  C   UNL     1       6.989   4.297  12.144  0.00  0.00    +0.000 A 
ATOM     15  C   UNL     1       5.826   3.551  12.311  0.00  0.00    +0.000 A 
ATOM     16  C   UNL     1       5.252   3.452  13.576  0.00  0.00    +0.000 A 
ATOM     17  C   UNL     1       5.811   4.085  14.672  0.00  0.00    +0.000 A 
ATOM     18  N   UNL     1       5.200   3.998  15.848  0.00  0.00    +0.000 NA
ENDBRANCH   2   9
BRANCH   6  19
ATOM     19  C   UNL     1       2.142   7.805  20.122  0.00  0.00    +0.000 C 
BRANCH  19  20
ATOM     20  C   UNL     1       1.175   8.979  20.116  0.00  0.00    +0.000 A 
ATOM     21  C   UNL     1       0.329   9.167  21.223  0.00  0.00    +0.000 A 
ATOM     22  F   UNL     1       0.469   8.397  22.313  0.00  0.00    +0.000 F 
ATOM     23  C   UNL     1      -0.653  10.157  21.253  0.00  0.00    +0.000 A 
ATOM     24  C   UNL     1      -0.785  11.028  20.181  0.00  0.00    +0.000 A 
ATOM     25  C   UNL     1       0.085  10.908  19.097  0.00  0.00    +0.000 A 
ATOM     26  C   UNL     1       1.048   9.890  19.057  0.00  0.00    +0.000 A 
ATOM     27 CL   UNL     1       2.069   9.839  17.664  0.00  0.00    +0.000 Cl
ENDBRANCH  19  20
ENDBRANCH   6  19
TORSDOF 3
ENDMDL
MODEL 5
REMARK VINA RESULT:      -7.1      2.819      3.964
REMARK  Name = 
REMARK  3 active torsions:
REMARK  status: ('A' for Active; 'I' for Inactive)
REMARK    1  A    between atoms: C_2  and  C_3
REMARK    2  A    between atoms: N_16  and  C_17
REMARK    3  A    between atoms: C_17  and  C_18
REMARK                            x       y       z     vdW  Elec       q    Type
REMARK                         _______ _______ _______ _____ _____    ______ ____
ROOT
ATOM      1  O   UNL     1       2.958   8.532  17.017  0.00  0.00    +0.000 OA
ATOM      2  C   UNL     1       2.565   8.021  18.059  0.00  0.00    +0.000 C 
ATOM      3  N   UNL     1       1.782   8.710  18.992  0.00  0.00    +0.000 N 
ATOM      4  C   UNL     1       1.353   8.192  20.301  0.00  0.00    +0.000 C 
ATOM      5  C   UNL     1       1.431   9.254  21.404  0.00  0.00    +0.000 C 
ATOM      6  N   UNL     1       0.766  10.522  21.062  0.00  0.00    +0.000 NA
ATOM      7  C   UNL     1       1.362  11.004  19.792  0.00  0.00    +0.000 C 
ATOM      8  C   UNL     1       1.232  10.010  18.621  0.00  0.00    +0.000 C 
ENDROOT
BRANCH   2   9
ATOM      9  C   UNL     1       2.971   6.608  18.352  0.00  0.00    +0.000 A 
ATOM     10  C   UNL     1       4.223   6.369  18.879  0.00  0.00    +0.000 A 
ATOM     11  C   UNL     1       4.561   5.049  19.157  0.00  0.00    +0.000 A 
ATOM     12  C   UNL     1       3.618   4.029  18.924  0.00  0.00    +0.000 A 
ATOM     13  C   UNL     1       3.899   2.689  19.192  0.00  0.00    +0.000 A 
ATOM     14  C   UNL     1       2.933   1.703  18.987  0.00  0.00    +0.000 A 
ATOM     15  C   UNL     1       1.673   2.061  18.517  0.00  0.00    +0.000 A 
ATOM     16  C   UNL     1       1.402   3.398  18.235  0.00  0.00    +0.000 A 
ATOM     17  C   UNL     1       2.362   4.379  18.408  0.00  0.00    +0.000 A 
ATOM     18  N   UNL     1       2.069   5.633  18.082  0.00  0.00    +0.000 NA
ENDBRANCH   2   9
BRANCH   6  19
ATOM     19  C   UNL     1      -0.697  10.348  20.965  0.00  0.00    +0.000 C 
BRANCH  19  20
ATOM     20  C   UNL     1      -1.517  11.550  21.409  0.00  0.00    +0.000 A 
ATOM     21  C   UNL     1      -1.784  11.720  22.779  0.00  0.00    +0.000 A 
ATOM     22  F   UNL     1      -1.215  10.904  23.680  0.00  0.00    +0.000 F 
ATOM     23  C   UNL     1      -2.610  12.737  23.258  0.00  0.00    +0.000 A 
ATOM     24  C   UNL     1      -3.160  13.652  22.372  0.00  0.00    +0.000 A 
ATOM     25  C   UNL     1      -2.857  13.548  21.013  0.00  0.00    +0.000 A 
ATOM     26  C   UNL     1      -2.054  12.504  20.533  0.00  0.00    +0.000 A 
ATOM     27 CL   UNL     1      -1.749  12.477  18.832  0.00  0.00    +0.000 Cl
ENDBRANCH  19  20
ENDBRANCH   6  19
TORSDOF 3
ENDMDL
MODEL 6
REMARK VINA RESULT:      -7.0      3.357      8.765
REMARK  Name = 
REMARK  3 active torsions:
REMARK  status: ('A' for Active; 'I' for Inactive)
REMARK    1  A    between atoms: C_2  and  C_3
REMARK    2  A    between atoms: N_16  and  C_17
REMARK    3  A    between atoms: C_17  and  C_18
REMARK                            x       y       z     vdW  Elec       q    Type
REMARK                         _______ _______ _______ _____ _____    ______ ____
ROOT
ATOM      1  O   UNL     1       0.957   9.306  21.977  0.00  0.00    +0.000 OA
ATOM      2  C   UNL     1       1.021   9.447  20.761  0.00  0.00    +0.000 C 
ATOM      3  N   UNL     1       1.518   8.455  19.910  0.00  0.00    +0.000 N 
ATOM      4  C   UNL     1       1.710   8.589  18.456  0.00  0.00    +0.000 C 
ATOM      5  C   UNL     1       3.014   7.940  17.977  0.00  0.00    +0.000 C 
ATOM      6  N   UNL     1       3.198   6.554  18.436  0.00  0.00    +0.000 NA
ATOM      7  C   UNL     1       3.100   6.564  19.917  0.00  0.00    +0.000 C 
ATOM      8  C   UNL     1       1.769   7.124  20.455  0.00  0.00    +0.000 C 
ENDROOT
BRANCH   2   9
ATOM      9  C   UNL     1       0.577  10.754  20.176  0.00  0.00    +0.000 A 
ATOM     10  C   UNL     1      -0.713  10.868  19.703  0.00  0.00    +0.000 A 
ATOM     11  C   UNL     1      -1.098  12.100  19.183  0.00  0.00    +0.000 A 
ATOM     12  C   UNL     1      -0.185  13.172  19.190  0.00  0.00    +0.000 A 
ATOM     13  C   UNL     1      -0.520  14.430  18.691  0.00  0.00    +0.000 A 
ATOM     14  C   UNL     1       0.393  15.485  18.744  0.00  0.00    +0.000 A 
ATOM     15  C   UNL     1       1.649  15.280  19.309  0.00  0.00    +0.000 A 
ATOM     16  C   UNL     1       1.985  14.018  19.791  0.00  0.00    +0.000 A 
ATOM     17  C   UNL     1       1.098  12.959  19.717  0.00  0.00    +0.000 A 
ATOM     18  N   UNL     1       1.482  11.763  20.150  0.00  0.00    +0.000 NA
ENDBRANCH   2   9
BRANCH   6  19
ATOM     19  C   UNL     1       2.208   5.651  17.815  0.00  0.00    +0.000 C 
BRANCH  19  20
ATOM     20  C   UNL     1       2.475   4.168  18.023  0.00  0.00    +0.000 A 
ATOM     21  C   UNL     1       1.658   3.450  18.915  0.00  0.00    +0.000 A 
ATOM     22  F   UNL     1       0.588   4.042  19.469  0.00  0.00    +0.000 F 
ATOM     23  C   UNL     1       1.898   2.115  19.238  0.00  0.00    +0.000 A 
ATOM     24  C   UNL     1       2.946   1.438  18.632  0.00  0.00    +0.000 A 
ATOM     25  C   UNL     1       3.733   2.105  17.692  0.00  0.00    +0.000 A 
ATOM     26  C   UNL     1       3.509   3.457  17.396  0.00  0.00    +0.000 A 
ATOM     27 CL   UNL     1       4.546   4.178  16.217  0.00  0.00    +0.000 Cl
ENDBRANCH  19  20
ENDBRANCH   6  19
TORSDOF 3
ENDMDL
MODEL 7
REMARK VINA RESULT:      -7.0      2.933      4.258
REMARK  Name = 
REMARK  3 active torsions:
REMARK  status: ('A' for Active; 'I' for Inactive)
REMARK    1  A    between atoms: C_2  and  C_3
REMARK    2  A    between atoms: N_16  and  C_17
REMARK    3  A    between atoms: C_17  and  C_18
REMARK                            x       y       z     vdW  Elec       q    Type
REMARK                         _______ _______ _______ _____ _____    ______ ____
ROOT
ATOM      1  O   UNL     1       2.615   8.566  17.109  0.00  0.00    +0.000 OA
ATOM      2  C   UNL     1       2.253   8.216  18.226  0.00  0.00    +0.000 C 
ATOM      3  N   UNL     1       1.525   9.050  19.082  0.00  0.00    +0.000 N 
ATOM      4  C   UNL     1       1.137   8.731  20.466  0.00  0.00    +0.000 C 
ATOM      5  C   UNL     1       1.285   9.934  21.405  0.00  0.00    +0.000 C 
ATOM      6  N   UNL     1       0.637  11.160  20.915  0.00  0.00    +0.000 NA
ATOM      7  C   UNL     1       1.191  11.444  19.568  0.00  0.00    +0.000 C 
ATOM      8  C   UNL     1       0.990  10.302  18.553  0.00  0.00    +0.000 C 
ENDROOT
BRANCH   2   9
ATOM      9  C   UNL     1       2.638   6.847  18.699  0.00  0.00    +0.000 A 
ATOM     10  C   UNL     1       3.922   6.398  18.469  0.00  0.00    +0.000 A 
ATOM     11  C   UNL     1       4.251   5.130  18.937  0.00  0.00    +0.000 A 
ATOM     12  C   UNL     1       3.290   4.380  19.643  0.00  0.00    +0.000 A 
ATOM     13  C   UNL     1       3.568   3.108  20.142  0.00  0.00    +0.000 A 
ATOM     14  C   UNL     1       2.609   2.403  20.871  0.00  0.00    +0.000 A 
ATOM     15  C   UNL     1       1.364   2.979  21.107  0.00  0.00    +0.000 A 
ATOM     16  C   UNL     1       1.085   4.242  20.593  0.00  0.00    +0.000 A 
ATOM     17  C   UNL     1       2.019   4.938  19.846  0.00  0.00    +0.000 A 
ATOM     18  N   UNL     1       1.689   6.120  19.338  0.00  0.00    +0.000 NA
ENDBRANCH   2   9
BRANCH   6  19
ATOM     19  C   UNL     1      -0.833  11.017  20.898  0.00  0.00    +0.000 C 
BRANCH  19  20
ATOM     20  C   UNL     1      -1.592  12.088  21.666  0.00  0.00    +0.000 A 
ATOM     21  C   UNL     1      -2.068  11.790  22.955  0.00  0.00    +0.000 A 
ATOM     22  F   UNL     1      -1.743  10.625  23.537  0.00  0.00    +0.000 F 
ATOM     23  C   UNL     1      -2.857  12.679  23.684  0.00  0.00    +0.000 A 
ATOM     24  C   UNL     1      -3.155  13.927  23.156  0.00  0.00    +0.000 A 
ATOM     25  C   UNL     1      -2.639  14.277  21.907  0.00  0.00    +0.000 A 
ATOM     26  C   UNL     1      -1.875  13.367  21.164  0.00  0.00    +0.000 A 
ATOM     27 CL   UNL     1      -1.292  13.910  19.630  0.00  0.00    +0.000 Cl
ENDBRANCH  19  20
ENDBRANCH   6  19
TORSDOF 3
ENDMDL
MODEL 8
REMARK VINA RESULT:      -7.0      2.912      4.124
REMARK  Name = 
REMARK  3 active torsions:
REMARK  status: ('A' for Active; 'I' for Inactive)
REMARK    1  A    between atoms: C_2  and  C_3
REMARK    2  A    between atoms: N_16  and  C_17
REMARK    3  A    between atoms: C_17  and  C_18
REMARK                            x       y       z     vdW  Elec       q    Type
REMARK                         _______ _______ _______ _____ _____    ______ ____
ROOT
ATOM      1  O   UNL     1       2.623   8.643  17.483  0.00  0.00    +0.000 OA
ATOM      2  C   UNL     1       2.065   8.307  18.520  0.00  0.00    +0.000 C 
ATOM      3  N   UNL     1       1.356   9.207  19.324  0.00  0.00    +0.000 N 
ATOM      4  C   UNL     1       0.741   8.894  20.624  0.00  0.00    +0.000 C 
ATOM      5  C   UNL     1       0.932  10.020  21.646  0.00  0.00    +0.000 C 
ATOM      6  N   UNL     1       0.541  11.350  21.152  0.00  0.00    +0.000 NA
ATOM      7  C   UNL     1       1.310  11.601  19.908  0.00  0.00    +0.000 C 
ATOM      8  C   UNL     1       1.085  10.545  18.808  0.00  0.00    +0.000 C 
ENDROOT
BRANCH   2   9
ATOM      9  C   UNL     1       2.179   6.877  18.954  0.00  0.00    +0.000 A 
ATOM     10  C   UNL     1       2.122   6.581  20.300  0.00  0.00    +0.000 A 
ATOM     11  C   UNL     1       2.212   5.243  20.667  0.00  0.00    +0.000 A 
ATOM     12  C   UNL     1       2.323   4.256  19.668  0.00  0.00    +0.000 A 
ATOM     13  C   UNL     1       2.407   2.899  19.978  0.00  0.00    +0.000 A 
ATOM     14  C   UNL     1       2.480   1.940  18.966  0.00  0.00    +0.000 A 
ATOM     15  C   UNL     1       2.459   2.342  17.633  0.00  0.00    +0.000 A 
ATOM     16  C   UNL     1       2.391   3.699  17.329  0.00  0.00    +0.000 A 
ATOM     17  C   UNL     1       2.348   4.659  18.324  0.00  0.00    +0.000 A 
ATOM     18  N   UNL     1       2.329   5.943  17.983  0.00  0.00    +0.000 NA
ENDBRANCH   2   9
BRANCH   6  19
ATOM     19  C   UNL     1      -0.917  11.433  20.937  0.00  0.00    +0.000 C 
BRANCH  19  20
ATOM     20  C   UNL     1      -1.630  12.488  21.768  0.00  0.00    +0.000 A 
ATOM     21  C   UNL     1      -2.195  12.114  23.000  0.00  0.00    +0.000 A 
ATOM     22  F   UNL     1      -1.992  10.878  23.483  0.00  0.00    +0.000 F 
ATOM     23  C   UNL     1      -2.951  12.994  23.774  0.00  0.00    +0.000 A 
ATOM     24  C   UNL     1      -3.123  14.305  23.354  0.00  0.00    +0.000 A 
ATOM     25  C   UNL     1      -2.518  14.724  22.168  0.00  0.00    +0.000 A 
ATOM     26  C   UNL     1      -1.788  13.826  21.377  0.00  0.00    +0.000 A 
ATOM     27 CL   UNL     1      -1.085  14.457  19.930  0.00  0.00    +0.000 Cl
ENDBRANCH  19  20
ENDBRANCH   6  19
TORSDOF 3
ENDMDL
MODEL 9
REMARK VINA RESULT:      -7.0      1.314      1.401
REMARK  Name = 
REMARK  3 active torsions:
REMARK  status: ('A' for Active; 'I' for Inactive)
REMARK    1  A    between atoms: C_2  and  C_3
REMARK    2  A    between atoms: N_16  and  C_17
REMARK    3  A    between atoms: C_17  and  C_18
REMARK                            x       y       z     vdW  Elec       q    Type
REMARK                         _______ _______ _______ _____ _____    ______ ____
ROOT
ATOM      1  O   UNL     1       1.898   5.991  20.856  0.00  0.00    +0.000 OA
ATOM      2  C   UNL     1       2.223   6.558  19.820  0.00  0.00    +0.000 C 
ATOM      3  N   UNL     1       1.876   7.884  19.541  0.00  0.00    +0.000 N 
ATOM      4  C   UNL     1       2.153   8.597  18.283  0.00  0.00    +0.000 C 
ATOM      5  C   UNL     1       0.978   9.477  17.840  0.00  0.00    +0.000 C 
ATOM      6  N   UNL     1       0.475  10.377  18.890  0.00  0.00    +0.000 NA
ATOM      7  C   UNL     1       0.120   9.535  20.059  0.00  0.00    +0.000 C 
ATOM      8  C   UNL     1       1.291   8.694  20.605  0.00  0.00    +0.000 C 
ENDROOT
BRANCH   2   9
ATOM      9  C   UNL     1       2.999   5.779  18.801  0.00  0.00    +0.000 A 
ATOM     10  C   UNL     1       2.363   4.773  18.103  0.00  0.00    +0.000 A 
ATOM     11  C   UNL     1       3.107   4.083  17.153  0.00  0.00    +0.000 A 
ATOM     12  C   UNL     1       4.447   4.452  16.919  0.00  0.00    +0.000 A 
ATOM     13  C   UNL     1       5.237   3.801  15.971  0.00  0.00    +0.000 A 
ATOM     14  C   UNL     1       6.550   4.211  15.734  0.00  0.00    +0.000 A 
ATOM     15  C   UNL     1       7.074   5.287  16.446  0.00  0.00    +0.000 A 
ATOM     16  C   UNL     1       6.287   5.924  17.402  0.00  0.00    +0.000 A 
ATOM     17  C   UNL     1       4.994   5.506  17.665  0.00  0.00    +0.000 A 
ATOM     18  N   UNL     1       4.299   6.117  18.619  0.00  0.00    +0.000 NA
ENDBRANCH   2   9
BRANCH   6  19
ATOM     19  C   UNL     1       1.471  11.414  19.227  0.00  0.00    +0.000 C 
BRANCH  19  20
ATOM     20  C   UNL     1       0.887  12.728  19.724  0.00  0.00    +0.000 A 
ATOM     21  C   UNL     1       1.585  13.452  20.706  0.00  0.00    +0.000 A 
ATOM     22  F   UNL     1       2.803  13.048  21.098  0.00  0.00    +0.000 F 
ATOM     23  C   UNL     1       1.070  14.610  21.287  0.00  0.00    +0.000 A 
ATOM     24  C   UNL     1      -0.152  15.109  20.860  0.00  0.00    +0.000 A 
ATOM     25  C   UNL     1      -0.836  14.449  19.838  0.00  0.00    +0.000 A 
ATOM     26  C   UNL     1      -0.330  13.266  19.282  0.00  0.00    +0.000 A 
ATOM     27 CL   UNL     1      -1.264  12.536  18.024  0.00  0.00    +0.000 Cl
ENDBRANCH  19  20
ENDBRANCH   6  19
TORSDOF 3
ENDMDL
