MODEL 1
REMARK VINA RESULT:      -7.8      0.000      0.000
REMARK  Name = 
REMARK  4 active torsions:
REMARK  status: ('A' for Active; 'I' for Inactive)
REMARK    1  A    between atoms: C_1  and  C_2
REMARK    2  A    between atoms: P_4  and  C_5
REMARK    3  A    between atoms: P_4  and  C_12
REMARK    4  A    between atoms: C_5  and  C_6
REMARK                            x       y       z     vdW  Elec       q    Type
REMARK                         _______ _______ _______ _____ _____    ______ ____
ROOT
ATOM      1  C   UNL     1       1.936   2.689  21.616  0.00  0.00    +0.000 C 
ATOM      2  C   UNL     1       2.069   3.433  20.331  0.00  0.00    +0.000 C 
ATOM      3  C   UNL     1       3.091   4.253  20.028  0.00  0.00    +0.000 C 
ATOM      4  P   UNL     1       2.875   5.056  18.498  0.00  0.00    +0.000 P 
ATOM      5  C   UNL     1       1.531   3.962  18.003  0.00  0.00    +0.000 C 
ATOM      6  C   UNL     1       0.973   3.352  19.299  0.00  0.00    +0.000 C 
ENDROOT
BRANCH   4   7
ATOM      7  C   UNL     1       2.388   6.692  18.814  0.00  0.00    +0.000 A 
ATOM      8  C   UNL     1       2.011   7.103  20.098  0.00  0.00    +0.000 A 
ATOM      9  C   UNL     1       1.558   8.401  20.335  0.00  0.00    +0.000 A 
ATOM     10  C   UNL     1       1.492   9.316  19.289  0.00  0.00    +0.000 A 
ATOM     11  C   UNL     1       1.886   8.933  18.009  0.00  0.00    +0.000 A 
ATOM     12  C   UNL     1       2.334   7.630  17.775  0.00  0.00    +0.000 A 
ENDBRANCH   4   7
BRANCH   4  13
ATOM     13  C   UNL     1       4.292   4.755  17.483  0.00  0.00    +0.000 C 
BRANCH  13  14
ATOM     14  C   UNL     1       5.556   5.510  17.811  0.00  0.00    +0.000 A 
ATOM     15  C   UNL     1       5.923   6.636  17.062  0.00  0.00    +0.000 A 
ATOM     16  C   UNL     1       7.088   7.340  17.365  0.00  0.00    +0.000 A 
ATOM     17  C   UNL     1       7.904   6.923  18.414  0.00  0.00    +0.000 A 
ATOM     18  C   UNL     1       7.560   5.792  19.151  0.00  0.00    +0.000 A 
ATOM     19  C   UNL     1       6.396   5.084  18.848  0.00  0.00    +0.000 A 
ENDBRANCH  13  14
ENDBRANCH   4  13
TORSDOF 3
ENDMDL
MODEL 2
REMARK VINA RESULT:      -7.8      0.193      1.123
REMARK  Name = 
REMARK  4 active torsions:
REMARK  status: ('A' for Active; 'I' for Inactive)
REMARK    1  A    between atoms: C_1  and  C_2
REMARK    2  A    between atoms: P_4  and  C_5
REMARK    3  A    between atoms: P_4  and  C_12
REMARK    4  A    between atoms: C_5  and  C_6
REMARK                            x       y       z     vdW  Elec       q    Type
REMARK                         _______ _______ _______ _____ _____    ______ ____
ROOT
ATOM      1  C   UNL     1       2.301   2.696  21.614  0.00  0.00    +0.000 C 
ATOM      2  C   UNL     1       2.340   3.460  20.334  0.00  0.00    +0.000 C 
ATOM      3  C   UNL     1       3.306   4.332  19.995  0.00  0.00    +0.000 C 
ATOM      4  P   UNL     1       2.982   5.139  18.487  0.00  0.00    +0.000 P 
ATOM      5  C   UNL     1       1.672   3.987  18.039  0.00  0.00    +0.000 C 
ATOM      6  C   UNL     1       1.203   3.336  19.351  0.00  0.00    +0.000 C 
ENDROOT
BRANCH   4   7
ATOM      7  C   UNL     1       2.431   6.747  18.845  0.00  0.00    +0.000 A 
ATOM      8  C   UNL     1       1.987   7.093  20.127  0.00  0.00    +0.000 A 
ATOM      9  C   UNL     1       1.485   8.367  20.395  0.00  0.00    +0.000 A 
ATOM     10  C   UNL     1       1.435   9.322  19.384  0.00  0.00    +0.000 A 
ATOM     11  C   UNL     1       1.894   9.003  18.109  0.00  0.00    +0.000 A 
ATOM     12  C   UNL     1       2.392   7.724  17.843  0.00  0.00    +0.000 A 
ENDBRANCH   4   7
BRANCH   4  13
ATOM     13  C   UNL     1       4.364   4.919  17.406  0.00  0.00    +0.000 C 
BRANCH  13  14
ATOM     14  C   UNL     1       5.627   5.678  17.727  0.00  0.00    +0.000 A 
ATOM     15  C   UNL     1       6.481   5.234  18.746  0.00  0.00    +0.000 A 
ATOM     16  C   UNL     1       7.653   5.931  19.043  0.00  0.00    +0.000 A 
ATOM     17  C   UNL     1       7.981   7.082  18.330  0.00  0.00    +0.000 A 
ATOM     18  C   UNL     1       7.127   7.544  17.331  0.00  0.00    +0.000 A 
ATOM     19  C   UNL     1       5.953   6.851  17.034  0.00  0.00    +0.000 A 
ENDBRANCH  13  14
ENDBRANCH   4  13
TORSDOF 3
ENDMDL
MODEL 3
REMARK VINA RESULT:      -7.7      0.171      1.117
REMARK  Name = 
REMARK  4 active torsions:
REMARK  status: ('A' for Active; 'I' for Inactive)
REMARK    1  A    between atoms: C_1  and  C_2
REMARK    2  A    between atoms: P_4  and  C_5
REMARK    3  A    between atoms: P_4  and  C_12
REMARK    4  A    between atoms: C_5  and  C_6
REMARK                            x       y       z     vdW  Elec       q    Type
REMARK                         _______ _______ _______ _____ _____    ______ ____
ROOT
ATOM      1  C   UNL     1       2.164   2.670  21.511  0.00  0.00    +0.000 C 
ATOM      2  C   UNL     1       2.258   3.416  20.224  0.00  0.00    +0.000 C 
ATOM      3  C   UNL     1       3.237   4.286  19.917  0.00  0.00    +0.000 C 
ATOM      4  P   UNL     1       2.979   5.071  18.384  0.00  0.00    +0.000 P 
ATOM      5  C   UNL     1       1.691   3.910  17.895  0.00  0.00    +0.000 C 
ATOM      6  C   UNL     1       1.166   3.277  19.194  0.00  0.00    +0.000 C 
ENDROOT
BRANCH   4   7
ATOM      7  C   UNL     1       2.410   6.682  18.695  0.00  0.00    +0.000 A 
ATOM      8  C   UNL     1       2.380   7.649  17.684  0.00  0.00    +0.000 A 
ATOM      9  C   UNL     1       1.984   8.960  17.952  0.00  0.00    +0.000 A 
ATOM     10  C   UNL     1       1.595   9.319  19.239  0.00  0.00    +0.000 A 
ATOM     11  C   UNL     1       1.596   8.365  20.253  0.00  0.00    +0.000 A 
ATOM     12  C   UNL     1       1.998   7.054  19.981  0.00  0.00    +0.000 A 
ENDBRANCH   4   7
BRANCH   4  13
ATOM     13  C   UNL     1       4.408   4.839  17.369  0.00  0.00    +0.000 C 
BRANCH  13  14
ATOM     14  C   UNL     1       5.651   5.612  17.729  0.00  0.00    +0.000 A 
ATOM     15  C   UNL     1       5.964   6.804  17.061  0.00  0.00    +0.000 A 
ATOM     16  C   UNL     1       7.110   7.525  17.395  0.00  0.00    +0.000 A 
ATOM     17  C   UNL     1       7.961   7.060  18.395  0.00  0.00    +0.000 A 
ATOM     18  C   UNL     1       7.672   5.865  19.050  0.00  0.00    +0.000 A 
ATOM     19  C   UNL     1       6.527   5.141  18.716  0.00  0.00    +0.000 A 
ENDBRANCH  13  14
ENDBRANCH   4  13
TORSDOF 3
ENDMDL
MODEL 4
REMARK VINA RESULT:      -7.7      0.100      1.566
REMARK  Name = 
REMARK  4 active torsions:
REMARK  status: ('A' for Active; 'I' for Inactive)
REMARK    1  A    between atoms: C_1  and  C_2
REMARK    2  A    between atoms: P_4  and  C_5
REMARK    3  A    between atoms: P_4  and  C_12
REMARK    4  A    between atoms: C_5  and  C_6
REMARK                            x       y       z     vdW  Elec       q    Type
REMARK                         _______ _______ _______ _____ _____    ______ ____
ROOT
ATOM      1  C   UNL     1       2.039   2.786  21.734  0.00  0.00    +0.000 C 
ATOM      2  C   UNL     1       2.149   3.476  20.417  0.00  0.00    +0.000 C 
ATOM      3  C   UNL     1       3.147   4.309  20.074  0.00  0.00    +0.000 C 
ATOM      4  P   UNL     1       2.905   5.037  18.511  0.00  0.00    +0.000 P 
ATOM      5  C   UNL     1       1.591   3.887  18.070  0.00  0.00    +0.000 C 
ATOM      6  C   UNL     1       1.053   3.319  19.393  0.00  0.00    +0.000 C 
ENDROOT
BRANCH   4   7
ATOM      7  C   UNL     1       2.374   6.672  18.756  0.00  0.00    +0.000 A 
ATOM      8  C   UNL     1       2.388   7.604  17.711  0.00  0.00    +0.000 A 
ATOM      9  C   UNL     1       2.023   8.933  17.927  0.00  0.00    +0.000 A 
ATOM     10  C   UNL     1       1.621   9.347  19.194  0.00  0.00    +0.000 A 
ATOM     11  C   UNL     1       1.577   8.428  20.240  0.00  0.00    +0.000 A 
ATOM     12  C   UNL     1       1.949   7.099  20.020  0.00  0.00    +0.000 A 
ENDBRANCH   4   7
BRANCH   4  13
ATOM     13  C   UNL     1       4.327   4.730  17.505  0.00  0.00    +0.000 C 
BRANCH  13  14
ATOM     14  C   UNL     1       5.578   5.516  17.811  0.00  0.00    +0.000 A 
ATOM     15  C   UNL     1       6.427   5.120  18.853  0.00  0.00    +0.000 A 
ATOM     16  C   UNL     1       7.588   5.841  19.136  0.00  0.00    +0.000 A 
ATOM     17  C   UNL     1       7.909   6.969  18.385  0.00  0.00    +0.000 A 
ATOM     18  C   UNL     1       7.061   7.384  17.360  0.00  0.00    +0.000 A 
ATOM     19  C   UNL     1       5.898   6.666  17.078  0.00  0.00    +0.000 A 
ENDBRANCH  13  14
ENDBRANCH   4  13
TORSDOF 3
ENDMDL
MODEL 5
REMARK VINA RESULT:      -7.6      1.302      1.928
REMARK  Name = 
REMARK  4 active torsions:
REMARK  status: ('A' for Active; 'I' for Inactive)
REMARK    1  A    between atoms: C_1  and  C_2
REMARK    2  A    between atoms: P_4  and  C_5
REMARK    3  A    between atoms: P_4  and  C_12
REMARK    4  A    between atoms: C_5  and  C_6
REMARK                            x       y       z     vdW  Elec       q    Type
REMARK                         _______ _______ _______ _____ _____    ______ ____
ROOT
ATOM      1  C   UNL     1       1.112   2.911  21.256  0.00  0.00    +0.000 C 
ATOM      2  C   UNL     1       1.771   3.781  20.240  0.00  0.00    +0.000 C 
ATOM      3  C   UNL     1       2.684   4.727  20.524  0.00  0.00    +0.000 C 
ATOM      4  P   UNL     1       3.160   5.641  19.120  0.00  0.00    +0.000 P 
ATOM      5  C   UNL     1       2.409   4.466  17.979  0.00  0.00    +0.000 C 
ATOM      6  C   UNL     1       1.364   3.684  18.792  0.00  0.00    +0.000 C 
ENDROOT
BRANCH   4   7
ATOM      7  C   UNL     1       2.363   7.182  19.188  0.00  0.00    +0.000 A 
ATOM      8  C   UNL     1       1.789   7.651  20.376  0.00  0.00    +0.000 A 
ATOM      9  C   UNL     1       1.093   8.860  20.411  0.00  0.00    +0.000 A 
ATOM     10  C   UNL     1       0.976   9.629  19.257  0.00  0.00    +0.000 A 
ATOM     11  C   UNL     1       1.561   9.190  18.072  0.00  0.00    +0.000 A 
ATOM     12  C   UNL     1       2.252   7.976  18.040  0.00  0.00    +0.000 A 
ENDBRANCH   4   7
BRANCH   4  13
ATOM     13  C   UNL     1       4.920   5.583  18.963  0.00  0.00    +0.000 C 
BRANCH  13  14
ATOM     14  C   UNL     1       5.489   5.381  17.581  0.00  0.00    +0.000 A 
ATOM     15  C   UNL     1       6.600   4.548  17.386  0.00  0.00    +0.000 A 
ATOM     16  C   UNL     1       7.126   4.356  16.108  0.00  0.00    +0.000 A 
ATOM     17  C   UNL     1       6.554   4.998  15.012  0.00  0.00    +0.000 A 
ATOM     18  C   UNL     1       5.464   5.845  15.198  0.00  0.00    +0.000 A 
ATOM     19  C   UNL     1       4.937   6.042  16.475  0.00  0.00    +0.000 A 
ENDBRANCH  13  14
ENDBRANCH   4  13
TORSDOF 3
ENDMDL
MODEL 6
REMARK VINA RESULT:      -7.6      1.352      2.262
REMARK  Name = 
REMARK  4 active torsions:
REMARK  status: ('A' for Active; 'I' for Inactive)
REMARK    1  A    between atoms: C_1  and  C_2
REMARK    2  A    between atoms: P_4  and  C_5
REMARK    3  A    between atoms: P_4  and  C_12
REMARK    4  A    between atoms: C_5  and  C_6
REMARK                            x       y       z     vdW  Elec       q    Type
REMARK                         _______ _______ _______ _____ _____    ______ ____
ROOT
ATOM      1  C   UNL     1       1.279   2.831  21.468  0.00  0.00    +0.000 C 
ATOM      2  C   UNL     1       1.853   3.706  20.406  0.00  0.00    +0.000 C 
ATOM      3  C   UNL     1       2.752   4.682  20.627  0.00  0.00    +0.000 C 
ATOM      4  P   UNL     1       3.119   5.591  19.188  0.00  0.00    +0.000 P 
ATOM      5  C   UNL     1       2.341   4.380  18.105  0.00  0.00    +0.000 C 
ATOM      6  C   UNL     1       1.368   3.578  18.984  0.00  0.00    +0.000 C 
ENDROOT
BRANCH   4   7
ATOM      7  C   UNL     1       2.282   7.109  19.284  0.00  0.00    +0.000 A 
ATOM      8  C   UNL     1       2.173   7.950  18.170  0.00  0.00    +0.000 A 
ATOM      9  C   UNL     1       1.557   9.198  18.266  0.00  0.00    +0.000 A 
ATOM     10  C   UNL     1       1.022   9.617  19.481  0.00  0.00    +0.000 A 
ATOM     11  C   UNL     1       1.099   8.784  20.595  0.00  0.00    +0.000 A 
ATOM     12  C   UNL     1       1.723   7.537  20.494  0.00  0.00    +0.000 A 
ENDBRANCH   4   7
BRANCH   4  13
ATOM     13  C   UNL     1       4.869   5.583  18.931  0.00  0.00    +0.000 C 
BRANCH  13  14
ATOM     14  C   UNL     1       5.365   5.391  17.520  0.00  0.00    +0.000 A 
ATOM     15  C   UNL     1       6.298   4.387  17.227  0.00  0.00    +0.000 A 
ATOM     16  C   UNL     1       6.756   4.203  15.921  0.00  0.00    +0.000 A 
ATOM     17  C   UNL     1       6.291   5.024  14.896  0.00  0.00    +0.000 A 
ATOM     18  C   UNL     1       5.380   6.039  15.181  0.00  0.00    +0.000 A 
ATOM     19  C   UNL     1       4.923   6.227  16.486  0.00  0.00    +0.000 A 
ENDBRANCH  13  14
ENDBRANCH   4  13
TORSDOF 3
ENDMDL
MODEL 7
REMARK VINA RESULT:      -7.6      1.304      1.674
REMARK  Name = 
REMARK  4 active torsions:
REMARK  status: ('A' for Active; 'I' for Inactive)
REMARK    1  A    between atoms: C_1  and  C_2
REMARK    2  A    between atoms: P_4  and  C_5
REMARK    3  A    between atoms: P_4  and  C_12
REMARK    4  A    between atoms: C_5  and  C_6
REMARK                            x       y       z     vdW  Elec       q    Type
REMARK                         _______ _______ _______ _____ _____    ______ ____
ROOT
ATOM      1  C   UNL     1       1.055   2.915  21.091  0.00  0.00    +0.000 C 
ATOM      2  C   UNL     1       1.739   3.793  20.098  0.00  0.00    +0.000 C 
ATOM      3  C   UNL     1       2.662   4.720  20.409  0.00  0.00    +0.000 C 
ATOM      4  P   UNL     1       3.168   5.651  19.028  0.00  0.00    +0.000 P 
ATOM      5  C   UNL     1       2.415   4.507  17.857  0.00  0.00    +0.000 C 
ATOM      6  C   UNL     1       1.349   3.727  18.643  0.00  0.00    +0.000 C 
ENDROOT
BRANCH   4   7
ATOM      7  C   UNL     1       2.393   7.203  19.113  0.00  0.00    +0.000 A 
ATOM      8  C   UNL     1       1.829   7.669  20.307  0.00  0.00    +0.000 A 
ATOM      9  C   UNL     1       1.150   8.887  20.356  0.00  0.00    +0.000 A 
ATOM     10  C   UNL     1       1.040   9.668  19.209  0.00  0.00    +0.000 A 
ATOM     11  C   UNL     1       1.615   9.232  18.018  0.00  0.00    +0.000 A 
ATOM     12  C   UNL     1       2.289   8.009  17.973  0.00  0.00    +0.000 A 
ENDBRANCH   4   7
BRANCH   4  13
ATOM     13  C   UNL     1       4.929   5.570  18.890  0.00  0.00    +0.000 C 
BRANCH  13  14
ATOM     14  C   UNL     1       5.512   5.375  17.513  0.00  0.00    +0.000 A 
ATOM     15  C   UNL     1       4.906   5.967  16.396  0.00  0.00    +0.000 A 
ATOM     16  C   UNL     1       5.444   5.792  15.121  0.00  0.00    +0.000 A 
ATOM     17  C   UNL     1       6.590   5.018  14.946  0.00  0.00    +0.000 A 
ATOM     18  C   UNL     1       7.187   4.407  16.047  0.00  0.00    +0.000 A 
ATOM     19  C   UNL     1       6.648   4.578  17.323  0.00  0.00    +0.000 A 
ENDBRANCH  13  14
ENDBRANCH   4  13
TORSDOF 3
ENDMDL
MODEL 8
REMARK VINA RESULT:      -7.5      1.305      1.987
REMARK  Name = 
REMARK  4 active torsions:
REMARK  status: ('A' for Active; 'I' for Inactive)
REMARK    1  A    between atoms: C_1  and  C_2
REMARK    2  A    between atoms: P_4  and  C_5
REMARK    3  A    between atoms: P_4  and  C_12
REMARK    4  A    between atoms: C_5  and  C_6
REMARK                            x       y       z     vdW  Elec       q    Type
REMARK                         _______ _______ _______ _____ _____    ______ ____
ROOT
ATOM      1  C   UNL     1       1.139   2.894  21.160  0.00  0.00    +0.000 C 
ATOM      2  C   UNL     1       1.787   3.791  20.161  0.00  0.00    +0.000 C 
ATOM      3  C   UNL     1       2.678   4.751  20.465  0.00  0.00    +0.000 C 
ATOM      4  P   UNL     1       3.146   5.695  19.079  0.00  0.00    +0.000 P 
ATOM      5  C   UNL     1       2.429   4.521  17.916  0.00  0.00    +0.000 C 
ATOM      6  C   UNL     1       1.394   3.706  18.708  0.00  0.00    +0.000 C 
ENDROOT
BRANCH   4   7
ATOM      7  C   UNL     1       2.316   7.219  19.161  0.00  0.00    +0.000 A 
ATOM      8  C   UNL     1       2.208   8.048  18.039  0.00  0.00    +0.000 A 
ATOM      9  C   UNL     1       1.599   9.300  18.125  0.00  0.00    +0.000 A 
ATOM     10  C   UNL     1       1.070   9.735  19.337  0.00  0.00    +0.000 A 
ATOM     11  C   UNL     1       1.147   8.913  20.458  0.00  0.00    +0.000 A 
ATOM     12  C   UNL     1       1.764   7.662  20.369  0.00  0.00    +0.000 A 
ENDBRANCH   4   7
BRANCH   4  13
ATOM     13  C   UNL     1       4.908   5.676  18.935  0.00  0.00    +0.000 C 
BRANCH  13  14
ATOM     14  C   UNL     1       5.492   5.439  17.565  0.00  0.00    +0.000 A 
ATOM     15  C   UNL     1       4.958   6.091  16.444  0.00  0.00    +0.000 A 
ATOM     16  C   UNL     1       5.499   5.879  15.176  0.00  0.00    +0.000 A 
ATOM     17  C   UNL     1       6.574   5.009  15.011  0.00  0.00    +0.000 A 
ATOM     18  C   UNL     1       7.098   4.339  16.115  0.00  0.00    +0.000 A 
ATOM     19  C   UNL     1       6.557   4.547  17.384  0.00  0.00    +0.000 A 
ENDBRANCH  13  14
ENDBRANCH   4  13
TORSDOF 3
ENDMDL
MODEL 9
REMARK VINA RESULT:      -7.4      2.865      6.591
REMARK  Name = 
REMARK  4 active torsions:
REMARK  status: ('A' for Active; 'I' for Inactive)
REMARK    1  A    between atoms: C_1  and  C_2
REMARK    2  A    between atoms: P_4  and  C_5
REMARK    3  A    between atoms: P_4  and  C_12
REMARK    4  A    between atoms: C_5  and  C_6
REMARK                            x       y       z     vdW  Elec       q    Type
REMARK                         _______ _______ _______ _____ _____    ______ ____
ROOT
ATOM      1  C   UNL     1       8.052   7.128  18.352  0.00  0.00    +0.000 C 
ATOM      2  C   UNL     1       6.994   6.426  17.571  0.00  0.00    +0.000 C 
ATOM      3  C   UNL     1       7.020   5.119  17.255  0.00  0.00    +0.000 C 
ATOM      4  P   UNL     1       5.691   4.650  16.233  0.00  0.00    +0.000 P 
ATOM      5  C   UNL     1       4.790   6.181  16.535  0.00  0.00    +0.000 C 
ATOM      6  C   UNL     1       5.831   7.207  17.011  0.00  0.00    +0.000 C 
ENDROOT
BRANCH   4   7
ATOM      7  C   UNL     1       6.293   4.480  14.613  0.00  0.00    +0.000 A 
ATOM      8  C   UNL     1       7.389   5.227  14.164  0.00  0.00    +0.000 A 
ATOM      9  C   UNL     1       7.829   5.136  12.843  0.00  0.00    +0.000 A 
ATOM     10  C   UNL     1       7.187   4.281  11.953  0.00  0.00    +0.000 A 
ATOM     11  C   UNL     1       6.110   3.512  12.388  0.00  0.00    +0.000 A 
ATOM     12  C   UNL     1       5.669   3.610  13.711  0.00  0.00    +0.000 A 
ENDBRANCH   4   7
BRANCH   4  13
ATOM     13  C   UNL     1       4.835   3.297  16.984  0.00  0.00    +0.000 C 
BRANCH  13  14
ATOM     14  C   UNL     1       3.694   3.626  17.915  0.00  0.00    +0.000 A 
ATOM     15  C   UNL     1       3.946   3.971  19.250  0.00  0.00    +0.000 A 
ATOM     16  C   UNL     1       2.894   4.280  20.113  0.00  0.00    +0.000 A 
ATOM     17  C   UNL     1       1.579   4.241  19.654  0.00  0.00    +0.000 A 
ATOM     18  C   UNL     1       1.317   3.877  18.335  0.00  0.00    +0.000 A 
ATOM     19  C   UNL     1       2.367   3.565  17.471  0.00  0.00    +0.000 A 
ENDBRANCH  13  14
ENDBRANCH   4  13
TORSDOF 3
ENDMDL
