MODEL 1
REMARK VINA RESULT:      -7.6      0.000      0.000
REMARK  Name = 
REMARK  3 active torsions:
REMARK  status: ('A' for Active; 'I' for Inactive)
REMARK    1  A    between atoms: C_1  and  N_2
REMARK    2  A    between atoms: N_2  and  C_19
REMARK    3  A    between atoms: C_3  and  C_5
REMARK                            x       y       z     vdW  Elec       q    Type
REMARK                         _______ _______ _______ _____ _____    ______ ____
ROOT
ATOM      1  C   UNL     1       1.369   8.862  19.861  0.00  0.00    +0.000 A 
ATOM      2  C   UNL     1       1.326   7.784  20.736  0.00  0.00    +0.000 A 
ATOM      3  C   UNL     1       1.959   6.616  20.217  0.00  0.00    +0.000 A 
ATOM      4  C   UNL     1       2.473   6.840  18.953  0.00  0.00    +0.000 A 
ATOM      5  S   UNL     1       2.390   8.492  18.535  0.00  0.00    +0.000 S 
ATOM      6  C   UNL     1       3.049   5.795  18.092  0.00  0.00    +0.000 A 
ATOM      7  C   UNL     1       4.188   6.015  17.308  0.00  0.00    +0.000 A 
ATOM      8  C   UNL     1       4.754   4.970  16.567  0.00  0.00    +0.000 A 
ATOM      9  C   UNL     1       4.185   3.698  16.591  0.00  0.00    +0.000 A 
ATOM     10  C   UNL     1       3.037   3.466  17.346  0.00  0.00    +0.000 A 
ATOM     11  C   UNL     1       2.483   4.499  18.101  0.00  0.00    +0.000 A 
ATOM     12  O   UNL     1       1.284   4.231  18.711  0.00  0.00    +0.000 OA
ATOM     13  C   UNL     1       1.299   4.184  20.146  0.00  0.00    +0.000 C 
ATOM     14  C   UNL     1       2.077   5.281  20.881  0.00  0.00    +0.000 C 
ENDROOT
BRANCH   1  17
ATOM     15  C   UNL     1      -0.752  10.202  18.068  0.00  0.00    +0.000 C 
ATOM     16  N   UNL     1      -0.246  10.733  19.337  0.00  0.00    +0.000 N 
ATOM     17  C   UNL     1       0.776  10.176  20.143  0.00  0.00    +0.000 C 
ATOM     18  O   UNL     1       1.115  10.756  21.181  0.00  0.00    +0.000 OA
BRANCH  16  19
ATOM     19  C   UNL     1      -0.796  12.014  19.718  0.00  0.00    +0.000 A 
ATOM     20  C   UNL     1      -1.987  12.044  20.460  0.00  0.00    +0.000 A 
ATOM     21  C   UNL     1      -2.493  13.269  20.877  0.00  0.00    +0.000 A 
ATOM     22  N   UNL     1      -1.907  14.450  20.607  0.00  0.00    +0.000 NA
ATOM     23  C   UNL     1      -0.780  14.409  19.857  0.00  0.00    +0.000 A 
ATOM     24  C   UNL     1      -0.193  13.238  19.388  0.00  0.00    +0.000 A 
ATOM     25 CL   UNL     1       1.157  13.394  18.322  0.00  0.00    +0.000 Cl
ENDBRANCH  16  19
ENDBRANCH   1  17
TORSDOF 2
ENDMDL
MODEL 2
REMARK VINA RESULT:      -7.3      3.574      8.301
REMARK  Name = 
REMARK  3 active torsions:
REMARK  status: ('A' for Active; 'I' for Inactive)
REMARK    1  A    between atoms: C_1  and  N_2
REMARK    2  A    between atoms: N_2  and  C_19
REMARK    3  A    between atoms: C_3  and  C_5
REMARK                            x       y       z     vdW  Elec       q    Type
REMARK                         _______ _______ _______ _____ _____    ______ ____
ROOT
ATOM      1  C   UNL     1       2.615   7.845  18.620  0.00  0.00    +0.000 A 
ATOM      2  C   UNL     1       2.133   7.539  19.887  0.00  0.00    +0.000 A 
ATOM      3  C   UNL     1       1.066   8.390  20.301  0.00  0.00    +0.000 A 
ATOM      4  C   UNL     1       0.761   9.326  19.330  0.00  0.00    +0.000 A 
ATOM      5  S   UNL     1       1.594   9.003  17.876  0.00  0.00    +0.000 S 
ATOM      6  C   UNL     1      -0.185  10.438  19.514  0.00  0.00    +0.000 A 
ATOM      7  C   UNL     1      -1.071  10.841  18.507  0.00  0.00    +0.000 A 
ATOM      8  C   UNL     1      -2.013  11.848  18.750  0.00  0.00    +0.000 A 
ATOM      9  C   UNL     1      -2.077  12.470  19.995  0.00  0.00    +0.000 A 
ATOM     10  C   UNL     1      -1.187  12.099  21.002  0.00  0.00    +0.000 A 
ATOM     11  C   UNL     1      -0.262  11.083  20.770  0.00  0.00    +0.000 A 
ATOM     12  O   UNL     1       0.662  10.864  21.759  0.00  0.00    +0.000 OA
ATOM     13  C   UNL     1       0.567   9.609  22.450  0.00  0.00    +0.000 C 
ATOM     14  C   UNL     1       0.333   8.352  21.605  0.00  0.00    +0.000 C 
ENDROOT
BRANCH   1  17
ATOM     15  C   UNL     1       2.960   4.782  18.686  0.00  0.00    +0.000 C 
ATOM     16  N   UNL     1       3.815   5.723  17.957  0.00  0.00    +0.000 N 
ATOM     17  C   UNL     1       3.722   7.135  17.966  0.00  0.00    +0.000 C 
ATOM     18  O   UNL     1       4.536   7.803  17.316  0.00  0.00    +0.000 OA
BRANCH  16  19
ATOM     19  C   UNL     1       4.920   5.115  17.252  0.00  0.00    +0.000 A 
ATOM     20  C   UNL     1       4.692   4.571  15.978  0.00  0.00    +0.000 A 
ATOM     21  C   UNL     1       5.760   4.033  15.271  0.00  0.00    +0.000 A 
ATOM     22  N   UNL     1       7.021   3.995  15.739  0.00  0.00    +0.000 NA
ATOM     23  C   UNL     1       7.220   4.488  16.985  0.00  0.00    +0.000 A 
ATOM     24  C   UNL     1       6.221   5.045  17.776  0.00  0.00    +0.000 A 
ATOM     25 CL   UNL     1       6.635   5.483  19.395  0.00  0.00    +0.000 Cl
ENDBRANCH  16  19
ENDBRANCH   1  17
TORSDOF 2
ENDMDL
MODEL 3
REMARK VINA RESULT:      -7.3      1.359      1.590
REMARK  Name = 
REMARK  3 active torsions:
REMARK  status: ('A' for Active; 'I' for Inactive)
REMARK    1  A    between atoms: C_1  and  N_2
REMARK    2  A    between atoms: N_2  and  C_19
REMARK    3  A    between atoms: C_3  and  C_5
REMARK                            x       y       z     vdW  Elec       q    Type
REMARK                         _______ _______ _______ _____ _____    ______ ____
ROOT
ATOM      1  C   UNL     1       1.353   8.787  20.236  0.00  0.00    +0.000 A 
ATOM      2  C   UNL     1       1.307   7.643  21.023  0.00  0.00    +0.000 A 
ATOM      3  C   UNL     1       1.926   6.515  20.408  0.00  0.00    +0.000 A 
ATOM      4  C   UNL     1       2.431   6.835  19.160  0.00  0.00    +0.000 A 
ATOM      5  S   UNL     1       2.358   8.515  18.875  0.00  0.00    +0.000 S 
ATOM      6  C   UNL     1       2.990   5.856  18.214  0.00  0.00    +0.000 A 
ATOM      7  C   UNL     1       4.125   6.129  17.440  0.00  0.00    +0.000 A 
ATOM      8  C   UNL     1       4.675   5.141  16.612  0.00  0.00    +0.000 A 
ATOM      9  C   UNL     1       4.095   3.876  16.541  0.00  0.00    +0.000 A 
ATOM     10  C   UNL     1       2.951   3.594  17.286  0.00  0.00    +0.000 A 
ATOM     11  C   UNL     1       2.413   4.568  18.125  0.00  0.00    +0.000 A 
ATOM     12  O   UNL     1       1.218   4.262  18.724  0.00  0.00    +0.000 OA
ATOM     13  C   UNL     1       1.245   4.102  20.150  0.00  0.00    +0.000 C 
ATOM     14  C   UNL     1       2.039   5.130  20.963  0.00  0.00    +0.000 C 
ENDROOT
BRANCH   1  17
ATOM     15  C   UNL     1      -1.230   9.944  19.012  0.00  0.00    +0.000 C 
ATOM     16  N   UNL     1      -0.451  10.551  20.095  0.00  0.00    +0.000 N 
ATOM     17  C   UNL     1       0.773  10.079  20.626  0.00  0.00    +0.000 C 
ATOM     18  O   UNL     1       1.330  10.716  21.529  0.00  0.00    +0.000 OA
BRANCH  16  19
ATOM     19  C   UNL     1      -0.962  11.816  20.571  0.00  0.00    +0.000 A 
ATOM     20  C   UNL     1      -0.924  12.926  19.713  0.00  0.00    +0.000 A 
ATOM     21  C   UNL     1      -1.463  14.132  20.145  0.00  0.00    +0.000 A 
ATOM     22  N   UNL     1      -2.024  14.309  21.354  0.00  0.00    +0.000 NA
ATOM     23  C   UNL     1      -2.018  13.240  22.187  0.00  0.00    +0.000 A 
ATOM     24  C   UNL     1      -1.503  11.991  21.855  0.00  0.00    +0.000 A 
ATOM     25 CL   UNL     1      -1.449  10.794  23.099  0.00  0.00    +0.000 Cl
ENDBRANCH  16  19
ENDBRANCH   1  17
TORSDOF 2
ENDMDL
MODEL 4
REMARK VINA RESULT:      -7.2      1.632      1.914
REMARK  Name = 
REMARK  3 active torsions:
REMARK  status: ('A' for Active; 'I' for Inactive)
REMARK    1  A    between atoms: C_1  and  N_2
REMARK    2  A    between atoms: N_2  and  C_19
REMARK    3  A    between atoms: C_3  and  C_5
REMARK                            x       y       z     vdW  Elec       q    Type
REMARK                         _______ _______ _______ _____ _____    ______ ____
ROOT
ATOM      1  C   UNL     1       1.326   8.297  19.916  0.00  0.00    +0.000 A 
ATOM      2  C   UNL     1       1.503   7.123  20.638  0.00  0.00    +0.000 A 
ATOM      3  C   UNL     1       2.337   6.177  19.971  0.00  0.00    +0.000 A 
ATOM      4  C   UNL     1       2.775   6.662  18.752  0.00  0.00    +0.000 A 
ATOM      5  S   UNL     1       2.373   8.308  18.560  0.00  0.00    +0.000 S 
ATOM      6  C   UNL     1       3.522   5.869  17.762  0.00  0.00    +0.000 A 
ATOM      7  C   UNL     1       4.584   6.405  17.023  0.00  0.00    +0.000 A 
ATOM      8  C   UNL     1       5.323   5.595  16.151  0.00  0.00    +0.000 A 
ATOM      9  C   UNL     1       5.006   4.247  16.000  0.00  0.00    +0.000 A 
ATOM     10  C   UNL     1       3.937   3.702  16.709  0.00  0.00    +0.000 A 
ATOM     11  C   UNL     1       3.212   4.500  17.592  0.00  0.00    +0.000 A 
ATOM     12  O   UNL     1       2.097   3.930  18.152  0.00  0.00    +0.000 OA
ATOM     13  C   UNL     1       2.148   3.696  19.568  0.00  0.00    +0.000 C 
ATOM     14  C   UNL     1       2.718   4.812  20.449  0.00  0.00    +0.000 C 
ENDROOT
BRANCH   1  17
ATOM     15  C   UNL     1       1.512   9.533  22.736  0.00  0.00    +0.000 C 
ATOM     16  N   UNL     1       0.657  10.013  21.646  0.00  0.00    +0.000 N 
ATOM     17  C   UNL     1       0.500   9.424  20.369  0.00  0.00    +0.000 C 
ATOM     18  O   UNL     1      -0.283   9.933  19.557  0.00  0.00    +0.000 OA
BRANCH  16  19
ATOM     19  C   UNL     1      -0.175  11.145  21.985  0.00  0.00    +0.000 A 
ATOM     20  C   UNL     1      -1.316  10.933  22.773  0.00  0.00    +0.000 A 
ATOM     21  C   UNL     1      -2.092  12.024  23.148  0.00  0.00    +0.000 A 
ATOM     22  N   UNL     1      -1.816  13.292  22.795  0.00  0.00    +0.000 NA
ATOM     23  C   UNL     1      -0.733  13.479  22.002  0.00  0.00    +0.000 A 
ATOM     24  C   UNL     1       0.105  12.457  21.569  0.00  0.00    +0.000 A 
ATOM     25 CL   UNL     1       1.348  12.868  20.441  0.00  0.00    +0.000 Cl
ENDBRANCH  16  19
ENDBRANCH   1  17
TORSDOF 2
ENDMDL
MODEL 5
REMARK VINA RESULT:      -7.1      2.184      3.187
REMARK  Name = 
REMARK  3 active torsions:
REMARK  status: ('A' for Active; 'I' for Inactive)
REMARK    1  A    between atoms: C_1  and  N_2
REMARK    2  A    between atoms: N_2  and  C_19
REMARK    3  A    between atoms: C_3  and  C_5
REMARK                            x       y       z     vdW  Elec       q    Type
REMARK                         _______ _______ _______ _____ _____    ______ ____
ROOT
ATOM      1  C   UNL     1       2.484   7.951  18.107  0.00  0.00    +0.000 A 
ATOM      2  C   UNL     1       3.817   7.758  17.765  0.00  0.00    +0.000 A 
ATOM      3  C   UNL     1       4.196   6.383  17.748  0.00  0.00    +0.000 A 
ATOM      4  C   UNL     1       3.133   5.562  18.077  0.00  0.00    +0.000 A 
ATOM      5  S   UNL     1       1.674   6.442  18.161  0.00  0.00    +0.000 S 
ATOM      6  C   UNL     1       3.240   4.110  18.294  0.00  0.00    +0.000 A 
ATOM      7  C   UNL     1       2.264   3.213  17.843  0.00  0.00    +0.000 A 
ATOM      8  C   UNL     1       2.443   1.832  17.997  0.00  0.00    +0.000 A 
ATOM      9  C   UNL     1       3.590   1.332  18.608  0.00  0.00    +0.000 A 
ATOM     10  C   UNL     1       4.561   2.211  19.085  0.00  0.00    +0.000 A 
ATOM     11  C   UNL     1       4.395   3.585  18.916  0.00  0.00    +0.000 A 
ATOM     12  O   UNL     1       5.325   4.388  19.525  0.00  0.00    +0.000 OA
ATOM     13  C   UNL     1       6.189   5.133  18.652  0.00  0.00    +0.000 C 
ATOM     14  C   UNL     1       5.549   5.822  17.443  0.00  0.00    +0.000 C 
ENDROOT
BRANCH   1  17
ATOM     15  C   UNL     1       0.903   8.888  20.583  0.00  0.00    +0.000 C 
ATOM     16  N   UNL     1       1.184   9.695  19.392  0.00  0.00    +0.000 N 
ATOM     17  C   UNL     1       1.845   9.269  18.215  0.00  0.00    +0.000 C 
ATOM     18  O   UNL     1       1.988  10.063  17.277  0.00  0.00    +0.000 OA
BRANCH  16  19
ATOM     19  C   UNL     1       0.621  11.026  19.418  0.00  0.00    +0.000 A 
ATOM     20  C   UNL     1       1.317  12.041  20.092  0.00  0.00    +0.000 A 
ATOM     21  C   UNL     1       0.809  13.335  20.076  0.00  0.00    +0.000 A 
ATOM     22  N   UNL     1      -0.328  13.682  19.446  0.00  0.00    +0.000 NA
ATOM     23  C   UNL     1      -1.010  12.685  18.832  0.00  0.00    +0.000 A 
ATOM     24  C   UNL     1      -0.591  11.359  18.792  0.00  0.00    +0.000 A 
ATOM     25 CL   UNL     1      -1.667  10.203  18.092  0.00  0.00    +0.000 Cl
ENDBRANCH  16  19
ENDBRANCH   1  17
TORSDOF 2
ENDMDL
MODEL 6
REMARK VINA RESULT:      -7.1      1.944      2.678
REMARK  Name = 
REMARK  3 active torsions:
REMARK  status: ('A' for Active; 'I' for Inactive)
REMARK    1  A    between atoms: C_1  and  N_2
REMARK    2  A    between atoms: N_2  and  C_19
REMARK    3  A    between atoms: C_3  and  C_5
REMARK                            x       y       z     vdW  Elec       q    Type
REMARK                         _______ _______ _______ _____ _____    ______ ____
ROOT
ATOM      1  C   UNL     1       1.527   8.266  20.510  0.00  0.00    +0.000 A 
ATOM      2  C   UNL     1       2.232   8.299  19.313  0.00  0.00    +0.000 A 
ATOM      3  C   UNL     1       2.575   7.002  18.830  0.00  0.00    +0.000 A 
ATOM      4  C   UNL     1       2.117   6.010  19.678  0.00  0.00    +0.000 A 
ATOM      5  S   UNL     1       1.096   6.651  20.885  0.00  0.00    +0.000 S 
ATOM      6  C   UNL     1       2.441   4.581  19.538  0.00  0.00    +0.000 A 
ATOM      7  C   UNL     1       1.495   3.574  19.766  0.00  0.00    +0.000 A 
ATOM      8  C   UNL     1       1.819   2.230  19.542  0.00  0.00    +0.000 A 
ATOM      9  C   UNL     1       3.091   1.875  19.096  0.00  0.00    +0.000 A 
ATOM     10  C   UNL     1       4.053   2.862  18.887  0.00  0.00    +0.000 A 
ATOM     11  C   UNL     1       3.728   4.201  19.091  0.00  0.00    +0.000 A 
ATOM     12  O   UNL     1       4.759   5.100  18.991  0.00  0.00    +0.000 OA
ATOM     13  C   UNL     1       4.697   6.018  17.889  0.00  0.00    +0.000 C 
ATOM     14  C   UNL     1       3.344   6.673  17.590  0.00  0.00    +0.000 C 
ENDROOT
BRANCH   1  17
ATOM     15  C   UNL     1      -0.676  10.155  19.466  0.00  0.00    +0.000 C 
ATOM     16  N   UNL     1       0.009  10.270  20.757  0.00  0.00    +0.000 N 
ATOM     17  C   UNL     1       1.070   9.462  21.230  0.00  0.00    +0.000 C 
ATOM     18  O   UNL     1       1.567   9.698  22.338  0.00  0.00    +0.000 OA
BRANCH  16  19
ATOM     19  C   UNL     1      -0.396  11.404  21.556  0.00  0.00    +0.000 A 
ATOM     20  C   UNL     1      -1.384  11.222  22.536  0.00  0.00    +0.000 A 
ATOM     21  C   UNL     1      -1.741  12.294  23.345  0.00  0.00    +0.000 A 
ATOM     22  N   UNL     1      -1.193  13.518  23.246  0.00  0.00    +0.000 NA
ATOM     23  C   UNL     1      -0.269  13.691  22.270  0.00  0.00    +0.000 A 
ATOM     24  C   UNL     1       0.156  12.686  21.407  0.00  0.00    +0.000 A 
ATOM     25 CL   UNL     1       1.232  13.133  20.131  0.00  0.00    +0.000 Cl
ENDBRANCH  16  19
ENDBRANCH   1  17
TORSDOF 2
ENDMDL
MODEL 7
REMARK VINA RESULT:      -7.1      1.958      2.910
REMARK  Name = 
REMARK  3 active torsions:
REMARK  status: ('A' for Active; 'I' for Inactive)
REMARK    1  A    between atoms: C_1  and  N_2
REMARK    2  A    between atoms: N_2  and  C_19
REMARK    3  A    between atoms: C_3  and  C_5
REMARK                            x       y       z     vdW  Elec       q    Type
REMARK                         _______ _______ _______ _____ _____    ______ ____
ROOT
ATOM      1  C   UNL     1       1.288   9.115  20.180  0.00  0.00    +0.000 A 
ATOM      2  C   UNL     1       1.874   8.841  18.950  0.00  0.00    +0.000 A 
ATOM      3  C   UNL     1       2.255   7.475  18.803  0.00  0.00    +0.000 A 
ATOM      4  C   UNL     1       1.945   6.741  19.934  0.00  0.00    +0.000 A 
ATOM      5  S   UNL     1       1.001   7.652  21.024  0.00  0.00    +0.000 S 
ATOM      6  C   UNL     1       2.348   5.342  20.153  0.00  0.00    +0.000 A 
ATOM      7  C   UNL     1       1.496   4.403  20.748  0.00  0.00    +0.000 A 
ATOM      8  C   UNL     1       1.886   3.062  20.863  0.00  0.00    +0.000 A 
ATOM      9  C   UNL     1       3.131   2.646  20.396  0.00  0.00    +0.000 A 
ATOM     10  C   UNL     1       4.002   3.572  19.824  0.00  0.00    +0.000 A 
ATOM     11  C   UNL     1       3.609   4.902  19.689  0.00  0.00    +0.000 A 
ATOM     12  O   UNL     1       4.565   5.776  19.238  0.00  0.00    +0.000 OA
ATOM     13  C   UNL     1       4.340   6.350  17.942  0.00  0.00    +0.000 C 
ATOM     14  C   UNL     1       2.925   6.844  17.623  0.00  0.00    +0.000 C 
ENDROOT
BRANCH   1  17
ATOM     15  C   UNL     1      -1.282  10.438  19.105  0.00  0.00    +0.000 C 
ATOM     16  N   UNL     1      -0.398  10.996  20.132  0.00  0.00    +0.000 N 
ATOM     17  C   UNL     1       0.822  10.446  20.592  0.00  0.00    +0.000 C 
ATOM     18  O   UNL     1       1.476  11.049  21.452  0.00  0.00    +0.000 OA
BRANCH  16  19
ATOM     19  C   UNL     1      -0.791  12.296  20.626  0.00  0.00    +0.000 A 
ATOM     20  C   UNL     1      -0.557  13.423  19.824  0.00  0.00    +0.000 A 
ATOM     21  C   UNL     1      -0.981  14.670  20.269  0.00  0.00    +0.000 A 
ATOM     22  N   UNL     1      -1.611  14.870  21.441  0.00  0.00    +0.000 NA
ATOM     23  C   UNL     1      -1.796  13.779  22.223  0.00  0.00    +0.000 A 
ATOM     24  C   UNL     1      -1.407  12.490  21.873  0.00  0.00    +0.000 A 
ATOM     25 CL   UNL     1      -1.591  11.251  23.063  0.00  0.00    +0.000 Cl
ENDBRANCH  16  19
ENDBRANCH   1  17
TORSDOF 2
ENDMDL
MODEL 8
REMARK VINA RESULT:      -7.0      1.513      1.757
REMARK  Name = 
REMARK  3 active torsions:
REMARK  status: ('A' for Active; 'I' for Inactive)
REMARK    1  A    between atoms: C_1  and  N_2
REMARK    2  A    between atoms: N_2  and  C_19
REMARK    3  A    between atoms: C_3  and  C_5
REMARK                            x       y       z     vdW  Elec       q    Type
REMARK                         _______ _______ _______ _____ _____    ______ ____
ROOT
ATOM      1  C   UNL     1       1.682   8.707  19.218  0.00  0.00    +0.000 A 
ATOM      2  C   UNL     1       1.848   7.645  20.098  0.00  0.00    +0.000 A 
ATOM      3  C   UNL     1       2.652   6.595  19.564  0.00  0.00    +0.000 A 
ATOM      4  C   UNL     1       3.081   6.891  18.283  0.00  0.00    +0.000 A 
ATOM      5  S   UNL     1       2.709   8.501  17.861  0.00  0.00    +0.000 S 
ATOM      6  C   UNL     1       3.798   5.949  17.408  0.00  0.00    +0.000 A 
ATOM      7  C   UNL     1       4.859   6.350  16.587  0.00  0.00    +0.000 A 
ATOM      8  C   UNL     1       5.569   5.408  15.832  0.00  0.00    +0.000 A 
ATOM      9  C   UNL     1       5.224   4.059  15.880  0.00  0.00    +0.000 A 
ATOM     10  C   UNL     1       4.155   3.644  16.673  0.00  0.00    +0.000 A 
ATOM     11  C   UNL     1       3.459   4.577  17.440  0.00  0.00    +0.000 A 
ATOM     12  O   UNL     1       2.342   4.117  18.090  0.00  0.00    +0.000 OA
ATOM     13  C   UNL     1       2.410   4.087  19.524  0.00  0.00    +0.000 C 
ATOM     14  C   UNL     1       3.015   5.305  20.229  0.00  0.00    +0.000 C 
ENDROOT
BRANCH   1  17
ATOM     15  C   UNL     1      -0.458   8.836  21.434  0.00  0.00    +0.000 C 
ATOM     16  N   UNL     1      -0.041   9.953  20.582  0.00  0.00    +0.000 N 
ATOM     17  C   UNL     1       0.885   9.905  19.513  0.00  0.00    +0.000 C 
ATOM     18  O   UNL     1       1.119  10.932  18.864  0.00  0.00    +0.000 OA
BRANCH  16  19
ATOM     19  C   UNL     1      -0.749  11.191  20.819  0.00  0.00    +0.000 A 
ATOM     20  C   UNL     1      -0.465  11.919  21.984  0.00  0.00    +0.000 A 
ATOM     21  C   UNL     1      -1.102  13.136  22.193  0.00  0.00    +0.000 A 
ATOM     22  N   UNL     1      -1.992  13.670  21.336  0.00  0.00    +0.000 NA
ATOM     23  C   UNL     1      -2.286  12.938  20.234  0.00  0.00    +0.000 A 
ATOM     24  C   UNL     1      -1.708  11.709  19.934  0.00  0.00    +0.000 A 
ATOM     25 CL   UNL     1      -2.318  10.854  18.562  0.00  0.00    +0.000 Cl
ENDBRANCH  16  19
ENDBRANCH   1  17
TORSDOF 2
ENDMDL
MODEL 9
REMARK VINA RESULT:      -7.0      1.801      2.435
REMARK  Name = 
REMARK  3 active torsions:
REMARK  status: ('A' for Active; 'I' for Inactive)
REMARK    1  A    between atoms: C_1  and  N_2
REMARK    2  A    between atoms: N_2  and  C_19
REMARK    3  A    between atoms: C_3  and  C_5
REMARK                            x       y       z     vdW  Elec       q    Type
REMARK                         _______ _______ _______ _____ _____    ______ ____
ROOT
ATOM      1  C   UNL     1       2.329   7.492  19.269  0.00  0.00    +0.000 A 
ATOM      2  C   UNL     1       2.615   6.285  19.895  0.00  0.00    +0.000 A 
ATOM      3  C   UNL     1       3.500   5.459  19.140  0.00  0.00    +0.000 A 
ATOM      4  C   UNL     1       3.867   6.066  17.953  0.00  0.00    +0.000 A 
ATOM      5  S   UNL     1       3.335   7.686  17.895  0.00  0.00    +0.000 S 
ATOM      6  C   UNL     1       4.645   5.410  16.890  0.00  0.00    +0.000 A 
ATOM      7  C   UNL     1       5.643   6.080  16.172  0.00  0.00    +0.000 A 
ATOM      8  C   UNL     1       6.418   5.397  15.226  0.00  0.00    +0.000 A 
ATOM      9  C   UNL     1       6.201   4.044  14.979  0.00  0.00    +0.000 A 
ATOM     10  C   UNL     1       5.196   3.366  15.667  0.00  0.00    +0.000 A 
ATOM     11  C   UNL     1       4.436   4.037  16.623  0.00  0.00    +0.000 A 
ATOM     12  O   UNL     1       3.384   3.342  17.162  0.00  0.00    +0.000 OA
ATOM     13  C   UNL     1       3.490   3.008  18.554  0.00  0.00    +0.000 C 
ATOM     14  C   UNL     1       3.997   4.096  19.506  0.00  0.00    +0.000 C 
ENDROOT
BRANCH   1  17
ATOM     15  C   UNL     1       1.886  10.259  17.981  0.00  0.00    +0.000 C 
ATOM     16  N   UNL     1       1.197   9.749  19.171  0.00  0.00    +0.000 N 
ATOM     17  C   UNL     1       1.432   8.515  19.822  0.00  0.00    +0.000 C 
ATOM     18  O   UNL     1       0.785   8.231  20.838  0.00  0.00    +0.000 OA
BRANCH  16  19
ATOM     19  C   UNL     1       0.265  10.675  19.773  0.00  0.00    +0.000 A 
ATOM     20  C   UNL     1       0.652  11.365  20.932  0.00  0.00    +0.000 A 
ATOM     21  C   UNL     1      -0.217  12.297  21.486  0.00  0.00    +0.000 A 
ATOM     22  N   UNL     1      -1.429  12.583  20.976  0.00  0.00    +0.000 NA
ATOM     23  C   UNL     1      -1.805  11.882  19.879  0.00  0.00    +0.000 A 
ATOM     24  C   UNL     1      -1.013  10.927  19.250  0.00  0.00    +0.000 A 
ATOM     25 CL   UNL     1      -1.722  10.030  17.955  0.00  0.00    +0.000 Cl
ENDBRANCH  16  19
ENDBRANCH   1  17
TORSDOF 2
ENDMDL
