MODEL 1
REMARK VINA RESULT:      -8.2      0.000      0.000
REMARK  Name = 
REMARK  7 active torsions:
REMARK  status: ('A' for Active; 'I' for Inactive)
REMARK    1  A    between atoms: C_1  and  C_2
REMARK    2  A    between atoms: C_5  and  C_6
REMARK    3  A    between atoms: N_8  and  C_9
REMARK    4  A    between atoms: C_16  and  C_17
REMARK    5  A    between atoms: N_19  and  C_20
REMARK    6  A    between atoms: C_20  and  N_22
REMARK    7  A    between atoms: N_22  and  C_23
REMARK                            x       y       z     vdW  Elec       q    Type
REMARK                         _______ _______ _______ _____ _____    ______ ____
ROOT
ATOM      1  C   UNL     1       6.638   6.057  16.888  0.00  0.00    +0.000 A 
ATOM      2  N   UNL     1       6.997   5.717  15.644  0.00  0.00    +0.000 NA
ATOM      3  N   UNL     1       6.109   4.784  15.239  0.00  0.00    +0.000 N 
ATOM      4  C   UNL     1       5.198   4.495  16.235  0.00  0.00    +0.000 A 
ATOM      5  C   UNL     1       5.537   5.266  17.333  0.00  0.00    +0.000 A 
ENDROOT
BRANCH   1  10
ATOM      6  C   UNL     1       9.432  10.401  19.504  0.00  0.00    +0.000 C 
ATOM      7  C   UNL     1       8.697   9.278  18.834  0.00  0.00    +0.000 A 
ATOM      8  C   UNL     1       7.854   9.529  17.752  0.00  0.00    +0.000 A 
ATOM      9  C   UNL     1       7.181   8.480  17.122  0.00  0.00    +0.000 A 
ATOM     10  C   UNL     1       7.319   7.160  17.572  0.00  0.00    +0.000 A 
ATOM     11  C   UNL     1       8.168   6.913  18.660  0.00  0.00    +0.000 A 
ATOM     12  C   UNL     1       8.850   7.963  19.286  0.00  0.00    +0.000 A 
ENDBRANCH   1  10
BRANCH   3  13
ATOM     13  C   UNL     1       6.181   4.261  13.914  0.00  0.00    +0.000 A 
ATOM     14  C   UNL     1       7.318   4.527  13.131  0.00  0.00    +0.000 A 
ATOM     15  C   UNL     1       7.406   4.055  11.818  0.00  0.00    +0.000 A 
ATOM     16  C   UNL     1       6.361   3.318  11.276  0.00  0.00    +0.000 A 
ATOM     17  C   UNL     1       5.226   3.046  12.044  0.00  0.00    +0.000 A 
ATOM     18  C   UNL     1       5.135   3.509  13.362  0.00  0.00    +0.000 A 
ENDBRANCH   3  13
BRANCH   5  19
ATOM     19  C   UNL     1       4.930   5.278  18.657  0.00  0.00    +0.000 C 
ATOM     20  O   UNL     1       5.623   5.389  19.660  0.00  0.00    +0.000 OA
ATOM     21  N   UNL     1       3.545   5.292  18.650  0.00  0.00    +0.000 N 
ATOM     22  H   UNL     1       3.102   5.230  17.745  0.00  0.00    +0.000 HD
BRANCH  21  23
ATOM     23  C   UNL     1       2.667   5.447  19.712  0.00  0.00    +0.000 C 
ATOM     24  S   UNL     1       1.568   4.337  20.302  0.00  0.00    +0.000 S 
BRANCH  23  25
ATOM     25  N   UNL     1       2.681   6.695  20.294  0.00  0.00    +0.000 N 
ATOM     26  H   UNL     1       3.474   6.869  20.908  0.00  0.00    +0.000 HD
BRANCH  25  27
ATOM     27  C   UNL     1       1.910   7.820  19.945  0.00  0.00    +0.000 A 
ATOM     28  C   UNL     1       1.078   8.375  20.920  0.00  0.00    +0.000 A 
ATOM     29  C   UNL     1       0.280   9.477  20.607  0.00  0.00    +0.000 A 
ATOM     30  C   UNL     1       0.355  10.047  19.339  0.00  0.00    +0.000 A 
ATOM     31  F   UNL     1      -0.404  11.108  19.046  0.00  0.00    +0.000 F 
ATOM     32  C   UNL     1       1.218   9.535  18.378  0.00  0.00    +0.000 A 
ATOM     33  C   UNL     1       1.996   8.420  18.681  0.00  0.00    +0.000 A 
ENDBRANCH  25  27
ENDBRANCH  23  25
ENDBRANCH  21  23
ENDBRANCH   5  19
TORSDOF 6
ENDMDL
MODEL 2
REMARK VINA RESULT:      -8.0      0.421      1.287
REMARK  Name = 
REMARK  7 active torsions:
REMARK  status: ('A' for Active; 'I' for Inactive)
REMARK    1  A    between atoms: C_1  and  C_2
REMARK    2  A    between atoms: C_5  and  C_6
REMARK    3  A    between atoms: N_8  and  C_9
REMARK    4  A    between atoms: C_16  and  C_17
REMARK    5  A    between atoms: N_19  and  C_20
REMARK    6  A    between atoms: C_20  and  N_22
REMARK    7  A    between atoms: N_22  and  C_23
REMARK                            x       y       z     vdW  Elec       q    Type
REMARK                         _______ _______ _______ _____ _____    ______ ____
ROOT
ATOM      1  C   UNL     1       6.444   5.747  16.753  0.00  0.00    +0.000 A 
ATOM      2  N   UNL     1       6.770   5.441  15.491  0.00  0.00    +0.000 NA
ATOM      3  N   UNL     1       5.880   4.508  15.089  0.00  0.00    +0.000 N 
ATOM      4  C   UNL     1       5.000   4.187  16.104  0.00  0.00    +0.000 A 
ATOM      5  C   UNL     1       5.364   4.935  17.210  0.00  0.00    +0.000 A 
ENDROOT
BRANCH   1  10
ATOM      6  C   UNL     1       9.274  10.051  19.395  0.00  0.00    +0.000 C 
ATOM      7  C   UNL     1       8.530   8.940  18.719  0.00  0.00    +0.000 A 
ATOM      8  C   UNL     1       7.699   9.203  17.630  0.00  0.00    +0.000 A 
ATOM      9  C   UNL     1       7.017   8.163  16.994  0.00  0.00    +0.000 A 
ATOM     10  C   UNL     1       7.134   6.840  17.443  0.00  0.00    +0.000 A 
ATOM     11  C   UNL     1       7.972   6.581  18.537  0.00  0.00    +0.000 A 
ATOM     12  C   UNL     1       8.662   7.622  19.170  0.00  0.00    +0.000 A 
ENDBRANCH   1  10
BRANCH   3  13
ATOM     13  C   UNL     1       5.918   4.018  13.750  0.00  0.00    +0.000 A 
ATOM     14  C   UNL     1       4.730   3.564  13.151  0.00  0.00    +0.000 A 
ATOM     15  C   UNL     1       4.739   3.050  11.851  0.00  0.00    +0.000 A 
ATOM     16  C   UNL     1       5.931   2.982  11.142  0.00  0.00    +0.000 A 
ATOM     17  C   UNL     1       7.118   3.431  11.726  0.00  0.00    +0.000 A 
ATOM     18  C   UNL     1       7.115   3.955  13.024  0.00  0.00    +0.000 A 
ENDBRANCH   3  13
BRANCH   5  19
ATOM     19  C   UNL     1       4.796   4.909  18.550  0.00  0.00    +0.000 C 
ATOM     20  O   UNL     1       5.474   4.563  19.509  0.00  0.00    +0.000 OA
ATOM     21  N   UNL     1       3.514   5.428  18.638  0.00  0.00    +0.000 N 
ATOM     22  H   UNL     1       3.086   5.708  17.768  0.00  0.00    +0.000 HD
BRANCH  21  23
ATOM     23  C   UNL     1       2.749   5.682  19.766  0.00  0.00    +0.000 C 
ATOM     24  S   UNL     1       1.740   4.627  20.577  0.00  0.00    +0.000 S 
BRANCH  23  25
ATOM     25  N   UNL     1       2.798   6.983  20.214  0.00  0.00    +0.000 N 
ATOM     26  H   UNL     1       3.702   7.271  20.584  0.00  0.00    +0.000 HD
BRANCH  25  27
ATOM     27  C   UNL     1       1.868   8.013  19.981  0.00  0.00    +0.000 A 
ATOM     28  C   UNL     1       1.819   8.581  18.705  0.00  0.00    +0.000 A 
ATOM     29  C   UNL     1       0.927   9.622  18.442  0.00  0.00    +0.000 A 
ATOM     30  C   UNL     1       0.056  10.054  19.437  0.00  0.00    +0.000 A 
ATOM     31  F   UNL     1      -0.803  11.046  19.178  0.00  0.00    +0.000 F 
ATOM     32  C   UNL     1       0.059   9.462  20.694  0.00  0.00    +0.000 A 
ATOM     33  C   UNL     1       0.967   8.441  20.966  0.00  0.00    +0.000 A 
ENDBRANCH  25  27
ENDBRANCH  23  25
ENDBRANCH  21  23
ENDBRANCH   5  19
TORSDOF 6
ENDMDL
MODEL 3
REMARK VINA RESULT:      -8.0      8.308     10.507
REMARK  Name = 
REMARK  7 active torsions:
REMARK  status: ('A' for Active; 'I' for Inactive)
REMARK    1  A    between atoms: C_1  and  C_2
REMARK    2  A    between atoms: C_5  and  C_6
REMARK    3  A    between atoms: N_8  and  C_9
REMARK    4  A    between atoms: C_16  and  C_17
REMARK    5  A    between atoms: N_19  and  C_20
REMARK    6  A    between atoms: C_20  and  N_22
REMARK    7  A    between atoms: N_22  and  C_23
REMARK                            x       y       z     vdW  Elec       q    Type
REMARK                         _______ _______ _______ _____ _____    ______ ____
ROOT
ATOM      1  C   UNL     1       0.253  12.746  20.477  0.00  0.00    +0.000 A 
ATOM      2  N   UNL     1       1.370  13.449  20.704  0.00  0.00    +0.000 NA
ATOM      3  N   UNL     1       2.079  13.408  19.555  0.00  0.00    +0.000 N 
ATOM      4  C   UNL     1       1.437  12.648  18.598  0.00  0.00    +0.000 A 
ATOM      5  C   UNL     1       0.274  12.166  19.174  0.00  0.00    +0.000 A 
ENDROOT
BRANCH   1  10
ATOM      6  C   UNL     1      -4.020  12.546  24.377  0.00  0.00    +0.000 C 
ATOM      7  C   UNL     1      -2.905  12.603  23.377  0.00  0.00    +0.000 A 
ATOM      8  C   UNL     1      -1.995  11.551  23.269  0.00  0.00    +0.000 A 
ATOM      9  C   UNL     1      -0.965  11.601  22.328  0.00  0.00    +0.000 A 
ATOM     10  C   UNL     1      -0.809  12.711  21.487  0.00  0.00    +0.000 A 
ATOM     11  C   UNL     1      -1.727  13.765  21.598  0.00  0.00    +0.000 A 
ATOM     12  C   UNL     1      -2.764  13.712  22.535  0.00  0.00    +0.000 A 
ENDBRANCH   1  10
BRANCH   3  13
ATOM     13  C   UNL     1       3.306  14.127  19.451  0.00  0.00    +0.000 A 
ATOM     14  C   UNL     1       3.907  14.634  20.617  0.00  0.00    +0.000 A 
ATOM     15  C   UNL     1       5.094  15.369  20.544  0.00  0.00    +0.000 A 
ATOM     16  C   UNL     1       5.687  15.607  19.312  0.00  0.00    +0.000 A 
ATOM     17  C   UNL     1       5.100  15.109  18.146  0.00  0.00    +0.000 A 
ATOM     18  C   UNL     1       3.916  14.364  18.212  0.00  0.00    +0.000 A 
ENDBRANCH   3  13
BRANCH   5  19
ATOM     19  C   UNL     1      -0.714  11.261  18.603  0.00  0.00    +0.000 C 
ATOM     20  O   UNL     1      -0.847  10.125  19.042  0.00  0.00    +0.000 OA
ATOM     21  N   UNL     1      -1.541  11.842  17.656  0.00  0.00    +0.000 N 
ATOM     22  H   UNL     1      -1.338  12.801  17.414  0.00  0.00    +0.000 HD
BRANCH  21  23
ATOM     23  C   UNL     1      -2.661  11.314  17.032  0.00  0.00    +0.000 C 
ATOM     24  S   UNL     1      -2.735  10.003  16.000  0.00  0.00    +0.000 S 
BRANCH  23  25
ATOM     25  N   UNL     1      -3.828  12.009  17.259  0.00  0.00    +0.000 N 
ATOM     26  H   UNL     1      -4.112  12.623  16.498  0.00  0.00    +0.000 HD
BRANCH  25  27
ATOM     27  C   UNL     1      -4.789  11.780  18.261  0.00  0.00    +0.000 A 
ATOM     28  C   UNL     1      -4.605  12.394  19.503  0.00  0.00    +0.000 A 
ATOM     29  C   UNL     1      -5.524  12.173  20.530  0.00  0.00    +0.000 A 
ATOM     30  C   UNL     1      -6.645  11.382  20.296  0.00  0.00    +0.000 A 
ATOM     31  F   UNL     1      -7.528  11.180  21.280  0.00  0.00    +0.000 F 
ATOM     32  C   UNL     1      -6.866  10.809  19.049  0.00  0.00    +0.000 A 
ATOM     33  C   UNL     1      -5.936  11.008  18.031  0.00  0.00    +0.000 A 
ENDBRANCH  25  27
ENDBRANCH  23  25
ENDBRANCH  21  23
ENDBRANCH   5  19
TORSDOF 6
ENDMDL
MODEL 4
REMARK VINA RESULT:      -7.9      3.235      5.148
REMARK  Name = 
REMARK  7 active torsions:
REMARK  status: ('A' for Active; 'I' for Inactive)
REMARK    1  A    between atoms: C_1  and  C_2
REMARK    2  A    between atoms: C_5  and  C_6
REMARK    3  A    between atoms: N_8  and  C_9
REMARK    4  A    between atoms: C_16  and  C_17
REMARK    5  A    between atoms: N_19  and  C_20
REMARK    6  A    between atoms: C_20  and  N_22
REMARK    7  A    between atoms: N_22  and  C_23
REMARK                            x       y       z     vdW  Elec       q    Type
REMARK                         _______ _______ _______ _____ _____    ______ ____
ROOT
ATOM      1  C   UNL     1       3.456   5.051  17.862  0.00  0.00    +0.000 A 
ATOM      2  N   UNL     1       4.157   4.407  16.920  0.00  0.00    +0.000 NA
ATOM      3  N   UNL     1       4.702   5.363  16.138  0.00  0.00    +0.000 N 
ATOM      4  C   UNL     1       4.325   6.624  16.554  0.00  0.00    +0.000 A 
ATOM      5  C   UNL     1       3.481   6.460  17.638  0.00  0.00    +0.000 A 
ENDROOT
BRANCH   1  10
ATOM      6  C   UNL     1       1.046   2.202  22.288  0.00  0.00    +0.000 C 
ATOM      7  C   UNL     1       1.670   2.928  21.134  0.00  0.00    +0.000 A 
ATOM      8  C   UNL     1       0.872   3.515  20.152  0.00  0.00    +0.000 A 
ATOM      9  C   UNL     1       1.455   4.202  19.085  0.00  0.00    +0.000 A 
ATOM     10  C   UNL     1       2.848   4.301  18.964  0.00  0.00    +0.000 A 
ATOM     11  C   UNL     1       3.645   3.710  19.954  0.00  0.00    +0.000 A 
ATOM     12  C   UNL     1       3.061   3.029  21.029  0.00  0.00    +0.000 A 
ENDBRANCH   1  10
BRANCH   3  13
ATOM     13  C   UNL     1       5.572   4.997  15.069  0.00  0.00    +0.000 A 
ATOM     14  C   UNL     1       6.843   5.593  14.983  0.00  0.00    +0.000 A 
ATOM     15  C   UNL     1       7.708   5.278  13.930  0.00  0.00    +0.000 A 
ATOM     16  C   UNL     1       7.311   4.372  12.956  0.00  0.00    +0.000 A 
ATOM     17  C   UNL     1       6.052   3.773  13.031  0.00  0.00    +0.000 A 
ATOM     18  C   UNL     1       5.184   4.077  14.087  0.00  0.00    +0.000 A 
ENDBRANCH   3  13
BRANCH   5  19
ATOM     19  C   UNL     1       2.761   7.477  18.391  0.00  0.00    +0.000 C 
ATOM     20  O   UNL     1       2.638   7.385  19.606  0.00  0.00    +0.000 OA
ATOM     21  N   UNL     1       2.374   8.576  17.641  0.00  0.00    +0.000 N 
ATOM     22  H   UNL     1       2.570   8.533  16.652  0.00  0.00    +0.000 HD
BRANCH  21  23
ATOM     23  C   UNL     1       1.808   9.769  18.064  0.00  0.00    +0.000 C 
ATOM     24  S   UNL     1       2.417  11.312  17.880  0.00  0.00    +0.000 S 
BRANCH  23  25
ATOM     25  N   UNL     1       0.635   9.630  18.772  0.00  0.00    +0.000 N 
ATOM     26  H   UNL     1       0.738   9.191  19.685  0.00  0.00    +0.000 HD
BRANCH  25  27
ATOM     27  C   UNL     1      -0.606  10.245  18.518  0.00  0.00    +0.000 A 
ATOM     28  C   UNL     1      -1.336   9.820  17.405  0.00  0.00    +0.000 A 
ATOM     29  C   UNL     1      -2.559  10.421  17.106  0.00  0.00    +0.000 A 
ATOM     30  C   UNL     1      -3.069  11.406  17.946  0.00  0.00    +0.000 A 
ATOM     31  F   UNL     1      -4.246  11.974  17.661  0.00  0.00    +0.000 F 
ATOM     32  C   UNL     1      -2.377  11.801  19.085  0.00  0.00    +0.000 A 
ATOM     33  C   UNL     1      -1.143  11.219  19.370  0.00  0.00    +0.000 A 
ENDBRANCH  25  27
ENDBRANCH  23  25
ENDBRANCH  21  23
ENDBRANCH   5  19
TORSDOF 6
ENDMDL
MODEL 5
REMARK VINA RESULT:      -7.9      3.527      8.427
REMARK  Name = 
REMARK  7 active torsions:
REMARK  status: ('A' for Active; 'I' for Inactive)
REMARK    1  A    between atoms: C_1  and  C_2
REMARK    2  A    between atoms: C_5  and  C_6
REMARK    3  A    between atoms: N_8  and  C_9
REMARK    4  A    between atoms: C_16  and  C_17
REMARK    5  A    between atoms: N_19  and  C_20
REMARK    6  A    between atoms: C_20  and  N_22
REMARK    7  A    between atoms: N_22  and  C_23
REMARK                            x       y       z     vdW  Elec       q    Type
REMARK                         _______ _______ _______ _____ _____    ______ ____
ROOT
ATOM      1  C   UNL     1       2.334   7.165  18.853  0.00  0.00    +0.000 A 
ATOM      2  N   UNL     1       1.505   8.158  19.197  0.00  0.00    +0.000 NA
ATOM      3  N   UNL     1       1.787   9.187  18.369  0.00  0.00    +0.000 N 
ATOM      4  C   UNL     1       2.823   8.870  17.513  0.00  0.00    +0.000 A 
ATOM      5  C   UNL     1       3.233   7.586  17.828  0.00  0.00    +0.000 A 
ENDROOT
BRANCH   1  10
ATOM      6  C   UNL     1       1.642   1.973  21.318  0.00  0.00    +0.000 C 
ATOM      7  C   UNL     1       1.834   3.314  20.676  0.00  0.00    +0.000 A 
ATOM      8  C   UNL     1       1.611   3.484  19.310  0.00  0.00    +0.000 A 
ATOM      9  C   UNL     1       1.778   4.737  18.717  0.00  0.00    +0.000 A 
ATOM     10  C   UNL     1       2.192   5.844  19.471  0.00  0.00    +0.000 A 
ATOM     11  C   UNL     1       2.414   5.668  20.844  0.00  0.00    +0.000 A 
ATOM     12  C   UNL     1       2.238   4.414  21.441  0.00  0.00    +0.000 A 
ENDBRANCH   1  10
BRANCH   3  13
ATOM     13  C   UNL     1       1.019  10.387  18.437  0.00  0.00    +0.000 A 
ATOM     14  C   UNL     1       1.682  11.621  18.560  0.00  0.00    +0.000 A 
ATOM     15  C   UNL     1       0.958  12.812  18.660  0.00  0.00    +0.000 A 
ATOM     16  C   UNL     1      -0.430  12.781  18.642  0.00  0.00    +0.000 A 
ATOM     17  C   UNL     1      -1.101  11.562  18.520  0.00  0.00    +0.000 A 
ATOM     18  C   UNL     1      -0.382  10.366  18.411  0.00  0.00    +0.000 A 
ENDBRANCH   3  13
BRANCH   5  19
ATOM     19  C   UNL     1       4.337   6.822  17.264  0.00  0.00    +0.000 C 
ATOM     20  O   UNL     1       4.671   6.977  16.097  0.00  0.00    +0.000 OA
ATOM     21  N   UNL     1       5.023   6.045  18.184  0.00  0.00    +0.000 N 
ATOM     22  H   UNL     1       4.656   6.038  19.125  0.00  0.00    +0.000 HD
BRANCH  21  23
ATOM     23  C   UNL     1       6.192   5.319  18.017  0.00  0.00    +0.000 C 
ATOM     24  S   UNL     1       7.678   5.595  18.726  0.00  0.00    +0.000 S 
BRANCH  23  25
ATOM     25  N   UNL     1       6.105   4.291  17.106  0.00  0.00    +0.000 N 
ATOM     26  H   UNL     1       5.599   3.472  17.437  0.00  0.00    +0.000 HD
BRANCH  25  27
ATOM     27  C   UNL     1       6.383   4.331  15.726  0.00  0.00    +0.000 A 
ATOM     28  C   UNL     1       5.536   3.630  14.864  0.00  0.00    +0.000 A 
ATOM     29  C   UNL     1       5.792   3.626  13.491  0.00  0.00    +0.000 A 
ATOM     30  C   UNL     1       6.859   4.361  12.985  0.00  0.00    +0.000 A 
ATOM     31  F   UNL     1       7.095   4.362  11.669  0.00  0.00    +0.000 F 
ATOM     32  C   UNL     1       7.676   5.104  13.828  0.00  0.00    +0.000 A 
ATOM     33  C   UNL     1       7.438   5.088  15.200  0.00  0.00    +0.000 A 
ENDBRANCH  25  27
ENDBRANCH  23  25
ENDBRANCH  21  23
ENDBRANCH   5  19
TORSDOF 6
ENDMDL
MODEL 6
REMARK VINA RESULT:      -7.9      6.203     10.010
REMARK  Name = 
REMARK  7 active torsions:
REMARK  status: ('A' for Active; 'I' for Inactive)
REMARK    1  A    between atoms: C_1  and  C_2
REMARK    2  A    between atoms: C_5  and  C_6
REMARK    3  A    between atoms: N_8  and  C_9
REMARK    4  A    between atoms: C_16  and  C_17
REMARK    5  A    between atoms: N_19  and  C_20
REMARK    6  A    between atoms: C_20  and  N_22
REMARK    7  A    between atoms: N_22  and  C_23
REMARK                            x       y       z     vdW  Elec       q    Type
REMARK                         _______ _______ _______ _____ _____    ______ ____
ROOT
ATOM      1  C   UNL     1       0.889  11.518  18.952  0.00  0.00    +0.000 A 
ATOM      2  N   UNL     1       1.702  12.526  19.295  0.00  0.00    +0.000 NA
ATOM      3  N   UNL     1       0.944  13.643  19.275  0.00  0.00    +0.000 N 
ATOM      4  C   UNL     1      -0.350  13.362  18.884  0.00  0.00    +0.000 A 
ATOM      5  C   UNL     1      -0.411  12.005  18.623  0.00  0.00    +0.000 A 
ENDROOT
BRANCH   1  10
ATOM      6  C   UNL     1       2.669   6.014  19.152  0.00  0.00    +0.000 C 
ATOM      7  C   UNL     1       2.221   7.443  19.103  0.00  0.00    +0.000 A 
ATOM      8  C   UNL     1       2.360   8.190  17.933  0.00  0.00    +0.000 A 
ATOM      9  C   UNL     1       1.930   9.518  17.887  0.00  0.00    +0.000 A 
ATOM     10  C   UNL     1       1.370  10.136  19.014  0.00  0.00    +0.000 A 
ATOM     11  C   UNL     1       1.232   9.381  20.186  0.00  0.00    +0.000 A 
ATOM     12  C   UNL     1       1.655   8.047  20.232  0.00  0.00    +0.000 A 
ENDBRANCH   1  10
BRANCH   3  13
ATOM     13  C   UNL     1       1.509  14.894  19.663  0.00  0.00    +0.000 A 
ATOM     14  C   UNL     1       1.509  15.962  18.748  0.00  0.00    +0.000 A 
ATOM     15  C   UNL     1       2.082  17.190  19.088  0.00  0.00    +0.000 A 
ATOM     16  C   UNL     1       2.661  17.362  20.338  0.00  0.00    +0.000 A 
ATOM     17  C   UNL     1       2.666  16.310  21.257  0.00  0.00    +0.000 A 
ATOM     18  C   UNL     1       2.086  15.079  20.927  0.00  0.00    +0.000 A 
ENDBRANCH   3  13
BRANCH   5  19
ATOM     19  C   UNL     1      -1.533  11.227  18.114  0.00  0.00    +0.000 C 
ATOM     20  O   UNL     1      -1.905  10.216  18.696  0.00  0.00    +0.000 OA
ATOM     21  N   UNL     1      -2.188  11.805  17.039  0.00  0.00    +0.000 N 
ATOM     22  H   UNL     1      -1.790  12.661  16.681  0.00  0.00    +0.000 HD
BRANCH  21  23
ATOM     23  C   UNL     1      -3.362  11.410  16.416  0.00  0.00    +0.000 C 
ATOM     24  S   UNL     1      -3.542  10.302  15.180  0.00  0.00    +0.000 S 
BRANCH  23  25
ATOM     25  N   UNL     1      -4.491  12.071  16.845  0.00  0.00    +0.000 N 
ATOM     26  H   UNL     1      -4.957  12.625  16.129  0.00  0.00    +0.000 HD
BRANCH  25  27
ATOM     27  C   UNL     1      -5.213  11.866  18.036  0.00  0.00    +0.000 A 
ATOM     28  C   UNL     1      -6.242  10.921  18.028  0.00  0.00    +0.000 A 
ATOM     29  C   UNL     1      -6.996  10.707  19.183  0.00  0.00    +0.000 A 
ATOM     30  C   UNL     1      -6.687  11.400  20.350  0.00  0.00    +0.000 A 
ATOM     31  F   UNL     1      -7.406  11.185  21.456  0.00  0.00    +0.000 F 
ATOM     32  C   UNL     1      -5.632  12.304  20.383  0.00  0.00    +0.000 A 
ATOM     33  C   UNL     1      -4.895  12.538  19.224  0.00  0.00    +0.000 A 
ENDBRANCH  25  27
ENDBRANCH  23  25
ENDBRANCH  21  23
ENDBRANCH   5  19
TORSDOF 6
ENDMDL
MODEL 7
REMARK VINA RESULT:      -7.9      3.174      5.051
REMARK  Name = 
REMARK  7 active torsions:
REMARK  status: ('A' for Active; 'I' for Inactive)
REMARK    1  A    between atoms: C_1  and  C_2
REMARK    2  A    between atoms: C_5  and  C_6
REMARK    3  A    between atoms: N_8  and  C_9
REMARK    4  A    between atoms: C_16  and  C_17
REMARK    5  A    between atoms: N_19  and  C_20
REMARK    6  A    between atoms: C_20  and  N_22
REMARK    7  A    between atoms: N_22  and  C_23
REMARK                            x       y       z     vdW  Elec       q    Type
REMARK                         _______ _______ _______ _____ _____    ______ ____
ROOT
ATOM      1  C   UNL     1       3.500   5.038  17.805  0.00  0.00    +0.000 A 
ATOM      2  N   UNL     1       4.192   4.401  16.852  0.00  0.00    +0.000 NA
ATOM      3  N   UNL     1       4.736   5.363  16.076  0.00  0.00    +0.000 N 
ATOM      4  C   UNL     1       4.366   6.621  16.507  0.00  0.00    +0.000 A 
ATOM      5  C   UNL     1       3.529   6.449  17.596  0.00  0.00    +0.000 A 
ENDROOT
BRANCH   1  10
ATOM      6  C   UNL     1       1.111   2.152  22.218  0.00  0.00    +0.000 C 
ATOM      7  C   UNL     1       1.729   2.888  21.067  0.00  0.00    +0.000 A 
ATOM      8  C   UNL     1       0.926   3.502  20.106  0.00  0.00    +0.000 A 
ATOM      9  C   UNL     1       1.504   4.198  19.042  0.00  0.00    +0.000 A 
ATOM     10  C   UNL     1       2.896   4.279  18.903  0.00  0.00    +0.000 A 
ATOM     11  C   UNL     1       3.699   3.661  19.873  0.00  0.00    +0.000 A 
ATOM     12  C   UNL     1       3.120   2.970  20.944  0.00  0.00    +0.000 A 
ENDBRANCH   1  10
BRANCH   3  13
ATOM     13  C   UNL     1       5.597   5.005  14.997  0.00  0.00    +0.000 A 
ATOM     14  C   UNL     1       5.165   4.049  14.061  0.00  0.00    +0.000 A 
ATOM     15  C   UNL     1       5.998   3.655  13.010  0.00  0.00    +0.000 A 
ATOM     16  C   UNL     1       7.266   4.207  12.886  0.00  0.00    +0.000 A 
ATOM     17  C   UNL     1       7.706   5.159  13.809  0.00  0.00    +0.000 A 
ATOM     18  C   UNL     1       6.875   5.565  14.860  0.00  0.00    +0.000 A 
ENDBRANCH   3  13
BRANCH   5  19
ATOM     19  C   UNL     1       2.817   7.461  18.364  0.00  0.00    +0.000 C 
ATOM     20  O   UNL     1       2.780   7.406  19.586  0.00  0.00    +0.000 OA
ATOM     21  N   UNL     1       2.334   8.517  17.608  0.00  0.00    +0.000 N 
ATOM     22  H   UNL     1       2.466   8.448  16.609  0.00  0.00    +0.000 HD
BRANCH  21  23
ATOM     23  C   UNL     1       1.747   9.699  18.032  0.00  0.00    +0.000 C 
ATOM     24  S   UNL     1       2.401  11.235  18.001  0.00  0.00    +0.000 S 
BRANCH  23  25
ATOM     25  N   UNL     1       0.500   9.553  18.596  0.00  0.00    +0.000 N 
ATOM     26  H   UNL     1      -0.104   8.882  18.125  0.00  0.00    +0.000 HD
BRANCH  25  27
ATOM     27  C   UNL     1       0.065   9.996  19.859  0.00  0.00    +0.000 A 
ATOM     28  C   UNL     1      -0.714  11.154  19.919  0.00  0.00    +0.000 A 
ATOM     29  C   UNL     1      -1.145  11.639  21.155  0.00  0.00    +0.000 A 
ATOM     30  C   UNL     1      -0.837  10.939  22.317  0.00  0.00    +0.000 A 
ATOM     31  F   UNL     1      -1.259  11.402  23.499  0.00  0.00    +0.000 F 
ATOM     32  C   UNL     1      -0.107   9.758  22.266  0.00  0.00    +0.000 A 
ATOM     33  C   UNL     1       0.346   9.287  21.035  0.00  0.00    +0.000 A 
ENDBRANCH  25  27
ENDBRANCH  23  25
ENDBRANCH  21  23
ENDBRANCH   5  19
TORSDOF 6
ENDMDL
MODEL 8
REMARK VINA RESULT:      -7.9      3.165      4.931
REMARK  Name = 
REMARK  7 active torsions:
REMARK  status: ('A' for Active; 'I' for Inactive)
REMARK    1  A    between atoms: C_1  and  C_2
REMARK    2  A    between atoms: C_5  and  C_6
REMARK    3  A    between atoms: N_8  and  C_9
REMARK    4  A    between atoms: C_16  and  C_17
REMARK    5  A    between atoms: N_19  and  C_20
REMARK    6  A    between atoms: C_20  and  N_22
REMARK    7  A    between atoms: N_22  and  C_23
REMARK                            x       y       z     vdW  Elec       q    Type
REMARK                         _______ _______ _______ _____ _____    ______ ____
ROOT
ATOM      1  C   UNL     1       3.553   4.977  17.762  0.00  0.00    +0.000 A 
ATOM      2  N   UNL     1       4.232   4.330  16.806  0.00  0.00    +0.000 NA
ATOM      3  N   UNL     1       4.786   5.285  16.028  0.00  0.00    +0.000 N 
ATOM      4  C   UNL     1       4.436   6.548  16.461  0.00  0.00    +0.000 A 
ATOM      5  C   UNL     1       3.601   6.387  17.553  0.00  0.00    +0.000 A 
ENDROOT
BRANCH   1  10
ATOM      6  C   UNL     1       1.147   2.123  22.186  0.00  0.00    +0.000 C 
ATOM      7  C   UNL     1       1.768   2.851  21.032  0.00  0.00    +0.000 A 
ATOM      8  C   UNL     1       0.970   3.520  20.105  0.00  0.00    +0.000 A 
ATOM      9  C   UNL     1       1.553   4.209  19.038  0.00  0.00    +0.000 A 
ATOM     10  C   UNL     1       2.943   4.226  18.863  0.00  0.00    +0.000 A 
ATOM     11  C   UNL     1       3.740   3.553  19.799  0.00  0.00    +0.000 A 
ATOM     12  C   UNL     1       3.158   2.870  20.873  0.00  0.00    +0.000 A 
ENDBRANCH   1  10
BRANCH   3  13
ATOM     13  C   UNL     1       5.638   4.915  14.946  0.00  0.00    +0.000 A 
ATOM     14  C   UNL     1       6.898   5.529  14.822  0.00  0.00    +0.000 A 
ATOM     15  C   UNL     1       7.743   5.210  13.756  0.00  0.00    +0.000 A 
ATOM     16  C   UNL     1       7.340   4.282  12.805  0.00  0.00    +0.000 A 
ATOM     17  C   UNL     1       6.092   3.665  12.917  0.00  0.00    +0.000 A 
ATOM     18  C   UNL     1       5.243   3.973  13.987  0.00  0.00    +0.000 A 
ENDBRANCH   3  13
BRANCH   5  19
ATOM     19  C   UNL     1       2.907   7.410  18.324  0.00  0.00    +0.000 C 
ATOM     20  O   UNL     1       2.911   7.378  19.548  0.00  0.00    +0.000 OA
ATOM     21  N   UNL     1       2.391   8.447  17.563  0.00  0.00    +0.000 N 
ATOM     22  H   UNL     1       2.490   8.359  16.563  0.00  0.00    +0.000 HD
BRANCH  21  23
ATOM     23  C   UNL     1       1.809   9.633  17.983  0.00  0.00    +0.000 C 
ATOM     24  S   UNL     1       2.479  11.162  17.971  0.00  0.00    +0.000 S 
BRANCH  23  25
ATOM     25  N   UNL     1       0.551   9.496  18.526  0.00  0.00    +0.000 N 
ATOM     26  H   UNL     1      -0.051   8.832  18.043  0.00  0.00    +0.000 HD
BRANCH  25  27
ATOM     27  C   UNL     1       0.099   9.940  19.783  0.00  0.00    +0.000 A 
ATOM     28  C   UNL     1       0.405   9.164  20.904  0.00  0.00    +0.000 A 
ATOM     29  C   UNL     1      -0.046   9.558  22.165  0.00  0.00    +0.000 A 
ATOM     30  C   UNL     1      -0.755  10.747  22.306  0.00  0.00    +0.000 A 
ATOM     31  F   UNL     1      -1.178  11.125  23.517  0.00  0.00    +0.000 F 
ATOM     32  C   UNL     1      -1.021  11.553  21.205  0.00  0.00    +0.000 A 
ATOM     33  C   UNL     1      -0.594  11.148  19.942  0.00  0.00    +0.000 A 
ENDBRANCH  25  27
ENDBRANCH  23  25
ENDBRANCH  21  23
ENDBRANCH   5  19
TORSDOF 6
ENDMDL
MODEL 9
REMARK VINA RESULT:      -7.9      5.520     11.088
REMARK  Name = 
REMARK  7 active torsions:
REMARK  status: ('A' for Active; 'I' for Inactive)
REMARK    1  A    between atoms: C_1  and  C_2
REMARK    2  A    between atoms: C_5  and  C_6
REMARK    3  A    between atoms: N_8  and  C_9
REMARK    4  A    between atoms: C_16  and  C_17
REMARK    5  A    between atoms: N_19  and  C_20
REMARK    6  A    between atoms: C_20  and  N_22
REMARK    7  A    between atoms: N_22  and  C_23
REMARK                            x       y       z     vdW  Elec       q    Type
REMARK                         _______ _______ _______ _____ _____    ______ ____
ROOT
ATOM      1  C   UNL     1      -1.565  11.337  19.586  0.00  0.00    +0.000 A 
ATOM      2  N   UNL     1      -2.295  11.953  20.524  0.00  0.00    +0.000 NA
ATOM      3  N   UNL     1      -1.442  12.251  21.528  0.00  0.00    +0.000 N 
ATOM      4  C   UNL     1      -0.168  11.794  21.253  0.00  0.00    +0.000 A 
ATOM      5  C   UNL     1      -0.220  11.157  20.025  0.00  0.00    +0.000 A 
ENDROOT
BRANCH   1  10
ATOM      6  C   UNL     1      -3.861  10.112  14.415  0.00  0.00    +0.000 C 
ATOM      7  C   UNL     1      -3.274  10.419  15.759  0.00  0.00    +0.000 A 
ATOM      8  C   UNL     1      -2.135   9.747  16.205  0.00  0.00    +0.000 A 
ATOM      9  C   UNL     1      -1.583  10.044  17.453  0.00  0.00    +0.000 A 
ATOM     10  C   UNL     1      -2.166  11.003  18.291  0.00  0.00    +0.000 A 
ATOM     11  C   UNL     1      -3.309  11.676  17.838  0.00  0.00    +0.000 A 
ATOM     12  C   UNL     1      -3.859  11.386  16.584  0.00  0.00    +0.000 A 
ENDBRANCH   1  10
BRANCH   3  13
ATOM     13  C   UNL     1      -1.905  12.980  22.663  0.00  0.00    +0.000 A 
ATOM     14  C   UNL     1      -3.174  12.690  23.194  0.00  0.00    +0.000 A 
ATOM     15  C   UNL     1      -3.669  13.407  24.287  0.00  0.00    +0.000 A 
ATOM     16  C   UNL     1      -2.905  14.419  24.855  0.00  0.00    +0.000 A 
ATOM     17  C   UNL     1      -1.643  14.715  24.337  0.00  0.00    +0.000 A 
ATOM     18  C   UNL     1      -1.137  13.995  23.248  0.00  0.00    +0.000 A 
ENDBRANCH   3  13
BRANCH   5  19
ATOM     19  C   UNL     1       0.842  10.447  19.325  0.00  0.00    +0.000 C 
ATOM     20  O   UNL     1       1.609  11.046  18.582  0.00  0.00    +0.000 OA
ATOM     21  N   UNL     1       0.971   9.115  19.684  0.00  0.00    +0.000 N 
ATOM     22  H   UNL     1       0.287   8.760  20.336  0.00  0.00    +0.000 HD
BRANCH  21  23
ATOM     23  C   UNL     1       1.952   8.204  19.325  0.00  0.00    +0.000 C 
ATOM     24  S   UNL     1       2.748   8.081  17.862  0.00  0.00    +0.000 S 
BRANCH  23  25
ATOM     25  N   UNL     1       2.243   7.262  20.286  0.00  0.00    +0.000 N 
ATOM     26  H   UNL     1       2.276   7.622  21.238  0.00  0.00    +0.000 HD
BRANCH  25  27
ATOM     27  C   UNL     1       2.231   5.860  20.155  0.00  0.00    +0.000 A 
ATOM     28  C   UNL     1       3.411   5.227  19.758  0.00  0.00    +0.000 A 
ATOM     29  C   UNL     1       3.434   3.840  19.594  0.00  0.00    +0.000 A 
ATOM     30  C   UNL     1       2.294   3.093  19.874  0.00  0.00    +0.000 A 
ATOM     31  F   UNL     1       2.322   1.764  19.723  0.00  0.00    +0.000 F 
ATOM     32  C   UNL     1       1.130   3.707  20.319  0.00  0.00    +0.000 A 
ATOM     33  C   UNL     1       1.099   5.093  20.458  0.00  0.00    +0.000 A 
ENDBRANCH  25  27
ENDBRANCH  23  25
ENDBRANCH  21  23
ENDBRANCH   5  19
TORSDOF 6
ENDMDL
