MODEL 1
REMARK VINA RESULT:      -8.2      0.000      0.000
REMARK  Name = 
REMARK  6 active torsions:
REMARK  status: ('A' for Active; 'I' for Inactive)
REMARK    1  A    between atoms: C_4  and  O_5
REMARK    2  A    between atoms: O_5  and  C_6
REMARK    3  A    between atoms: C_6  and  C_7
REMARK    4  A    between atoms: C_20  and  O_21
REMARK    5  A    between atoms: O_21  and  C_22
REMARK    6  A    between atoms: C_22  and  C_23
REMARK                            x       y       z     vdW  Elec       q    Type
REMARK                         _______ _______ _______ _____ _____    ______ ____
ROOT
ATOM      1  O   UNL     1       3.068   2.843  20.293  0.00  0.00    +0.000 OA
ATOM      2  C   UNL     1       3.302   3.683  19.425  0.00  0.00    +0.000 A 
ATOM      3  N   UNL     1       4.069   3.347  18.341  0.00  0.00    +0.000 NA
ATOM      4  C   UNL     1       4.294   4.289  17.497  0.00  0.00    +0.000 A 
ATOM      5  C   UNL     1       3.800   5.661  17.531  0.00  0.00    +0.000 A 
ATOM      6  C   UNL     1       3.018   5.970  18.571  0.00  0.00    +0.000 A 
ATOM      7  N   UNL     1       2.788   4.995  19.533  0.00  0.00    +0.000 N 
ATOM      8  C   UNL     1       2.021   5.253  20.740  0.00  0.00    +0.000 C 
ATOM      9  C   UNL     1       1.442   6.641  20.955  0.00  0.00    +0.000 C 
ATOM     10  C   UNL     1       1.672   7.637  19.861  0.00  0.00    +0.000 A 
ATOM     11  C   UNL     1       1.103   8.920  20.035  0.00  0.00    +0.000 A 
ATOM     12  C   UNL     1       1.233   9.908  19.071  0.00  0.00    +0.000 A 
ATOM     13  C   UNL     1       1.931   9.603  17.910  0.00  0.00    +0.000 A 
ATOM     14  C   UNL     1       2.507   8.332  17.731  0.00  0.00    +0.000 A 
ATOM     15  C   UNL     1       2.405   7.325  18.712  0.00  0.00    +0.000 A 
ENDROOT
BRANCH   4  16
ATOM     16  O   UNL     1       5.054   4.155  16.385  0.00  0.00    +0.000 OA
BRANCH  16  17
ATOM     17  C   UNL     1       5.627   5.334  15.768  0.00  0.00    +0.000 C 
BRANCH  17  18
ATOM     18  C   UNL     1       7.120   5.346  16.153  0.00  0.00    +0.000 C 
ATOM     19  C   UNL     1       7.429   4.450  17.357  0.00  0.00    +0.000 C 
ATOM     20  O   UNL     1       7.114   5.088  18.598  0.00  0.00    +0.000 OA
ATOM     21  C   UNL     1       7.882   6.291  18.715  0.00  0.00    +0.000 C 
ATOM     22  C   UNL     1       7.499   7.254  17.596  0.00  0.00    +0.000 C 
ATOM     23  O   UNL     1       7.674   6.671  16.302  0.00  0.00    +0.000 OA
ENDBRANCH  17  18
ENDBRANCH  16  17
ENDBRANCH   4  16
BRANCH  12  24
ATOM     24  O   UNL     1       0.719  11.178  19.151  0.00  0.00    +0.000 OA
BRANCH  24  25
ATOM     25  C   UNL     1       1.622  12.244  18.851  0.00  0.00    +0.000 C 
BRANCH  25  26
ATOM     26  C   UNL     1       0.857  13.548  18.702  0.00  0.00    +0.000 C 
ATOM     27  F   UNL     1      -0.268  13.318  17.973  0.00  0.00    +0.000 F 
ENDBRANCH  25  26
ENDBRANCH  24  25
ENDBRANCH  12  24
TORSDOF 6
ENDMDL
MODEL 2
REMARK VINA RESULT:      -8.2      1.954      2.233
REMARK  Name = 
REMARK  6 active torsions:
REMARK  status: ('A' for Active; 'I' for Inactive)
REMARK    1  A    between atoms: C_4  and  O_5
REMARK    2  A    between atoms: O_5  and  C_6
REMARK    3  A    between atoms: C_6  and  C_7
REMARK    4  A    between atoms: C_20  and  O_21
REMARK    5  A    between atoms: O_21  and  C_22
REMARK    6  A    between atoms: C_22  and  C_23
REMARK                            x       y       z     vdW  Elec       q    Type
REMARK                         _______ _______ _______ _____ _____    ______ ____
ROOT
ATOM      1  O   UNL     1       3.296   1.442  18.969  0.00  0.00    +0.000 OA
ATOM      2  C   UNL     1       3.471   2.551  18.467  0.00  0.00    +0.000 A 
ATOM      3  N   UNL     1       4.196   2.669  17.310  0.00  0.00    +0.000 NA
ATOM      4  C   UNL     1       4.360   3.863  16.868  0.00  0.00    +0.000 A 
ATOM      5  C   UNL     1       3.835   5.107  17.424  0.00  0.00    +0.000 A 
ATOM      6  C   UNL     1       3.093   4.980  18.529  0.00  0.00    +0.000 A 
ATOM      7  N   UNL     1       2.931   3.710  19.069  0.00  0.00    +0.000 N 
ATOM      8  C   UNL     1       2.212   3.475  20.310  0.00  0.00    +0.000 C 
ATOM      9  C   UNL     1       1.610   4.662  21.043  0.00  0.00    +0.000 C 
ATOM     10  C   UNL     1       1.767   5.999  20.388  0.00  0.00    +0.000 A 
ATOM     11  C   UNL     1       1.176   7.104  21.043  0.00  0.00    +0.000 A 
ATOM     12  C   UNL     1       1.239   8.383  20.509  0.00  0.00    +0.000 A 
ATOM     13  C   UNL     1       1.891   8.555  19.295  0.00  0.00    +0.000 A 
ATOM     14  C   UNL     1       2.489   7.463  18.640  0.00  0.00    +0.000 A 
ATOM     15  C   UNL     1       2.455   6.161  19.182  0.00  0.00    +0.000 A 
ENDROOT
BRANCH   4  16
ATOM     16  O   UNL     1       5.072   4.178  15.762  0.00  0.00    +0.000 OA
BRANCH  16  17
ATOM     17  C   UNL     1       5.554   5.534  15.587  0.00  0.00    +0.000 C 
BRANCH  17  18
ATOM     18  C   UNL     1       7.056   5.512  15.932  0.00  0.00    +0.000 C 
ATOM     19  C   UNL     1       7.430   4.366  16.879  0.00  0.00    +0.000 C 
ATOM     20  O   UNL     1       7.131   4.676  18.243  0.00  0.00    +0.000 OA
ATOM     21  C   UNL     1       7.862   5.844  18.630  0.00  0.00    +0.000 C 
ATOM     22  C   UNL     1       7.415   7.032  17.784  0.00  0.00    +0.000 C 
ATOM     23  O   UNL     1       7.570   6.783  16.383  0.00  0.00    +0.000 OA
ENDBRANCH  17  18
ENDBRANCH  16  17
ENDBRANCH   4  16
BRANCH  12  24
ATOM     24  O   UNL     1       0.699   9.512  21.071  0.00  0.00    +0.000 OA
BRANCH  24  25
ATOM     25  C   UNL     1       0.651   9.546  22.499  0.00  0.00    +0.000 C 
BRANCH  25  26
ATOM     26  C   UNL     1      -0.754   9.887  22.965  0.00  0.00    +0.000 C 
ATOM     27  F   UNL     1      -0.769  11.168  23.421  0.00  0.00    +0.000 F 
ENDBRANCH  25  26
ENDBRANCH  24  25
ENDBRANCH  12  24
TORSDOF 6
ENDMDL
MODEL 3
REMARK VINA RESULT:      -8.0      3.333      7.719
REMARK  Name = 
REMARK  6 active torsions:
REMARK  status: ('A' for Active; 'I' for Inactive)
REMARK    1  A    between atoms: C_4  and  O_5
REMARK    2  A    between atoms: O_5  and  C_6
REMARK    3  A    between atoms: C_6  and  C_7
REMARK    4  A    between atoms: C_20  and  O_21
REMARK    5  A    between atoms: O_21  and  C_22
REMARK    6  A    between atoms: C_22  and  C_23
REMARK                            x       y       z     vdW  Elec       q    Type
REMARK                         _______ _______ _______ _____ _____    ______ ____
ROOT
ATOM      1  O   UNL     1       1.695   4.664  21.389  0.00  0.00    +0.000 OA
ATOM      2  C   UNL     1       2.043   5.473  20.530  0.00  0.00    +0.000 A 
ATOM      3  N   UNL     1       1.624   6.775  20.610  0.00  0.00    +0.000 NA
ATOM      4  C   UNL     1       2.004   7.548  19.658  0.00  0.00    +0.000 A 
ATOM      5  C   UNL     1       2.861   7.221  18.523  0.00  0.00    +0.000 A 
ATOM      6  C   UNL     1       3.300   5.959  18.474  0.00  0.00    +0.000 A 
ATOM      7  N   UNL     1       2.873   5.075  19.458  0.00  0.00    +0.000 N 
ATOM      8  C   UNL     1       3.227   3.666  19.449  0.00  0.00    +0.000 C 
ATOM      9  C   UNL     1       4.102   3.138  18.325  0.00  0.00    +0.000 C 
ATOM     10  C   UNL     1       4.580   4.144  17.324  0.00  0.00    +0.000 A 
ATOM     11  C   UNL     1       5.427   3.669  16.296  0.00  0.00    +0.000 A 
ATOM     12  C   UNL     1       5.947   4.520  15.332  0.00  0.00    +0.000 A 
ATOM     13  C   UNL     1       5.624   5.869  15.407  0.00  0.00    +0.000 A 
ATOM     14  C   UNL     1       4.776   6.350  16.421  0.00  0.00    +0.000 A 
ATOM     15  C   UNL     1       4.220   5.493  17.394  0.00  0.00    +0.000 A 
ENDROOT
BRANCH   4  16
ATOM     16  O   UNL     1       1.664   8.854  19.551  0.00  0.00    +0.000 OA
BRANCH  16  17
ATOM     17  C   UNL     1       0.461   9.332  20.201  0.00  0.00    +0.000 C 
BRANCH  17  18
ATOM     18  C   UNL     1       0.916  10.070  21.475  0.00  0.00    +0.000 C 
ATOM     19  C   UNL     1       0.265   9.515  22.747  0.00  0.00    +0.000 C 
ATOM     20  O   UNL     1      -1.059  10.022  22.939  0.00  0.00    +0.000 OA
ATOM     21  C   UNL     1      -1.005  11.449  23.039  0.00  0.00    +0.000 C 
ATOM     22  C   UNL     1      -0.477  12.035  21.734  0.00  0.00    +0.000 C 
ATOM     23  O   UNL     1       0.808  11.507  21.389  0.00  0.00    +0.000 OA
ENDBRANCH  17  18
ENDBRANCH  16  17
ENDBRANCH   4  16
BRANCH  12  24
ATOM     24  O   UNL     1       6.773   4.153  14.301  0.00  0.00    +0.000 OA
BRANCH  24  25
ATOM     25  C   UNL     1       6.129   3.738  13.094  0.00  0.00    +0.000 C 
BRANCH  25  26
ATOM     26  C   UNL     1       6.986   4.102  11.894  0.00  0.00    +0.000 C 
ATOM     27  F   UNL     1       7.877   5.062  12.263  0.00  0.00    +0.000 F 
ENDBRANCH  25  26
ENDBRANCH  24  25
ENDBRANCH  12  24
TORSDOF 6
ENDMDL
MODEL 4
REMARK VINA RESULT:      -8.0      1.166      1.204
REMARK  Name = 
REMARK  6 active torsions:
REMARK  status: ('A' for Active; 'I' for Inactive)
REMARK    1  A    between atoms: C_4  and  O_5
REMARK    2  A    between atoms: O_5  and  C_6
REMARK    3  A    between atoms: C_6  and  C_7
REMARK    4  A    between atoms: C_20  and  O_21
REMARK    5  A    between atoms: O_21  and  C_22
REMARK    6  A    between atoms: C_22  and  C_23
REMARK                            x       y       z     vdW  Elec       q    Type
REMARK                         _______ _______ _______ _____ _____    ______ ____
ROOT
ATOM      1  O   UNL     1       3.002   2.432  19.928  0.00  0.00    +0.000 OA
ATOM      2  C   UNL     1       3.251   3.355  19.155  0.00  0.00    +0.000 A 
ATOM      3  N   UNL     1       4.009   3.122  18.037  0.00  0.00    +0.000 NA
ATOM      4  C   UNL     1       4.251   4.144  17.298  0.00  0.00    +0.000 A 
ATOM      5  C   UNL     1       3.784   5.514  17.480  0.00  0.00    +0.000 A 
ATOM      6  C   UNL     1       3.010   5.726  18.550  0.00  0.00    +0.000 A 
ATOM      7  N   UNL     1       2.763   4.657  19.404  0.00  0.00    +0.000 N 
ATOM      8  C   UNL     1       2.003   4.800  20.634  0.00  0.00    +0.000 C 
ATOM      9  C   UNL     1       1.452   6.168  20.999  0.00  0.00    +0.000 C 
ATOM     10  C   UNL     1       1.700   7.271  20.017  0.00  0.00    +0.000 A 
ATOM     11  C   UNL     1       1.157   8.538  20.329  0.00  0.00    +0.000 A 
ATOM     12  C   UNL     1       1.305   9.622  19.476  0.00  0.00    +0.000 A 
ATOM     13  C   UNL     1       1.995   9.429  18.286  0.00  0.00    +0.000 A 
ATOM     14  C   UNL     1       2.546   8.174  17.970  0.00  0.00    +0.000 A 
ATOM     15  C   UNL     1       2.424   7.069  18.838  0.00  0.00    +0.000 A 
ENDROOT
BRANCH   4  16
ATOM     16  O   UNL     1       5.005   4.115  16.175  0.00  0.00    +0.000 OA
BRANCH  16  17
ATOM     17  C   UNL     1       5.564   5.349  15.660  0.00  0.00    +0.000 C 
BRANCH  17  18
ATOM     18  C   UNL     1       7.056   5.348  16.044  0.00  0.00    +0.000 C 
ATOM     19  C   UNL     1       7.378   4.359  17.171  0.00  0.00    +0.000 C 
ATOM     20  O   UNL     1       7.057   4.891  18.460  0.00  0.00    +0.000 OA
ATOM     21  C   UNL     1       7.811   6.090  18.674  0.00  0.00    +0.000 C 
ATOM     22  C   UNL     1       7.415   7.136  17.638  0.00  0.00    +0.000 C 
ATOM     23  O   UNL     1       7.595   6.662  16.300  0.00  0.00    +0.000 OA
ENDBRANCH  17  18
ENDBRANCH  16  17
ENDBRANCH   4  16
BRANCH  12  24
ATOM     24  O   UNL     1       0.817  10.885  19.693  0.00  0.00    +0.000 OA
BRANCH  24  25
ATOM     25  C   UNL     1      -0.606  11.020  19.697  0.00  0.00    +0.000 C 
BRANCH  25  26
ATOM     26  C   UNL     1      -1.063  11.687  20.983  0.00  0.00    +0.000 C 
ATOM     27  F   UNL     1       0.019  11.893  21.782  0.00  0.00    +0.000 F 
ENDBRANCH  25  26
ENDBRANCH  24  25
ENDBRANCH  12  24
TORSDOF 6
ENDMDL
MODEL 5
REMARK VINA RESULT:      -8.0      3.216      7.421
REMARK  Name = 
REMARK  6 active torsions:
REMARK  status: ('A' for Active; 'I' for Inactive)
REMARK    1  A    between atoms: C_4  and  O_5
REMARK    2  A    between atoms: O_5  and  C_6
REMARK    3  A    between atoms: C_6  and  C_7
REMARK    4  A    between atoms: C_20  and  O_21
REMARK    5  A    between atoms: O_21  and  C_22
REMARK    6  A    between atoms: C_22  and  C_23
REMARK                            x       y       z     vdW  Elec       q    Type
REMARK                         _______ _______ _______ _____ _____    ______ ____
ROOT
ATOM      1  O   UNL     1       1.741   3.928  21.393  0.00  0.00    +0.000 OA
ATOM      2  C   UNL     1       2.023   4.887  20.677  0.00  0.00    +0.000 A 
ATOM      3  N   UNL     1       1.575   6.139  21.007  0.00  0.00    +0.000 NA
ATOM      4  C   UNL     1       1.885   7.081  20.192  0.00  0.00    +0.000 A 
ATOM      5  C   UNL     1       2.690   6.990  18.978  0.00  0.00    +0.000 A 
ATOM      6  C   UNL     1       3.160   5.772  18.685  0.00  0.00    +0.000 A 
ATOM      7  N   UNL     1       2.807   4.714  19.515  0.00  0.00    +0.000 N 
ATOM      8  C   UNL     1       3.198   3.342  19.239  0.00  0.00    +0.000 C 
ATOM      9  C   UNL     1       4.028   3.053  18.000  0.00  0.00    +0.000 C 
ATOM     10  C   UNL     1       4.427   4.235  17.173  0.00  0.00    +0.000 A 
ATOM     11  C   UNL     1       5.232   3.979  16.039  0.00  0.00    +0.000 A 
ATOM     12  C   UNL     1       5.679   5.005  15.220  0.00  0.00    +0.000 A 
ATOM     13  C   UNL     1       5.325   6.308  15.548  0.00  0.00    +0.000 A 
ATOM     14  C   UNL     1       4.518   6.571  16.669  0.00  0.00    +0.000 A 
ATOM     15  C   UNL     1       4.035   5.537  17.498  0.00  0.00    +0.000 A 
ENDROOT
BRANCH   4  16
ATOM     16  O   UNL     1       1.505   8.372  20.334  0.00  0.00    +0.000 OA
BRANCH  16  17
ATOM     17  C   UNL     1       1.318   8.917  21.664  0.00  0.00    +0.000 C 
BRANCH  17  18
ATOM     18  C   UNL     1       0.303  10.068  21.526  0.00  0.00    +0.000 C 
ATOM     19  C   UNL     1      -0.553   9.955  20.258  0.00  0.00    +0.000 C 
ATOM     20  O   UNL     1       0.135  10.436  19.100  0.00  0.00    +0.000 OA
ATOM     21  C   UNL     1       0.480  11.812  19.297  0.00  0.00    +0.000 C 
ATOM     22  C   UNL     1       1.435  11.936  20.479  0.00  0.00    +0.000 C 
ATOM     23  O   UNL     1       0.883  11.381  21.677  0.00  0.00    +0.000 OA
ENDBRANCH  17  18
ENDBRANCH  16  17
ENDBRANCH   4  16
BRANCH  12  24
ATOM     24  O   UNL     1       6.460   4.855  14.102  0.00  0.00    +0.000 OA
BRANCH  24  25
ATOM     25  C   UNL     1       6.175   3.720  13.281  0.00  0.00    +0.000 C 
BRANCH  25  26
ATOM     26  C   UNL     1       6.970   3.799  11.989  0.00  0.00    +0.000 C 
ATOM     27  F   UNL     1       7.692   4.953  11.985  0.00  0.00    +0.000 F 
ENDBRANCH  25  26
ENDBRANCH  24  25
ENDBRANCH  12  24
TORSDOF 6
ENDMDL
MODEL 6
REMARK VINA RESULT:      -8.0      3.460      7.768
REMARK  Name = 
REMARK  6 active torsions:
REMARK  status: ('A' for Active; 'I' for Inactive)
REMARK    1  A    between atoms: C_4  and  O_5
REMARK    2  A    between atoms: O_5  and  C_6
REMARK    3  A    between atoms: C_6  and  C_7
REMARK    4  A    between atoms: C_20  and  O_21
REMARK    5  A    between atoms: O_21  and  C_22
REMARK    6  A    between atoms: C_22  and  C_23
REMARK                            x       y       z     vdW  Elec       q    Type
REMARK                         _______ _______ _______ _____ _____    ______ ____
ROOT
ATOM      1  O   UNL     1       1.936   3.947  21.100  0.00  0.00    +0.000 OA
ATOM      2  C   UNL     1       2.243   4.865  20.341  0.00  0.00    +0.000 A 
ATOM      3  N   UNL     1       1.827   6.142  20.614  0.00  0.00    +0.000 NA
ATOM      4  C   UNL     1       2.162   7.038  19.757  0.00  0.00    +0.000 A 
ATOM      5  C   UNL     1       2.964   6.870  18.549  0.00  0.00    +0.000 A 
ATOM      6  C   UNL     1       3.402   5.629  18.312  0.00  0.00    +0.000 A 
ATOM      7  N   UNL     1       3.022   4.619  19.189  0.00  0.00    +0.000 N 
ATOM      8  C   UNL     1       3.376   3.226  18.976  0.00  0.00    +0.000 C 
ATOM      9  C   UNL     1       4.198   2.859  17.752  0.00  0.00    +0.000 C 
ATOM     10  C   UNL     1       4.627   3.992  16.872  0.00  0.00    +0.000 A 
ATOM     11  C   UNL     1       5.425   3.664  15.752  0.00  0.00    +0.000 A 
ATOM     12  C   UNL     1       5.898   4.640  14.887  0.00  0.00    +0.000 A 
ATOM     13  C   UNL     1       5.579   5.964  15.156  0.00  0.00    +0.000 A 
ATOM     14  C   UNL     1       4.779   6.300  16.263  0.00  0.00    +0.000 A 
ATOM     15  C   UNL     1       4.270   5.317  17.138  0.00  0.00    +0.000 A 
ENDROOT
BRANCH   4  16
ATOM     16  O   UNL     1       1.816   8.343  19.840  0.00  0.00    +0.000 OA
BRANCH  16  17
ATOM     17  C   UNL     1       1.497   8.915  21.133  0.00  0.00    +0.000 C 
BRANCH  17  18
ATOM     18  C   UNL     1       0.013   9.325  21.076  0.00  0.00    +0.000 C 
ATOM     19  C   UNL     1      -0.180  10.808  20.737  0.00  0.00    +0.000 C 
ATOM     20  O   UNL     1      -0.002  11.648  21.882  0.00  0.00    +0.000 OA
ATOM     21  C   UNL     1      -0.954  11.282  22.886  0.00  0.00    +0.000 C 
ATOM     22  C   UNL     1      -0.702   9.845  23.331  0.00  0.00    +0.000 C 
ATOM     23  O   UNL     1      -0.749   8.926  22.235  0.00  0.00    +0.000 OA
ENDBRANCH  17  18
ENDBRANCH  16  17
ENDBRANCH   4  16
BRANCH  12  24
ATOM     24  O   UNL     1       6.675   4.418  13.778  0.00  0.00    +0.000 OA
BRANCH  24  25
ATOM     25  C   UNL     1       6.274   3.338  12.932  0.00  0.00    +0.000 C 
BRANCH  25  26
ATOM     26  C   UNL     1       5.030   3.724  12.149  0.00  0.00    +0.000 C 
ATOM     27  F   UNL     1       4.549   2.620  11.515  0.00  0.00    +0.000 F 
ENDBRANCH  25  26
ENDBRANCH  24  25
ENDBRANCH  12  24
TORSDOF 6
ENDMDL
MODEL 7
REMARK VINA RESULT:      -8.0      3.313      7.600
REMARK  Name = 
REMARK  6 active torsions:
REMARK  status: ('A' for Active; 'I' for Inactive)
REMARK    1  A    between atoms: C_4  and  O_5
REMARK    2  A    between atoms: O_5  and  C_6
REMARK    3  A    between atoms: C_6  and  C_7
REMARK    4  A    between atoms: C_20  and  O_21
REMARK    5  A    between atoms: O_21  and  C_22
REMARK    6  A    between atoms: C_22  and  C_23
REMARK                            x       y       z     vdW  Elec       q    Type
REMARK                         _______ _______ _______ _____ _____    ______ ____
ROOT
ATOM      1  O   UNL     1       1.017   3.445  20.618  0.00  0.00    +0.000 OA
ATOM      2  C   UNL     1       1.572   4.476  20.241  0.00  0.00    +0.000 A 
ATOM      3  N   UNL     1       1.213   5.681  20.787  0.00  0.00    +0.000 NA
ATOM      4  C   UNL     1       1.816   6.713  20.317  0.00  0.00    +0.000 A 
ATOM      5  C   UNL     1       2.864   6.757  19.303  0.00  0.00    +0.000 A 
ATOM      6  C   UNL     1       3.238   5.573  18.805  0.00  0.00    +0.000 A 
ATOM      7  N   UNL     1       2.577   4.434  19.250  0.00  0.00    +0.000 N 
ATOM      8  C   UNL     1       2.852   3.112  18.713  0.00  0.00    +0.000 C 
ATOM      9  C   UNL     1       3.906   2.967  17.629  0.00  0.00    +0.000 C 
ATOM     10  C   UNL     1       4.626   4.217  17.227  0.00  0.00    +0.000 A 
ATOM     11  C   UNL     1       5.636   4.085  16.246  0.00  0.00    +0.000 A 
ATOM     12  C   UNL     1       6.381   5.175  15.821  0.00  0.00    +0.000 A 
ATOM     13  C   UNL     1       6.121   6.412  16.397  0.00  0.00    +0.000 A 
ATOM     14  C   UNL     1       5.113   6.554  17.367  0.00  0.00    +0.000 A 
ATOM     15  C   UNL     1       4.330   5.461  17.792  0.00  0.00    +0.000 A 
ENDROOT
BRANCH   4  16
ATOM     16  O   UNL     1       1.573   7.985  20.708  0.00  0.00    +0.000 OA
BRANCH  16  17
ATOM     17  C   UNL     1       0.363   8.284  21.450  0.00  0.00    +0.000 C 
BRANCH  17  18
ATOM     18  C   UNL     1       0.714   9.435  22.413  0.00  0.00    +0.000 C 
ATOM     19  C   UNL     1      -0.482   9.884  23.261  0.00  0.00    +0.000 C 
ATOM     20  O   UNL     1      -1.352  10.763  22.541  0.00  0.00    +0.000 OA
ATOM     21  C   UNL     1      -0.616  11.924  22.138  0.00  0.00    +0.000 C 
ATOM     22  C   UNL     1       0.506  11.515  21.190  0.00  0.00    +0.000 C 
ATOM     23  O   UNL     1       1.380  10.546  21.777  0.00  0.00    +0.000 OA
ENDBRANCH  17  18
ENDBRANCH  16  17
ENDBRANCH   4  16
BRANCH  12  24
ATOM     24  O   UNL     1       7.377   5.145  14.878  0.00  0.00    +0.000 OA
BRANCH  24  25
ATOM     25  C   UNL     1       7.030   4.580  13.611  0.00  0.00    +0.000 C 
BRANCH  25  26
ATOM     26  C   UNL     1       7.764   5.306  12.498  0.00  0.00    +0.000 C 
ATOM     27  F   UNL     1       8.920   5.822  12.995  0.00  0.00    +0.000 F 
ENDBRANCH  25  26
ENDBRANCH  24  25
ENDBRANCH  12  24
TORSDOF 6
ENDMDL
MODEL 8
REMARK VINA RESULT:      -7.8      1.325      1.533
REMARK  Name = 
REMARK  6 active torsions:
REMARK  status: ('A' for Active; 'I' for Inactive)
REMARK    1  A    between atoms: C_4  and  O_5
REMARK    2  A    between atoms: O_5  and  C_6
REMARK    3  A    between atoms: C_6  and  C_7
REMARK    4  A    between atoms: C_20  and  O_21
REMARK    5  A    between atoms: O_21  and  C_22
REMARK    6  A    between atoms: C_22  and  C_23
REMARK                            x       y       z     vdW  Elec       q    Type
REMARK                         _______ _______ _______ _____ _____    ______ ____
ROOT
ATOM      1  O   UNL     1       3.289   1.504  19.102  0.00  0.00    +0.000 OA
ATOM      2  C   UNL     1       3.480   2.597  18.572  0.00  0.00    +0.000 A 
ATOM      3  N   UNL     1       4.226   2.677  17.426  0.00  0.00    +0.000 NA
ATOM      4  C   UNL     1       4.406   3.857  16.953  0.00  0.00    +0.000 A 
ATOM      5  C   UNL     1       3.880   5.119  17.464  0.00  0.00    +0.000 A 
ATOM      6  C   UNL     1       3.118   5.029  18.559  0.00  0.00    +0.000 A 
ATOM      7  N   UNL     1       2.937   3.775  19.132  0.00  0.00    +0.000 N 
ATOM      8  C   UNL     1       2.196   3.581  20.366  0.00  0.00    +0.000 C 
ATOM      9  C   UNL     1       1.589   4.792  21.054  0.00  0.00    +0.000 C 
ATOM     10  C   UNL     1       1.766   6.109  20.364  0.00  0.00    +0.000 A 
ATOM     11  C   UNL     1       1.171   7.236  20.977  0.00  0.00    +0.000 A 
ATOM     12  C   UNL     1       1.253   8.498  20.409  0.00  0.00    +0.000 A 
ATOM     13  C   UNL     1       1.927   8.632  19.202  0.00  0.00    +0.000 A 
ATOM     14  C   UNL     1       2.529   7.518  18.589  0.00  0.00    +0.000 A 
ATOM     15  C   UNL     1       2.476   6.232  19.166  0.00  0.00    +0.000 A 
ENDROOT
BRANCH   4  16
ATOM     16  O   UNL     1       5.140   4.136  15.851  0.00  0.00    +0.000 OA
BRANCH  16  17
ATOM     17  C   UNL     1       5.634   5.483  15.646  0.00  0.00    +0.000 C 
BRANCH  17  18
ATOM     18  C   UNL     1       7.126   5.464  16.029  0.00  0.00    +0.000 C 
ATOM     19  C   UNL     1       7.452   4.411  17.095  0.00  0.00    +0.000 C 
ATOM     20  O   UNL     1       7.129   4.864  18.413  0.00  0.00    +0.000 OA
ATOM     21  C   UNL     1       7.880   6.050  18.699  0.00  0.00    +0.000 C 
ATOM     22  C   UNL     1       7.480   7.155  17.727  0.00  0.00    +0.000 C 
ATOM     23  O   UNL     1       7.661   6.763  16.363  0.00  0.00    +0.000 OA
ENDBRANCH  17  18
ENDBRANCH  16  17
ENDBRANCH   4  16
BRANCH  12  24
ATOM     24  O   UNL     1       0.710   9.646  20.928  0.00  0.00    +0.000 OA
BRANCH  24  25
ATOM     25  C   UNL     1      -0.503  10.100  20.324  0.00  0.00    +0.000 C 
BRANCH  25  26
ATOM     26  C   UNL     1      -0.682  11.589  20.569  0.00  0.00    +0.000 C 
ATOM     27  F   UNL     1      -1.244  12.153  19.466  0.00  0.00    +0.000 F 
ENDBRANCH  25  26
ENDBRANCH  24  25
ENDBRANCH  12  24
TORSDOF 6
ENDMDL
MODEL 9
REMARK VINA RESULT:      -7.8      3.121      7.581
REMARK  Name = 
REMARK  6 active torsions:
REMARK  status: ('A' for Active; 'I' for Inactive)
REMARK    1  A    between atoms: C_4  and  O_5
REMARK    2  A    between atoms: O_5  and  C_6
REMARK    3  A    between atoms: C_6  and  C_7
REMARK    4  A    between atoms: C_20  and  O_21
REMARK    5  A    between atoms: O_21  and  C_22
REMARK    6  A    between atoms: C_22  and  C_23
REMARK                            x       y       z     vdW  Elec       q    Type
REMARK                         _______ _______ _______ _____ _____    ______ ____
ROOT
ATOM      1  O   UNL     1       1.486   4.052  21.234  0.00  0.00    +0.000 OA
ATOM      2  C   UNL     1       1.844   5.012  20.553  0.00  0.00    +0.000 A 
ATOM      3  N   UNL     1       1.475   6.280  20.916  0.00  0.00    +0.000 NA
ATOM      4  C   UNL     1       1.861   7.224  20.136  0.00  0.00    +0.000 A 
ATOM      5  C   UNL     1       2.679   7.116  18.933  0.00  0.00    +0.000 A 
ATOM      6  C   UNL     1       3.071   5.879  18.608  0.00  0.00    +0.000 A 
ATOM      7  N   UNL     1       2.634   4.823  19.398  0.00  0.00    +0.000 N 
ATOM      8  C   UNL     1       2.936   3.436  19.084  0.00  0.00    +0.000 C 
ATOM      9  C   UNL     1       3.766   3.130  17.849  0.00  0.00    +0.000 C 
ATOM     10  C   UNL     1       4.257   4.308  17.066  0.00  0.00    +0.000 A 
ATOM     11  C   UNL     1       5.063   4.033  15.937  0.00  0.00    +0.000 A 
ATOM     12  C   UNL     1       5.591   5.052  15.157  0.00  0.00    +0.000 A 
ATOM     13  C   UNL     1       5.320   6.364  15.522  0.00  0.00    +0.000 A 
ATOM     14  C   UNL     1       4.513   6.647  16.639  0.00  0.00    +0.000 A 
ATOM     15  C   UNL     1       3.949   5.622  17.427  0.00  0.00    +0.000 A 
ENDROOT
BRANCH   4  16
ATOM     16  O   UNL     1       1.567   8.533  20.314  0.00  0.00    +0.000 OA
BRANCH  16  17
ATOM     17  C   UNL     1       0.473   8.904  21.190  0.00  0.00    +0.000 C 
BRANCH  17  18
ATOM     18  C   UNL     1       0.683  10.389  21.546  0.00  0.00    +0.000 C 
ATOM     19  C   UNL     1      -0.566  11.034  22.158  0.00  0.00    +0.000 C 
ATOM     20  O   UNL     1      -1.517  11.418  21.160  0.00  0.00    +0.000 OA
ATOM     21  C   UNL     1      -0.908  12.358  20.268  0.00  0.00    +0.000 C 
ATOM     22  C   UNL     1       0.265  11.697  19.551  0.00  0.00    +0.000 C 
ATOM     23  O   UNL     1       1.232  11.176  20.468  0.00  0.00    +0.000 OA
ENDBRANCH  17  18
ENDBRANCH  16  17
ENDBRANCH   4  16
BRANCH  12  24
ATOM     24  O   UNL     1       6.380   4.884  14.048  0.00  0.00    +0.000 OA
BRANCH  24  25
ATOM     25  C   UNL     1       6.455   3.557  13.522  0.00  0.00    +0.000 C 
BRANCH  25  26
ATOM     26  C   UNL     1       5.811   3.503  12.147  0.00  0.00    +0.000 C 
ATOM     27  F   UNL     1       4.465   3.653  12.285  0.00  0.00    +0.000 F 
ENDBRANCH  25  26
ENDBRANCH  24  25
ENDBRANCH  12  24
TORSDOF 6
ENDMDL
