MODEL 1
REMARK VINA RESULT:      -7.6      0.000      0.000
REMARK  Name = 
REMARK  9 active torsions:
REMARK  status: ('A' for Active; 'I' for Inactive)
REMARK    1  A    between atoms: C_1  and  N_2
REMARK    2  A    between atoms: N_5  and  C_6
REMARK    3  A    between atoms: C_6  and  C_7
REMARK    4  A    between atoms: C_6  and  C_17
REMARK    5  A    between atoms: C_11  and  C_12
REMARK    6  A    between atoms: N_21  and  C_22
REMARK    7  A    between atoms: C_22  and  C_23
REMARK    8  A    between atoms: C_22  and  C_24
REMARK    9  A    between atoms: C_22  and  C_25
REMARK                            x       y       z     vdW  Elec       q    Type
REMARK                         _______ _______ _______ _____ _____    ______ ____
ROOT
ATOM      1  C   UNL     1       3.394   5.951  18.275  0.00  0.00    +0.000 C 
ENDROOT
BRANCH   1   6
ATOM      2  C   UNL     1       8.070   4.391  17.868  0.00  0.00    +0.000 C 
ATOM      3  N   UNL     1       7.045   5.155  17.154  0.00  0.00    +0.000 NA
ATOM      4  C   UNL     1       6.592   6.299  17.957  0.00  0.00    +0.000 C 
ATOM      5  C   UNL     1       5.412   7.044  17.292  0.00  0.00    +0.000 C 
ATOM      6  N   UNL     1       4.215   6.200  17.052  0.00  0.00    +0.000 NA
ATOM      7  C   UNL     1       4.644   5.021  16.280  0.00  0.00    +0.000 C 
ATOM      8  C   UNL     1       5.924   4.287  16.765  0.00  0.00    +0.000 C 
ENDBRANCH   1   6
BRANCH   1   9
ATOM      9  C   UNL     1       2.545   7.214  18.565  0.00  0.00    +0.000 A 
ATOM     10  C   UNL     1       2.382   8.203  17.572  0.00  0.00    +0.000 A 
ATOM     11  C   UNL     1       1.678   9.379  17.829  0.00  0.00    +0.000 A 
ATOM     12  C   UNL     1       1.123   9.594  19.088  0.00  0.00    +0.000 A 
ATOM     13  C   UNL     1       1.271   8.632  20.099  0.00  0.00    +0.000 A 
ATOM     14  C   UNL     1       1.978   7.447  19.826  0.00  0.00    +0.000 A 
BRANCH  13  15
ATOM     15  C   UNL     1       0.694   8.863  21.475  0.00  0.00    +0.000 C 
ATOM     16  F   UNL     1      -0.430   8.139  21.733  0.00  0.00    +0.000 F 
ATOM     17  F   UNL     1       1.580   8.551  22.463  0.00  0.00    +0.000 F 
ATOM     18  F   UNL     1       0.354  10.166  21.677  0.00  0.00    +0.000 F 
ENDBRANCH  13  15
ENDBRANCH   1   9
BRANCH   1  19
ATOM     19  C   UNL     1       2.438   4.763  18.168  0.00  0.00    +0.000 A 
ATOM     20  N   UNL     1       1.348   4.741  17.413  0.00  0.00    +0.000 NA
ATOM     21  N   UNL     1       0.662   3.608  17.725  0.00  0.00    +0.000 NA
ATOM     22  N   UNL     1       1.308   2.900  18.630  0.00  0.00    +0.000 NA
ATOM     23  N   UNL     1       2.448   3.575  18.895  0.00  0.00    +0.000 N 
BRANCH  23  24
ATOM     24  C   UNL     1       3.455   2.937  19.754  0.00  0.00    +0.000 C 
ATOM     25  C   UNL     1       4.711   3.830  19.971  0.00  0.00    +0.000 C 
ATOM     26  C   UNL     1       2.874   2.714  21.158  0.00  0.00    +0.000 C 
ATOM     27  C   UNL     1       3.962   1.622  19.149  0.00  0.00    +0.000 C 
ENDBRANCH  23  24
ENDBRANCH   1  19
TORSDOF 5
ENDMDL
MODEL 2
REMARK VINA RESULT:      -7.6      0.558      1.344
REMARK  Name = 
REMARK  9 active torsions:
REMARK  status: ('A' for Active; 'I' for Inactive)
REMARK    1  A    between atoms: C_1  and  N_2
REMARK    2  A    between atoms: N_5  and  C_6
REMARK    3  A    between atoms: C_6  and  C_7
REMARK    4  A    between atoms: C_6  and  C_17
REMARK    5  A    between atoms: C_11  and  C_12
REMARK    6  A    between atoms: N_21  and  C_22
REMARK    7  A    between atoms: C_22  and  C_23
REMARK    8  A    between atoms: C_22  and  C_24
REMARK    9  A    between atoms: C_22  and  C_25
REMARK                            x       y       z     vdW  Elec       q    Type
REMARK                         _______ _______ _______ _____ _____    ______ ____
ROOT
ATOM      1  C   UNL     1       3.243   5.816  18.390  0.00  0.00    +0.000 C 
ENDROOT
BRANCH   1   6
ATOM      2  C   UNL     1       8.010   4.527  18.106  0.00  0.00    +0.000 C 
ATOM      3  N   UNL     1       6.932   5.130  17.320  0.00  0.00    +0.000 NA
ATOM      4  C   UNL     1       6.408   6.331  17.985  0.00  0.00    +0.000 C 
ATOM      5  C   UNL     1       5.178   6.910  17.252  0.00  0.00    +0.000 C 
ATOM      6  N   UNL     1       4.038   5.966  17.135  0.00  0.00    +0.000 NA
ATOM      7  C   UNL     1       4.539   4.733  16.505  0.00  0.00    +0.000 C 
ATOM      8  C   UNL     1       5.868   4.149  17.056  0.00  0.00    +0.000 C 
ENDBRANCH   1   6
BRANCH   1   9
ATOM      9  C   UNL     1       2.460   7.129  18.641  0.00  0.00    +0.000 A 
ATOM     10  C   UNL     1       2.330   8.084  17.610  0.00  0.00    +0.000 A 
ATOM     11  C   UNL     1       1.686   9.302  17.828  0.00  0.00    +0.000 A 
ATOM     12  C   UNL     1       1.162   9.594  19.085  0.00  0.00    +0.000 A 
ATOM     13  C   UNL     1       1.279   8.668  20.132  0.00  0.00    +0.000 A 
ATOM     14  C   UNL     1       1.925   7.439  19.899  0.00  0.00    +0.000 A 
BRANCH  13  15
ATOM     15  C   UNL     1       0.735   8.981  21.505  0.00  0.00    +0.000 C 
ATOM     16  F   UNL     1       0.411  10.291  21.686  0.00  0.00    +0.000 F 
ATOM     17  F   UNL     1      -0.393   8.270  21.786  0.00  0.00    +0.000 F 
ATOM     18  F   UNL     1       1.623   8.675  22.491  0.00  0.00    +0.000 F 
ENDBRANCH  13  15
ENDBRANCH   1   9
BRANCH   1  19
ATOM     19  C   UNL     1       2.233   4.669  18.370  0.00  0.00    +0.000 A 
ATOM     20  N   UNL     1       1.382   4.435  17.381  0.00  0.00    +0.000 NA
ATOM     21  N   UNL     1       0.526   3.464  17.803  0.00  0.00    +0.000 NA
ATOM     22  N   UNL     1       0.839   3.057  19.017  0.00  0.00    +0.000 NA
ATOM     23  N   UNL     1       1.933   3.761  19.383  0.00  0.00    +0.000 N 
BRANCH  23  24
ATOM     24  C   UNL     1       2.611   3.400  20.635  0.00  0.00    +0.000 C 
ATOM     25  C   UNL     1       1.861   2.288  21.425  0.00  0.00    +0.000 C 
ATOM     26  C   UNL     1       3.994   2.810  20.326  0.00  0.00    +0.000 C 
ATOM     27  C   UNL     1       2.721   4.601  21.584  0.00  0.00    +0.000 C 
ENDBRANCH  23  24
ENDBRANCH   1  19
TORSDOF 5
ENDMDL
MODEL 3
REMARK VINA RESULT:      -7.6      0.053      1.100
REMARK  Name = 
REMARK  9 active torsions:
REMARK  status: ('A' for Active; 'I' for Inactive)
REMARK    1  A    between atoms: C_1  and  N_2
REMARK    2  A    between atoms: N_5  and  C_6
REMARK    3  A    between atoms: C_6  and  C_7
REMARK    4  A    between atoms: C_6  and  C_17
REMARK    5  A    between atoms: C_11  and  C_12
REMARK    6  A    between atoms: N_21  and  C_22
REMARK    7  A    between atoms: C_22  and  C_23
REMARK    8  A    between atoms: C_22  and  C_24
REMARK    9  A    between atoms: C_22  and  C_25
REMARK                            x       y       z     vdW  Elec       q    Type
REMARK                         _______ _______ _______ _____ _____    ______ ____
ROOT
ATOM      1  C   UNL     1       3.395   5.958  18.276  0.00  0.00    +0.000 C 
ENDROOT
BRANCH   1   6
ATOM      2  C   UNL     1       8.067   4.396  17.839  0.00  0.00    +0.000 C 
ATOM      3  N   UNL     1       7.037   5.157  17.130  0.00  0.00    +0.000 NA
ATOM      4  C   UNL     1       6.590   6.305  17.932  0.00  0.00    +0.000 C 
ATOM      5  C   UNL     1       5.405   7.047  17.272  0.00  0.00    +0.000 C 
ATOM      6  N   UNL     1       4.206   6.201  17.046  0.00  0.00    +0.000 NA
ATOM      7  C   UNL     1       4.629   5.019  16.276  0.00  0.00    +0.000 C 
ATOM      8  C   UNL     1       5.913   4.287  16.754  0.00  0.00    +0.000 C 
ENDBRANCH   1   6
BRANCH   1   9
ATOM      9  C   UNL     1       2.541   7.219  18.562  0.00  0.00    +0.000 A 
ATOM     10  C   UNL     1       2.369   8.201  17.563  0.00  0.00    +0.000 A 
ATOM     11  C   UNL     1       1.659   9.374  17.815  0.00  0.00    +0.000 A 
ATOM     12  C   UNL     1       1.110   9.595  19.076  0.00  0.00    +0.000 A 
ATOM     13  C   UNL     1       1.266   8.641  20.092  0.00  0.00    +0.000 A 
ATOM     14  C   UNL     1       1.978   7.457  19.824  0.00  0.00    +0.000 A 
BRANCH  13  15
ATOM     15  C   UNL     1       0.695   8.878  21.469  0.00  0.00    +0.000 C 
ATOM     16  F   UNL     1       1.546   8.563  22.484  0.00  0.00    +0.000 F 
ATOM     17  F   UNL     1       0.342  10.181  21.662  0.00  0.00    +0.000 F 
ATOM     18  F   UNL     1      -0.435   8.150  21.689  0.00  0.00    +0.000 F 
ENDBRANCH  13  15
ENDBRANCH   1   9
BRANCH   1  19
ATOM     19  C   UNL     1       2.445   4.764  18.186  0.00  0.00    +0.000 A 
ATOM     20  N   UNL     1       1.372   4.715  17.409  0.00  0.00    +0.000 NA
ATOM     21  N   UNL     1       0.682   3.590  17.741  0.00  0.00    +0.000 NA
ATOM     22  N   UNL     1       1.311   2.913  18.681  0.00  0.00    +0.000 NA
ATOM     23  N   UNL     1       2.443   3.599  18.950  0.00  0.00    +0.000 N 
BRANCH  23  24
ATOM     24  C   UNL     1       3.433   2.992  19.850  0.00  0.00    +0.000 C 
ATOM     25  C   UNL     1       3.990   1.644  19.307  0.00  0.00    +0.000 C 
ATOM     26  C   UNL     1       4.656   3.912  19.973  0.00  0.00    +0.000 C 
ATOM     27  C   UNL     1       2.830   2.685  21.227  0.00  0.00    +0.000 C 
ENDBRANCH  23  24
ENDBRANCH   1  19
TORSDOF 5
ENDMDL
MODEL 4
REMARK VINA RESULT:      -7.1      1.313      3.954
REMARK  Name = 
REMARK  9 active torsions:
REMARK  status: ('A' for Active; 'I' for Inactive)
REMARK    1  A    between atoms: C_1  and  N_2
REMARK    2  A    between atoms: N_5  and  C_6
REMARK    3  A    between atoms: C_6  and  C_7
REMARK    4  A    between atoms: C_6  and  C_17
REMARK    5  A    between atoms: C_11  and  C_12
REMARK    6  A    between atoms: N_21  and  C_22
REMARK    7  A    between atoms: C_22  and  C_23
REMARK    8  A    between atoms: C_22  and  C_24
REMARK    9  A    between atoms: C_22  and  C_25
REMARK                            x       y       z     vdW  Elec       q    Type
REMARK                         _______ _______ _______ _____ _____    ______ ____
ROOT
ATOM      1  C   UNL     1       2.989   5.556  18.234  0.00  0.00    +0.000 C 
ENDROOT
BRANCH   1   6
ATOM      2  C   UNL     1       4.072   0.732  18.364  0.00  0.00    +0.000 C 
ATOM      3  N   UNL     1       3.088   1.704  18.844  0.00  0.00    +0.000 NA
ATOM      4  C   UNL     1       2.458   2.409  17.720  0.00  0.00    +0.000 C 
ATOM      5  C   UNL     1       1.517   3.539  18.197  0.00  0.00    +0.000 C 
ATOM      6  N   UNL     1       2.182   4.577  19.023  0.00  0.00    +0.000 NA
ATOM      7  C   UNL     1       2.857   3.897  20.141  0.00  0.00    +0.000 C 
ATOM      8  C   UNL     1       3.703   2.641  19.797  0.00  0.00    +0.000 C 
ENDBRANCH   1   6
BRANCH   1   9
ATOM      9  C   UNL     1       2.466   6.983  18.534  0.00  0.00    +0.000 A 
ATOM     10  C   UNL     1       2.665   8.022  17.600  0.00  0.00    +0.000 A 
ATOM     11  C   UNL     1       2.263   9.329  17.872  0.00  0.00    +0.000 A 
ATOM     12  C   UNL     1       1.656   9.628  19.091  0.00  0.00    +0.000 A 
ATOM     13  C   UNL     1       1.449   8.619  20.043  0.00  0.00    +0.000 A 
ATOM     14  C   UNL     1       1.853   7.302  19.754  0.00  0.00    +0.000 A 
BRANCH  13  15
ATOM     15  C   UNL     1       0.813   8.934  21.376  0.00  0.00    +0.000 C 
ATOM     16  F   UNL     1       0.304  10.194  21.462  0.00  0.00    +0.000 F 
ATOM     17  F   UNL     1      -0.216   8.089  21.667  0.00  0.00    +0.000 F 
ATOM     18  F   UNL     1       1.695   8.815  22.406  0.00  0.00    +0.000 F 
ENDBRANCH  13  15
ENDBRANCH   1   9
BRANCH   1  19
ATOM     19  C   UNL     1       4.487   5.536  18.537  0.00  0.00    +0.000 A 
ATOM     20  N   UNL     1       5.008   5.608  19.754  0.00  0.00    +0.000 NA
ATOM     21  N   UNL     1       6.353   5.756  19.611  0.00  0.00    +0.000 NA
ATOM     22  N   UNL     1       6.695   5.744  18.338  0.00  0.00    +0.000 NA
ATOM     23  N   UNL     1       5.552   5.562  17.640  0.00  0.00    +0.000 N 
BRANCH  23  24
ATOM     24  C   UNL     1       5.644   5.341  16.191  0.00  0.00    +0.000 C 
ATOM     25  C   UNL     1       7.109   5.130  15.708  0.00  0.00    +0.000 C 
ATOM     26  C   UNL     1       4.907   4.047  15.814  0.00  0.00    +0.000 C 
ATOM     27  C   UNL     1       5.099   6.539  15.402  0.00  0.00    +0.000 C 
ENDBRANCH  23  24
ENDBRANCH   1  19
TORSDOF 5
ENDMDL
MODEL 5
REMARK VINA RESULT:      -7.0      1.315      3.968
REMARK  Name = 
REMARK  9 active torsions:
REMARK  status: ('A' for Active; 'I' for Inactive)
REMARK    1  A    between atoms: C_1  and  N_2
REMARK    2  A    between atoms: N_5  and  C_6
REMARK    3  A    between atoms: C_6  and  C_7
REMARK    4  A    between atoms: C_6  and  C_17
REMARK    5  A    between atoms: C_11  and  C_12
REMARK    6  A    between atoms: N_21  and  C_22
REMARK    7  A    between atoms: C_22  and  C_23
REMARK    8  A    between atoms: C_22  and  C_24
REMARK    9  A    between atoms: C_22  and  C_25
REMARK                            x       y       z     vdW  Elec       q    Type
REMARK                         _______ _______ _______ _____ _____    ______ ____
ROOT
ATOM      1  C   UNL     1       3.006   5.515  18.233  0.00  0.00    +0.000 C 
ENDROOT
BRANCH   1   6
ATOM      2  C   UNL     1       4.105   0.695  18.384  0.00  0.00    +0.000 C 
ATOM      3  N   UNL     1       3.119   1.666  18.862  0.00  0.00    +0.000 NA
ATOM      4  C   UNL     1       2.484   2.365  17.735  0.00  0.00    +0.000 C 
ATOM      5  C   UNL     1       1.541   3.493  18.209  0.00  0.00    +0.000 C 
ATOM      6  N   UNL     1       2.204   4.538  19.029  0.00  0.00    +0.000 NA
ATOM      7  C   UNL     1       2.884   3.866  20.149  0.00  0.00    +0.000 C 
ATOM      8  C   UNL     1       3.733   2.610  19.808  0.00  0.00    +0.000 C 
ENDBRANCH   1   6
BRANCH   1   9
ATOM      9  C   UNL     1       2.474   6.942  18.520  0.00  0.00    +0.000 A 
ATOM     10  C   UNL     1       2.664   7.973  17.576  0.00  0.00    +0.000 A 
ATOM     11  C   UNL     1       2.253   9.280  17.836  0.00  0.00    +0.000 A 
ATOM     12  C   UNL     1       1.646   9.586  19.052  0.00  0.00    +0.000 A 
ATOM     13  C   UNL     1       1.446   8.585  20.013  0.00  0.00    +0.000 A 
ATOM     14  C   UNL     1       1.859   7.268  19.737  0.00  0.00    +0.000 A 
BRANCH  13  15
ATOM     15  C   UNL     1       0.809   8.908  21.344  0.00  0.00    +0.000 C 
ATOM     16  F   UNL     1       1.625   8.699  22.414  0.00  0.00    +0.000 F 
ATOM     17  F   UNL     1       0.409  10.209  21.420  0.00  0.00    +0.000 F 
ATOM     18  F   UNL     1      -0.307   8.161  21.574  0.00  0.00    +0.000 F 
ENDBRANCH  13  15
ENDBRANCH   1   9
BRANCH   1  19
ATOM     19  C   UNL     1       4.504   5.508  18.538  0.00  0.00    +0.000 A 
ATOM     20  N   UNL     1       5.022   5.586  19.756  0.00  0.00    +0.000 NA
ATOM     21  N   UNL     1       6.366   5.744  19.616  0.00  0.00    +0.000 NA
ATOM     22  N   UNL     1       6.710   5.733  18.343  0.00  0.00    +0.000 NA
ATOM     23  N   UNL     1       5.570   5.541  17.644  0.00  0.00    +0.000 N 
BRANCH  23  24
ATOM     24  C   UNL     1       5.667   5.318  16.195  0.00  0.00    +0.000 C 
ATOM     25  C   UNL     1       5.136   6.524  15.366  0.00  0.00    +0.000 C 
ATOM     26  C   UNL     1       7.140   5.170  15.789  0.00  0.00    +0.000 C 
ATOM     27  C   UNL     1       4.845   4.100  15.755  0.00  0.00    +0.000 C 
ENDBRANCH  23  24
ENDBRANCH   1  19
TORSDOF 5
ENDMDL
MODEL 6
REMARK VINA RESULT:      -6.7      1.436      2.038
REMARK  Name = 
REMARK  9 active torsions:
REMARK  status: ('A' for Active; 'I' for Inactive)
REMARK    1  A    between atoms: C_1  and  N_2
REMARK    2  A    between atoms: N_5  and  C_6
REMARK    3  A    between atoms: C_6  and  C_7
REMARK    4  A    between atoms: C_6  and  C_17
REMARK    5  A    between atoms: C_11  and  C_12
REMARK    6  A    between atoms: N_21  and  C_22
REMARK    7  A    between atoms: C_22  and  C_23
REMARK    8  A    between atoms: C_22  and  C_24
REMARK    9  A    between atoms: C_22  and  C_25
REMARK                            x       y       z     vdW  Elec       q    Type
REMARK                         _______ _______ _______ _____ _____    ______ ____
ROOT
ATOM      1  C   UNL     1       3.357   5.677  18.637  0.00  0.00    +0.000 C 
ENDROOT
BRANCH   1   6
ATOM      2  C   UNL     1       8.004   4.414  17.511  0.00  0.00    +0.000 C 
ATOM      3  N   UNL     1       6.900   5.261  17.057  0.00  0.00    +0.000 NA
ATOM      4  C   UNL     1       6.501   6.208  18.108  0.00  0.00    +0.000 C 
ATOM      5  C   UNL     1       5.248   7.020  17.712  0.00  0.00    +0.000 C 
ATOM      6  N   UNL     1       4.051   6.191  17.419  0.00  0.00    +0.000 NA
ATOM      7  C   UNL     1       4.429   5.204  16.394  0.00  0.00    +0.000 C 
ATOM      8  C   UNL     1       5.765   4.441  16.606  0.00  0.00    +0.000 C 
ENDBRANCH   1   6
BRANCH   1   9
ATOM      9  C   UNL     1       2.542   6.833  19.268  0.00  0.00    +0.000 A 
ATOM     10  C   UNL     1       2.023   6.705  20.575  0.00  0.00    +0.000 A 
ATOM     11  C   UNL     1       1.233   7.704  21.142  0.00  0.00    +0.000 A 
ATOM     12  C   UNL     1       0.939   8.853  20.412  0.00  0.00    +0.000 A 
ATOM     13  C   UNL     1       1.435   9.009  19.109  0.00  0.00    +0.000 A 
ATOM     14  C   UNL     1       2.238   7.998  18.550  0.00  0.00    +0.000 A 
BRANCH  13  15
ATOM     15  C   UNL     1       1.105  10.240  18.299  0.00  0.00    +0.000 C 
ATOM     16  F   UNL     1       0.797  11.332  19.052  0.00  0.00    +0.000 F 
ATOM     17  F   UNL     1       2.137  10.616  17.491  0.00  0.00    +0.000 F 
ATOM     18  F   UNL     1       0.040  10.042  17.475  0.00  0.00    +0.000 F 
ENDBRANCH  13  15
ENDBRANCH   1   9
BRANCH   1  19
ATOM     19  C   UNL     1       2.394   4.518  18.379  0.00  0.00    +0.000 A 
ATOM     20  N   UNL     1       1.294   4.605  17.645  0.00  0.00    +0.000 NA
ATOM     21  N   UNL     1       0.607   3.441  17.804  0.00  0.00    +0.000 NA
ATOM     22  N   UNL     1       1.263   2.612  18.591  0.00  0.00    +0.000 NA
ATOM     23  N   UNL     1       2.410   3.240  18.932  0.00  0.00    +0.000 N 
BRANCH  23  24
ATOM     24  C   UNL     1       3.426   2.485  19.678  0.00  0.00    +0.000 C 
ATOM     25  C   UNL     1       4.801   3.213  19.724  0.00  0.00    +0.000 C 
ATOM     26  C   UNL     1       2.996   2.346  21.145  0.00  0.00    +0.000 C 
ATOM     27  C   UNL     1       3.687   1.112  19.044  0.00  0.00    +0.000 C 
ENDBRANCH  23  24
ENDBRANCH   1  19
TORSDOF 5
ENDMDL
MODEL 7
REMARK VINA RESULT:      -6.7      7.286      9.639
REMARK  Name = 
REMARK  9 active torsions:
REMARK  status: ('A' for Active; 'I' for Inactive)
REMARK    1  A    between atoms: C_1  and  N_2
REMARK    2  A    between atoms: N_5  and  C_6
REMARK    3  A    between atoms: C_6  and  C_7
REMARK    4  A    between atoms: C_6  and  C_17
REMARK    5  A    between atoms: C_11  and  C_12
REMARK    6  A    between atoms: N_21  and  C_22
REMARK    7  A    between atoms: C_22  and  C_23
REMARK    8  A    between atoms: C_22  and  C_24
REMARK    9  A    between atoms: C_22  and  C_25
REMARK                            x       y       z     vdW  Elec       q    Type
REMARK                         _______ _______ _______ _____ _____    ______ ____
ROOT
ATOM      1  C   UNL     1      -0.780  12.741  20.273  0.00  0.00    +0.000 C 
ENDROOT
BRANCH   1   6
ATOM      2  C   UNL     1       0.107  17.604  20.110  0.00  0.00    +0.000 C 
ATOM      3  N   UNL     1       0.736  16.309  19.841  0.00  0.00    +0.000 NA
ATOM      4  C   UNL     1      -0.038  15.547  18.851  0.00  0.00    +0.000 C 
ATOM      5  C   UNL     1       0.522  14.121  18.650  0.00  0.00    +0.000 C 
ATOM      6  N   UNL     1       0.550  13.297  19.884  0.00  0.00    +0.000 NA
ATOM      7  C   UNL     1       1.288  14.052  20.911  0.00  0.00    +0.000 C 
ATOM      8  C   UNL     1       0.920  15.550  21.087  0.00  0.00    +0.000 C 
ENDBRANCH   1   6
BRANCH   1   9
ATOM      9  C   UNL     1      -1.231  11.732  19.186  0.00  0.00    +0.000 A 
ATOM     10  C   UNL     1      -0.322  10.774  18.687  0.00  0.00    +0.000 A 
ATOM     11  C   UNL     1      -0.682   9.897  17.665  0.00  0.00    +0.000 A 
ATOM     12  C   UNL     1      -1.959   9.963  17.113  0.00  0.00    +0.000 A 
ATOM     13  C   UNL     1      -2.884  10.907  17.582  0.00  0.00    +0.000 A 
ATOM     14  C   UNL     1      -2.512  11.782  18.620  0.00  0.00    +0.000 A 
BRANCH  13  15
ATOM     15  C   UNL     1      -4.264  11.004  16.977  0.00  0.00    +0.000 C 
ATOM     16  F   UNL     1      -4.415  10.290  15.827  0.00  0.00    +0.000 F 
ATOM     17  F   UNL     1      -5.231  10.559  17.828  0.00  0.00    +0.000 F 
ATOM     18  F   UNL     1      -4.600  12.287  16.668  0.00  0.00    +0.000 F 
ENDBRANCH  13  15
ENDBRANCH   1   9
BRANCH   1  19
ATOM     19  C   UNL     1      -0.798  12.014  21.617  0.00  0.00    +0.000 A 
ATOM     20  N   UNL     1       0.115  11.137  22.009  0.00  0.00    +0.000 NA
ATOM     21  N   UNL     1      -0.336  10.567  23.160  0.00  0.00    +0.000 NA
ATOM     22  N   UNL     1      -1.492  11.089  23.520  0.00  0.00    +0.000 NA
ATOM     23  N   UNL     1      -1.787  12.031  22.597  0.00  0.00    +0.000 N 
BRANCH  23  24
ATOM     24  C   UNL     1      -2.949  12.899  22.831  0.00  0.00    +0.000 C 
ATOM     25  C   UNL     1      -3.980  12.849  21.666  0.00  0.00    +0.000 C 
ATOM     26  C   UNL     1      -3.718  12.416  24.069  0.00  0.00    +0.000 C 
ATOM     27  C   UNL     1      -2.535  14.370  22.975  0.00  0.00    +0.000 C 
ENDBRANCH  23  24
ENDBRANCH   1  19
TORSDOF 5
ENDMDL
MODEL 8
REMARK VINA RESULT:      -6.6      1.435      2.209
REMARK  Name = 
REMARK  9 active torsions:
REMARK  status: ('A' for Active; 'I' for Inactive)
REMARK    1  A    between atoms: C_1  and  N_2
REMARK    2  A    between atoms: N_5  and  C_6
REMARK    3  A    between atoms: C_6  and  C_7
REMARK    4  A    between atoms: C_6  and  C_17
REMARK    5  A    between atoms: C_11  and  C_12
REMARK    6  A    between atoms: N_21  and  C_22
REMARK    7  A    between atoms: C_22  and  C_23
REMARK    8  A    between atoms: C_22  and  C_24
REMARK    9  A    between atoms: C_22  and  C_25
REMARK                            x       y       z     vdW  Elec       q    Type
REMARK                         _______ _______ _______ _____ _____    ______ ____
ROOT
ATOM      1  C   UNL     1       3.378   5.686  18.626  0.00  0.00    +0.000 C 
ENDROOT
BRANCH   1   6
ATOM      2  C   UNL     1       8.023   4.427  17.486  0.00  0.00    +0.000 C 
ATOM      3  N   UNL     1       6.918   5.275  17.037  0.00  0.00    +0.000 NA
ATOM      4  C   UNL     1       6.521   6.219  18.092  0.00  0.00    +0.000 C 
ATOM      5  C   UNL     1       5.267   7.032  17.701  0.00  0.00    +0.000 C 
ATOM      6  N   UNL     1       4.070   6.204  17.408  0.00  0.00    +0.000 NA
ATOM      7  C   UNL     1       4.445   5.220  16.379  0.00  0.00    +0.000 C 
ATOM      8  C   UNL     1       5.782   4.457  16.586  0.00  0.00    +0.000 C 
ENDBRANCH   1   6
BRANCH   1   9
ATOM      9  C   UNL     1       2.555   6.838  19.255  0.00  0.00    +0.000 A 
ATOM     10  C   UNL     1       2.029   6.705  20.558  0.00  0.00    +0.000 A 
ATOM     11  C   UNL     1       1.232   7.699  21.123  0.00  0.00    +0.000 A 
ATOM     12  C   UNL     1       0.937   8.849  20.394  0.00  0.00    +0.000 A 
ATOM     13  C   UNL     1       1.440   9.011  19.095  0.00  0.00    +0.000 A 
ATOM     14  C   UNL     1       2.250   8.003  18.537  0.00  0.00    +0.000 A 
BRANCH  13  15
ATOM     15  C   UNL     1       1.110  10.242  18.286  0.00  0.00    +0.000 C 
ATOM     16  F   UNL     1       2.124  10.664  17.480  0.00  0.00    +0.000 F 
ATOM     17  F   UNL     1       0.035  10.048  17.471  0.00  0.00    +0.000 F 
ATOM     18  F   UNL     1       0.792  11.305  19.075  0.00  0.00    +0.000 F 
ENDBRANCH  13  15
ENDBRANCH   1   9
BRANCH   1  19
ATOM     19  C   UNL     1       2.423   4.521  18.368  0.00  0.00    +0.000 A 
ATOM     20  N   UNL     1       1.320   4.601  17.637  0.00  0.00    +0.000 NA
ATOM     21  N   UNL     1       0.641   3.432  17.796  0.00  0.00    +0.000 NA
ATOM     22  N   UNL     1       1.306   2.606  18.578  0.00  0.00    +0.000 NA
ATOM     23  N   UNL     1       2.450   3.242  18.917  0.00  0.00    +0.000 N 
BRANCH  23  24
ATOM     24  C   UNL     1       3.474   2.493  19.658  0.00  0.00    +0.000 C 
ATOM     25  C   UNL     1       3.078   2.242  21.142  0.00  0.00    +0.000 C 
ATOM     26  C   UNL     1       3.640   1.095  19.045  0.00  0.00    +0.000 C 
ATOM     27  C   UNL     1       4.810   3.246  19.691  0.00  0.00    +0.000 C 
ENDBRANCH  23  24
ENDBRANCH   1  19
TORSDOF 5
ENDMDL
MODEL 9
REMARK VINA RESULT:      -6.5      1.490      4.433
REMARK  Name = 
REMARK  9 active torsions:
REMARK  status: ('A' for Active; 'I' for Inactive)
REMARK    1  A    between atoms: C_1  and  N_2
REMARK    2  A    between atoms: N_5  and  C_6
REMARK    3  A    between atoms: C_6  and  C_7
REMARK    4  A    between atoms: C_6  and  C_17
REMARK    5  A    between atoms: C_11  and  C_12
REMARK    6  A    between atoms: N_21  and  C_22
REMARK    7  A    between atoms: C_22  and  C_23
REMARK    8  A    between atoms: C_22  and  C_24
REMARK    9  A    between atoms: C_22  and  C_25
REMARK                            x       y       z     vdW  Elec       q    Type
REMARK                         _______ _______ _______ _____ _____    ______ ____
ROOT
ATOM      1  C   UNL     1       3.790   5.168  18.748  0.00  0.00    +0.000 C 
ENDROOT
BRANCH   1   6
ATOM      2  C   UNL     1       0.587   1.402  18.616  0.00  0.00    +0.000 C 
ATOM      3  N   UNL     1       1.384   2.203  19.547  0.00  0.00    +0.000 NA
ATOM      4  C   UNL     1       1.035   3.627  19.443  0.00  0.00    +0.000 C 
ATOM      5  C   UNL     1       1.956   4.514  20.311  0.00  0.00    +0.000 C 
ATOM      6  N   UNL     1       3.398   4.410  19.974  0.00  0.00    +0.000 NA
ATOM      7  C   UNL     1       3.771   2.987  20.031  0.00  0.00    +0.000 C 
ATOM      8  C   UNL     1       2.821   1.979  19.329  0.00  0.00    +0.000 C 
ENDBRANCH   1   6
BRANCH   1   9
ATOM      9  C   UNL     1       3.070   6.540  18.764  0.00  0.00    +0.000 A 
ATOM     10  C   UNL     1       3.174   7.408  17.656  0.00  0.00    +0.000 A 
ATOM     11  C   UNL     1       2.590   8.674  17.670  0.00  0.00    +0.000 A 
ATOM     12  C   UNL     1       1.892   9.103  18.796  0.00  0.00    +0.000 A 
ATOM     13  C   UNL     1       1.775   8.267  19.916  0.00  0.00    +0.000 A 
ATOM     14  C   UNL     1       2.363   6.988  19.888  0.00  0.00    +0.000 A 
BRANCH  13  15
ATOM     15  C   UNL     1       1.041   8.729  21.152  0.00  0.00    +0.000 C 
ATOM     16  F   UNL     1       0.558   9.999  21.067  0.00  0.00    +0.000 F 
ATOM     17  F   UNL     1      -0.030   7.936  21.441  0.00  0.00    +0.000 F 
ATOM     18  F   UNL     1       1.833   8.703  22.259  0.00  0.00    +0.000 F 
ENDBRANCH  13  15
ENDBRANCH   1   9
BRANCH   1  19
ATOM     19  C   UNL     1       5.290   5.432  18.616  0.00  0.00    +0.000 A 
ATOM     20  N   UNL     1       6.095   5.717  19.631  0.00  0.00    +0.000 NA
ATOM     21  N   UNL     1       7.299   6.073  19.106  0.00  0.00    +0.000 NA
ATOM     22  N   UNL     1       7.282   5.986  17.791  0.00  0.00    +0.000 NA
ATOM     23  N   UNL     1       6.051   5.543  17.456  0.00  0.00    +0.000 N 
BRANCH  23  24
ATOM     24  C   UNL     1       5.792   5.191  16.053  0.00  0.00    +0.000 C 
ATOM     25  C   UNL     1       7.079   4.751  15.297  0.00  0.00    +0.000 C 
ATOM     26  C   UNL     1       4.852   3.979  15.986  0.00  0.00    +0.000 C 
ATOM     27  C   UNL     1       5.219   6.380  15.269  0.00  0.00    +0.000 C 
ENDBRANCH  23  24
ENDBRANCH   1  19
TORSDOF 5
ENDMDL
