MODEL 1
REMARK VINA RESULT:      -6.7      0.000      0.000
REMARK  Name = 
REMARK  7 active torsions:
REMARK  status: ('A' for Active; 'I' for Inactive)
REMARK    1  A    between atoms: C_4  and  C_5
REMARK    2  A    between atoms: C_5  and  N_6
REMARK    3  A    between atoms: N_6  and  C_7
REMARK    4  A    between atoms: C_7  and  C_8
REMARK    5  A    between atoms: C_8  and  C_9
REMARK    6  A    between atoms: C_9  and  O_10
REMARK    7  A    between atoms: O_10  and  C_11
REMARK                            x       y       z     vdW  Elec       q    Type
REMARK                         _______ _______ _______ _____ _____    ______ ____
ROOT
ATOM      1  C   UNL     1       5.735   5.219  19.173  0.00  0.00    +0.000 C 
ENDROOT
BRANCH   1   2
ATOM      2  N   UNL     1       5.531   3.859  18.671  0.00  0.00    +0.000 NA
ATOM      3  H   UNL     1       6.192   3.665  17.916  0.00  0.00    +0.000 HD
BRANCH   2   4
ATOM      4  C   UNL     1       4.181   3.654  18.136  0.00  0.00    +0.000 C 
BRANCH   4   8
ATOM      5  C   UNL     1       1.322   3.014  21.222  0.00  0.00    +0.000 A 
ATOM      6  C   UNL     1       0.919   3.673  20.068  0.00  0.00    +0.000 A 
ATOM      7  C   UNL     1       1.848   3.905  19.060  0.00  0.00    +0.000 A 
ATOM      8  C   UNL     1       3.157   3.453  19.233  0.00  0.00    +0.000 A 
ATOM      9  N   UNL     1       3.570   2.820  20.361  0.00  0.00    +0.000 NA
ATOM     10  C   UNL     1       2.646   2.619  21.324  0.00  0.00    +0.000 A 
ENDBRANCH   4   8
ENDBRANCH   2   4
ENDBRANCH   1   2
BRANCH   1  11
ATOM     11  C   UNL     1       7.005   5.892  18.640  0.00  0.00    +0.000 C 
BRANCH  11  12
ATOM     12  C   UNL     1       6.995   5.973  17.117  0.00  0.00    +0.000 C 
BRANCH  12  13
ATOM     13  O   UNL     1       7.516   4.758  16.569  0.00  0.00    +0.000 OA
BRANCH  13  14
ATOM     14  C   UNL     1       7.214   4.640  15.224  0.00  0.00    +0.000 A 
ATOM     15  C   UNL     1       6.142   3.829  14.893  0.00  0.00    +0.000 A 
ATOM     16  C   UNL     1       5.819   3.685  13.547  0.00  0.00    +0.000 A 
ATOM     17  C   UNL     1       6.572   4.354  12.587  0.00  0.00    +0.000 A 
ATOM     18  C   UNL     1       7.623   5.146  13.016  0.00  0.00    +0.000 A 
ATOM     19  N   UNL     1       7.959   5.301  14.310  0.00  0.00    +0.000 NA
ENDBRANCH  13  14
ENDBRANCH  12  13
ENDBRANCH  11  12
ENDBRANCH   1  11
TORSDOF 7
ENDMDL
MODEL 2
REMARK VINA RESULT:      -6.5      1.508      6.633
REMARK  Name = 
REMARK  7 active torsions:
REMARK  status: ('A' for Active; 'I' for Inactive)
REMARK    1  A    between atoms: C_4  and  C_5
REMARK    2  A    between atoms: C_5  and  N_6
REMARK    3  A    between atoms: N_6  and  C_7
REMARK    4  A    between atoms: C_7  and  C_8
REMARK    5  A    between atoms: C_8  and  C_9
REMARK    6  A    between atoms: C_9  and  O_10
REMARK    7  A    between atoms: O_10  and  C_11
REMARK                            x       y       z     vdW  Elec       q    Type
REMARK                         _______ _______ _______ _____ _____    ______ ____
ROOT
ATOM      1  C   UNL     1       7.363   4.667  17.543  0.00  0.00    +0.000 C 
ENDROOT
BRANCH   1   2
ATOM      2  N   UNL     1       6.202   4.184  16.792  0.00  0.00    +0.000 NA
ATOM      3  H   UNL     1       6.426   3.297  16.337  0.00  0.00    +0.000 HD
BRANCH   2   4
ATOM      4  C   UNL     1       5.782   5.121  15.744  0.00  0.00    +0.000 C 
BRANCH   4   8
ATOM      5  C   UNL     1       7.351   4.146  11.911  0.00  0.00    +0.000 A 
ATOM      6  C   UNL     1       6.235   3.458  12.368  0.00  0.00    +0.000 A 
ATOM      7  C   UNL     1       5.723   3.753  13.627  0.00  0.00    +0.000 A 
ATOM      8  C   UNL     1       6.340   4.748  14.388  0.00  0.00    +0.000 A 
ATOM      9  N   UNL     1       7.441   5.419  13.961  0.00  0.00    +0.000 NA
ATOM     10  C   UNL     1       7.917   5.102  12.739  0.00  0.00    +0.000 A 
ENDBRANCH   4   8
ENDBRANCH   2   4
ENDBRANCH   1   2
BRANCH   1  11
ATOM     11  C   UNL     1       7.021   5.191  18.942  0.00  0.00    +0.000 C 
BRANCH  11  12
ATOM     12  C   UNL     1       5.541   5.004  19.261  0.00  0.00    +0.000 C 
BRANCH  12  13
ATOM     13  O   UNL     1       5.262   3.611  19.439  0.00  0.00    +0.000 OA
BRANCH  13  14
ATOM     14  C   UNL     1       3.939   3.321  19.158  0.00  0.00    +0.000 A 
ATOM     15  C   UNL     1       2.999   3.725  20.090  0.00  0.00    +0.000 A 
ATOM     16  C   UNL     1       1.659   3.440  19.838  0.00  0.00    +0.000 A 
ATOM     17  C   UNL     1       1.310   2.768  18.670  0.00  0.00    +0.000 A 
ATOM     18  C   UNL     1       2.322   2.410  17.796  0.00  0.00    +0.000 A 
ATOM     19  N   UNL     1       3.624   2.670  18.016  0.00  0.00    +0.000 NA
ENDBRANCH  13  14
ENDBRANCH  12  13
ENDBRANCH  11  12
ENDBRANCH   1  11
TORSDOF 7
ENDMDL
MODEL 3
REMARK VINA RESULT:      -6.4      1.699      1.933
REMARK  Name = 
REMARK  7 active torsions:
REMARK  status: ('A' for Active; 'I' for Inactive)
REMARK    1  A    between atoms: C_4  and  C_5
REMARK    2  A    between atoms: C_5  and  N_6
REMARK    3  A    between atoms: N_6  and  C_7
REMARK    4  A    between atoms: C_7  and  C_8
REMARK    5  A    between atoms: C_8  and  C_9
REMARK    6  A    between atoms: C_9  and  O_10
REMARK    7  A    between atoms: O_10  and  C_11
REMARK                            x       y       z     vdW  Elec       q    Type
REMARK                         _______ _______ _______ _____ _____    ______ ____
ROOT
ATOM      1  C   UNL     1       7.662   5.799  19.166  0.00  0.00    +0.000 C 
ENDROOT
BRANCH   1   2
ATOM      2  N   UNL     1       6.648   4.925  19.759  0.00  0.00    +0.000 NA
ATOM      3  H   UNL     1       6.760   3.973  19.405  0.00  0.00    +0.000 HD
BRANCH   2   4
ATOM      4  C   UNL     1       5.281   5.353  19.441  0.00  0.00    +0.000 C 
BRANCH   4   8
ATOM      5  C   UNL     1       3.010   2.146  17.809  0.00  0.00    +0.000 A 
ATOM      6  C   UNL     1       3.018   3.364  17.141  0.00  0.00    +0.000 A 
ATOM      7  C   UNL     1       3.741   4.426  17.674  0.00  0.00    +0.000 A 
ATOM      8  C   UNL     1       4.452   4.229  18.859  0.00  0.00    +0.000 A 
ATOM      9  N   UNL     1       4.441   3.050  19.532  0.00  0.00    +0.000 NA
ATOM     10  C   UNL     1       3.723   2.043  18.992  0.00  0.00    +0.000 A 
ENDBRANCH   4   8
ENDBRANCH   2   4
ENDBRANCH   1   2
BRANCH   1  11
ATOM     11  C   UNL     1       7.223   6.451  17.849  0.00  0.00    +0.000 C 
BRANCH  11  12
ATOM     12  C   UNL     1       7.246   5.450  16.698  0.00  0.00    +0.000 C 
BRANCH  12  13
ATOM     13  O   UNL     1       6.345   5.879  15.673  0.00  0.00    +0.000 OA
BRANCH  13  14
ATOM     14  C   UNL     1       6.566   5.199  14.489  0.00  0.00    +0.000 A 
ATOM     15  C   UNL     1       5.654   4.211  14.155  0.00  0.00    +0.000 A 
ATOM     16  C   UNL     1       5.856   3.504  12.973  0.00  0.00    +0.000 A 
ATOM     17  C   UNL     1       6.951   3.809  12.171  0.00  0.00    +0.000 A 
ATOM     18  C   UNL     1       7.804   4.816  12.586  0.00  0.00    +0.000 A 
ATOM     19  N   UNL     1       7.635   5.514  13.725  0.00  0.00    +0.000 NA
ENDBRANCH  13  14
ENDBRANCH  12  13
ENDBRANCH  11  12
ENDBRANCH   1  11
TORSDOF 7
ENDMDL
MODEL 4
REMARK VINA RESULT:      -6.3      1.277      1.319
REMARK  Name = 
REMARK  7 active torsions:
REMARK  status: ('A' for Active; 'I' for Inactive)
REMARK    1  A    between atoms: C_4  and  C_5
REMARK    2  A    between atoms: C_5  and  N_6
REMARK    3  A    between atoms: N_6  and  C_7
REMARK    4  A    between atoms: C_7  and  C_8
REMARK    5  A    between atoms: C_8  and  C_9
REMARK    6  A    between atoms: C_9  and  O_10
REMARK    7  A    between atoms: O_10  and  C_11
REMARK                            x       y       z     vdW  Elec       q    Type
REMARK                         _______ _______ _______ _____ _____    ______ ____
ROOT
ATOM      1  C   UNL     1       5.589   5.990  18.033  0.00  0.00    +0.000 C 
ENDROOT
BRANCH   1   2
ATOM      2  N   UNL     1       4.138   5.990  17.835  0.00  0.00    +0.000 NA
ATOM      3  H   UNL     1       3.671   6.317  18.683  0.00  0.00    +0.000 HD
BRANCH   2   4
ATOM      4  C   UNL     1       3.613   4.654  17.533  0.00  0.00    +0.000 C 
BRANCH   4   8
ATOM      5  C   UNL     1       1.077   3.133  20.593  0.00  0.00    +0.000 A 
ATOM      6  C   UNL     1       1.360   4.492  20.577  0.00  0.00    +0.000 A 
ATOM      7  C   UNL     1       2.203   4.999  19.594  0.00  0.00    +0.000 A 
ATOM      8  C   UNL     1       2.727   4.126  18.639  0.00  0.00    +0.000 A 
ATOM      9  N   UNL     1       2.472   2.792  18.650  0.00  0.00    +0.000 NA
ATOM     10  C   UNL     1       1.658   2.331  19.623  0.00  0.00    +0.000 A 
ENDBRANCH   4   8
ENDBRANCH   2   4
ENDBRANCH   1   2
BRANCH   1  11
ATOM     11  C   UNL     1       6.230   4.603  17.910  0.00  0.00    +0.000 C 
BRANCH  11  12
ATOM     12  C   UNL     1       7.385   4.609  16.913  0.00  0.00    +0.000 C 
BRANCH  12  13
ATOM     13  O   UNL     1       7.169   5.633  15.937  0.00  0.00    +0.000 OA
BRANCH  13  14
ATOM     14  C   UNL     1       7.068   5.103  14.663  0.00  0.00    +0.000 A 
ATOM     15  C   UNL     1       6.105   4.128  14.466  0.00  0.00    +0.000 A 
ATOM     16  C   UNL     1       5.986   3.570  13.196  0.00  0.00    +0.000 A 
ATOM     17  C   UNL     1       6.824   4.006  12.175  0.00  0.00    +0.000 A 
ATOM     18  C   UNL     1       7.753   4.990  12.468  0.00  0.00    +0.000 A 
ATOM     19  N   UNL     1       7.892   5.544  13.687  0.00  0.00    +0.000 NA
ENDBRANCH  13  14
ENDBRANCH  12  13
ENDBRANCH  11  12
ENDBRANCH   1  11
TORSDOF 7
ENDMDL
MODEL 5
REMARK VINA RESULT:      -6.3      1.927      6.624
REMARK  Name = 
REMARK  7 active torsions:
REMARK  status: ('A' for Active; 'I' for Inactive)
REMARK    1  A    between atoms: C_4  and  C_5
REMARK    2  A    between atoms: C_5  and  N_6
REMARK    3  A    between atoms: N_6  and  C_7
REMARK    4  A    between atoms: C_7  and  C_8
REMARK    5  A    between atoms: C_8  and  C_9
REMARK    6  A    between atoms: C_9  and  O_10
REMARK    7  A    between atoms: O_10  and  C_11
REMARK                            x       y       z     vdW  Elec       q    Type
REMARK                         _______ _______ _______ _____ _____    ______ ____
ROOT
ATOM      1  C   UNL     1       4.718   4.244  15.767  0.00  0.00    +0.000 C 
ENDROOT
BRANCH   1   2
ATOM      2  N   UNL     1       5.984   3.517  15.665  0.00  0.00    +0.000 NA
ATOM      3  H   UNL     1       6.160   3.001  16.530  0.00  0.00    +0.000 HD
BRANCH   2   4
ATOM      4  C   UNL     1       7.128   4.409  15.448  0.00  0.00    +0.000 C 
BRANCH   4   8
ATOM      5  C   UNL     1       7.941   6.933  18.776  0.00  0.00    +0.000 A 
ATOM      6  C   UNL     1       7.910   5.559  18.974  0.00  0.00    +0.000 A 
ATOM      7  C   UNL     1       7.627   4.724  17.899  0.00  0.00    +0.000 A 
ATOM      8  C   UNL     1       7.398   5.294  16.645  0.00  0.00    +0.000 A 
ATOM      9  N   UNL     1       7.410   6.636  16.439  0.00  0.00    +0.000 NA
ATOM     10  C   UNL     1       7.679   7.418  17.505  0.00  0.00    +0.000 A 
ENDBRANCH   4   8
ENDBRANCH   2   4
ENDBRANCH   1   2
BRANCH   1  11
ATOM     11  C   UNL     1       3.991   4.037  17.101  0.00  0.00    +0.000 C 
BRANCH  11  12
ATOM     12  C   UNL     1       3.838   5.351  17.862  0.00  0.00    +0.000 C 
BRANCH  12  13
ATOM     13  O   UNL     1       4.177   5.151  19.238  0.00  0.00    +0.000 OA
BRANCH  13  14
ATOM     14  C   UNL     1       3.225   4.384  19.886  0.00  0.00    +0.000 A 
ATOM     15  C   UNL     1       1.923   4.853  19.863  0.00  0.00    +0.000 A 
ATOM     16  C   UNL     1       0.944   4.107  20.514  0.00  0.00    +0.000 A 
ATOM     17  C   UNL     1       1.299   2.926  21.158  0.00  0.00    +0.000 A 
ATOM     18  C   UNL     1       2.627   2.536  21.121  0.00  0.00    +0.000 A 
ATOM     19  N   UNL     1       3.594   3.239  20.502  0.00  0.00    +0.000 NA
ENDBRANCH  13  14
ENDBRANCH  12  13
ENDBRANCH  11  12
ENDBRANCH   1  11
TORSDOF 7
ENDMDL
MODEL 6
REMARK VINA RESULT:      -6.3      3.568      5.375
REMARK  Name = 
REMARK  7 active torsions:
REMARK  status: ('A' for Active; 'I' for Inactive)
REMARK    1  A    between atoms: C_4  and  C_5
REMARK    2  A    between atoms: C_5  and  N_6
REMARK    3  A    between atoms: N_6  and  C_7
REMARK    4  A    between atoms: C_7  and  C_8
REMARK    5  A    between atoms: C_8  and  C_9
REMARK    6  A    between atoms: C_9  and  O_10
REMARK    7  A    between atoms: O_10  and  C_11
REMARK                            x       y       z     vdW  Elec       q    Type
REMARK                         _______ _______ _______ _____ _____    ______ ____
ROOT
ATOM      1  C   UNL     1       1.292   4.536  20.605  0.00  0.00    +0.000 C 
ENDROOT
BRANCH   1   2
ATOM      2  N   UNL     1       2.215   5.642  20.869  0.00  0.00    +0.000 NA
ATOM      3  H   UNL     1       1.734   6.381  21.384  0.00  0.00    +0.000 HD
BRANCH   2   4
ATOM      4  C   UNL     1       2.744   6.237  19.636  0.00  0.00    +0.000 C 
BRANCH   4   8
ATOM      5  C   UNL     1       0.989  10.040  18.882  0.00  0.00    +0.000 A 
ATOM      6  C   UNL     1       1.654   9.396  17.847  0.00  0.00    +0.000 A 
ATOM      7  C   UNL     1       2.249   8.162  18.085  0.00  0.00    +0.000 A 
ATOM      8  C   UNL     1       2.143   7.598  19.357  0.00  0.00    +0.000 A 
ATOM      9  N   UNL     1       1.509   8.221  20.384  0.00  0.00    +0.000 NA
ATOM     10  C   UNL     1       0.951   9.422  20.121  0.00  0.00    +0.000 A 
ENDBRANCH   4   8
ENDBRANCH   2   4
ENDBRANCH   1   2
BRANCH   1  11
ATOM     11  C   UNL     1       1.778   3.183  21.139  0.00  0.00    +0.000 C 
BRANCH  11  12
ATOM     12  C   UNL     1       2.420   2.348  20.036  0.00  0.00    +0.000 C 
BRANCH  12  13
ATOM     13  O   UNL     1       3.845   2.435  20.136  0.00  0.00    +0.000 OA
BRANCH  13  14
ATOM     14  C   UNL     1       4.381   3.176  19.098  0.00  0.00    +0.000 A 
ATOM     15  C   UNL     1       3.696   3.153  17.895  0.00  0.00    +0.000 A 
ATOM     16  C   UNL     1       4.215   3.883  16.830  0.00  0.00    +0.000 A 
ATOM     17  C   UNL     1       5.390   4.607  17.004  0.00  0.00    +0.000 A 
ATOM     18  C   UNL     1       6.001   4.573  18.246  0.00  0.00    +0.000 A 
ATOM     19  N   UNL     1       5.522   3.873  19.292  0.00  0.00    +0.000 NA
ENDBRANCH  13  14
ENDBRANCH  12  13
ENDBRANCH  11  12
ENDBRANCH   1  11
TORSDOF 7
ENDMDL
MODEL 7
REMARK VINA RESULT:      -6.2      1.879      7.196
REMARK  Name = 
REMARK  7 active torsions:
REMARK  status: ('A' for Active; 'I' for Inactive)
REMARK    1  A    between atoms: C_4  and  C_5
REMARK    2  A    between atoms: C_5  and  N_6
REMARK    3  A    between atoms: N_6  and  C_7
REMARK    4  A    between atoms: C_7  and  C_8
REMARK    5  A    between atoms: C_8  and  C_9
REMARK    6  A    between atoms: C_9  and  O_10
REMARK    7  A    between atoms: O_10  and  C_11
REMARK                            x       y       z     vdW  Elec       q    Type
REMARK                         _______ _______ _______ _____ _____    ______ ____
ROOT
ATOM      1  C   UNL     1       5.785   6.692  17.574  0.00  0.00    +0.000 C 
ENDROOT
BRANCH   1   2
ATOM      2  N   UNL     1       6.658   6.302  16.466  0.00  0.00    +0.000 NA
ATOM      3  H   UNL     1       6.458   6.878  15.646  0.00  0.00    +0.000 HD
BRANCH   2   4
ATOM      4  C   UNL     1       6.475   4.900  16.074  0.00  0.00    +0.000 C 
BRANCH   4   8
ATOM      5  C   UNL     1       7.220   4.358  11.919  0.00  0.00    +0.000 A 
ATOM      6  C   UNL     1       6.248   3.576  12.529  0.00  0.00    +0.000 A 
ATOM      7  C   UNL     1       6.008   3.729  13.890  0.00  0.00    +0.000 A 
ATOM      8  C   UNL     1       6.742   4.681  14.601  0.00  0.00    +0.000 A 
ATOM      9  N   UNL     1       7.707   5.442  14.022  0.00  0.00    +0.000 NA
ATOM     10  C   UNL     1       7.921   5.262  12.702  0.00  0.00    +0.000 A 
ENDBRANCH   4   8
ENDBRANCH   2   4
ENDBRANCH   1   2
BRANCH   1  11
ATOM     11  C   UNL     1       4.358   7.051  17.141  0.00  0.00    +0.000 C 
BRANCH  11  12
ATOM     12  C   UNL     1       3.321   6.420  18.064  0.00  0.00    +0.000 C 
BRANCH  12  13
ATOM     13  O   UNL     1       3.304   5.002  17.869  0.00  0.00    +0.000 OA
BRANCH  13  14
ATOM     14  C   UNL     1       2.561   4.366  18.847  0.00  0.00    +0.000 A 
ATOM     15  C   UNL     1       2.835   4.705  20.161  0.00  0.00    +0.000 A 
ATOM     16  C   UNL     1       2.108   4.076  21.167  0.00  0.00    +0.000 A 
ATOM     17  C   UNL     1       1.138   3.139  20.827  0.00  0.00    +0.000 A 
ATOM     18  C   UNL     1       0.931   2.870  19.485  0.00  0.00    +0.000 A 
ATOM     19  N   UNL     1       1.622   3.461  18.492  0.00  0.00    +0.000 NA
ENDBRANCH  13  14
ENDBRANCH  12  13
ENDBRANCH  11  12
ENDBRANCH   1  11
TORSDOF 7
ENDMDL
MODEL 8
REMARK VINA RESULT:      -6.2      1.109      1.376
REMARK  Name = 
REMARK  7 active torsions:
REMARK  status: ('A' for Active; 'I' for Inactive)
REMARK    1  A    between atoms: C_4  and  C_5
REMARK    2  A    between atoms: C_5  and  N_6
REMARK    3  A    between atoms: N_6  and  C_7
REMARK    4  A    between atoms: C_7  and  C_8
REMARK    5  A    between atoms: C_8  and  C_9
REMARK    6  A    between atoms: C_9  and  O_10
REMARK    7  A    between atoms: O_10  and  C_11
REMARK                            x       y       z     vdW  Elec       q    Type
REMARK                         _______ _______ _______ _____ _____    ______ ____
ROOT
ATOM      1  C   UNL     1       6.351   5.148  18.434  0.00  0.00    +0.000 C 
ENDROOT
BRANCH   1   2
ATOM      2  N   UNL     1       5.419   4.471  19.338  0.00  0.00    +0.000 NA
ATOM      3  H   UNL     1       5.117   3.585  18.926  0.00  0.00    +0.000 HD
BRANCH   2   4
ATOM      4  C   UNL     1       4.214   5.266  19.601  0.00  0.00    +0.000 C 
BRANCH   4   8
ATOM      5  C   UNL     1       0.712   2.849  19.588  0.00  0.00    +0.000 A 
ATOM      6  C   UNL     1       1.308   3.164  18.374  0.00  0.00    +0.000 A 
ATOM      7  C   UNL     1       2.442   3.969  18.363  0.00  0.00    +0.000 A 
ATOM      8  C   UNL     1       2.958   4.423  19.578  0.00  0.00    +0.000 A 
ATOM      9  N   UNL     1       2.378   4.136  20.772  0.00  0.00    +0.000 NA
ATOM     10  C   UNL     1       1.274   3.360  20.746  0.00  0.00    +0.000 A 
ENDBRANCH   4   8
ENDBRANCH   2   4
ENDBRANCH   1   2
BRANCH   1  11
ATOM     11  C   UNL     1       5.700   6.245  17.583  0.00  0.00    +0.000 C 
BRANCH  11  12
ATOM     12  C   UNL     1       5.491   5.783  16.144  0.00  0.00    +0.000 C 
BRANCH  12  13
ATOM     13  O   UNL     1       6.338   4.662  15.872  0.00  0.00    +0.000 OA
BRANCH  13  14
ATOM     14  C   UNL     1       6.681   4.602  14.534  0.00  0.00    +0.000 A 
ATOM     15  C   UNL     1       5.985   3.699  13.749  0.00  0.00    +0.000 A 
ATOM     16  C   UNL     1       6.314   3.610  12.399  0.00  0.00    +0.000 A 
ATOM     17  C   UNL     1       7.319   4.424  11.885  0.00  0.00    +0.000 A 
ATOM     18  C   UNL     1       7.955   5.300  12.747  0.00  0.00    +0.000 A 
ATOM     19  N   UNL     1       7.659   5.404  14.056  0.00  0.00    +0.000 NA
ENDBRANCH  13  14
ENDBRANCH  12  13
ENDBRANCH  11  12
ENDBRANCH   1  11
TORSDOF 7
ENDMDL
MODEL 9
REMARK VINA RESULT:      -6.2      1.973      7.385
REMARK  Name = 
REMARK  7 active torsions:
REMARK  status: ('A' for Active; 'I' for Inactive)
REMARK    1  A    between atoms: C_4  and  C_5
REMARK    2  A    between atoms: C_5  and  N_6
REMARK    3  A    between atoms: N_6  and  C_7
REMARK    4  A    between atoms: C_7  and  C_8
REMARK    5  A    between atoms: C_8  and  C_9
REMARK    6  A    between atoms: C_9  and  O_10
REMARK    7  A    between atoms: O_10  and  C_11
REMARK                            x       y       z     vdW  Elec       q    Type
REMARK                         _______ _______ _______ _____ _____    ______ ____
ROOT
ATOM      1  C   UNL     1       4.721   3.922  17.723  0.00  0.00    +0.000 C 
ENDROOT
BRANCH   1   2
ATOM      2  N   UNL     1       5.457   3.557  16.511  0.00  0.00    +0.000 NA
ATOM      3  H   UNL     1       5.959   2.679  16.660  0.00  0.00    +0.000 HD
BRANCH   2   4
ATOM      4  C   UNL     1       6.448   4.570  16.129  0.00  0.00    +0.000 C 
BRANCH   4   8
ATOM      5  C   UNL     1       7.319   4.540  11.964  0.00  0.00    +0.000 A 
ATOM      6  C   UNL     1       6.359   3.662  12.450  0.00  0.00    +0.000 A 
ATOM      7  C   UNL     1       6.079   3.648  13.812  0.00  0.00    +0.000 A 
ATOM      8  C   UNL     1       6.761   4.532  14.649  0.00  0.00    +0.000 A 
ATOM      9  N   UNL     1       7.713   5.386  14.192  0.00  0.00    +0.000 NA
ATOM     10  C   UNL     1       7.968   5.367  12.867  0.00  0.00    +0.000 A 
ENDBRANCH   4   8
ENDBRANCH   2   4
ENDBRANCH   1   2
BRANCH   1  11
ATOM     11  C   UNL     1       4.482   5.429  17.872  0.00  0.00    +0.000 C 
BRANCH  11  12
ATOM     12  C   UNL     1       2.997   5.767  17.797  0.00  0.00    +0.000 C 
BRANCH  12  13
ATOM     13  O   UNL     1       2.496   6.021  19.113  0.00  0.00    +0.000 OA
BRANCH  13  14
ATOM     14  C   UNL     1       2.067   4.856  19.724  0.00  0.00    +0.000 A 
ATOM     15  C   UNL     1       2.425   4.676  21.049  0.00  0.00    +0.000 A 
ATOM     16  C   UNL     1       2.014   3.509  21.687  0.00  0.00    +0.000 A 
ATOM     17  C   UNL     1       1.262   2.572  20.985  0.00  0.00    +0.000 A 
ATOM     18  C   UNL     1       0.949   2.843  19.664  0.00  0.00    +0.000 A 
ATOM     19  N   UNL     1       1.336   3.961  19.021  0.00  0.00    +0.000 NA
ENDBRANCH  13  14
ENDBRANCH  12  13
ENDBRANCH  11  12
ENDBRANCH   1  11
TORSDOF 7
ENDMDL
