MODEL 1
REMARK VINA RESULT:      -7.2      0.000      0.000
REMARK  Name = 
REMARK  8 active torsions:
REMARK  status: ('A' for Active; 'I' for Inactive)
REMARK    1  A    between atoms: C_1  and  O_2
REMARK    2  A    between atoms: O_2  and  C_3
REMARK    3  A    between atoms: C_3  and  C_4
REMARK    4  A    between atoms: C_11  and  C_13
REMARK    5  A    between atoms: C_13  and  C_14
REMARK    6  A    between atoms: C_14  and  N_15
REMARK    7  A    between atoms: C_14  and  C_16
REMARK    8  A    between atoms: C_16  and  C_17
REMARK                            x       y       z     vdW  Elec       q    Type
REMARK                         _______ _______ _______ _____ _____    ______ ____
ROOT
ATOM      1  C   UNL     1       3.839   2.451  18.396  0.00  0.00    +0.000 C 
ENDROOT
BRANCH   1   9
ATOM      2  C   UNL     1       5.117   5.121  17.169  0.00  0.00    +0.000 C 
ATOM      3  C   UNL     1       6.059   6.307  16.741  0.00  0.00    +0.000 C 
ATOM      4  O   UNL     1       5.801   7.061  15.804  0.00  0.00    +0.000 OA
ATOM      5  N   UNL     1       7.216   6.512  17.451  0.00  0.00    +0.000 N 
ATOM      6  C   UNL     1       7.650   5.615  18.483  0.00  0.00    +0.000 C 
ATOM      7  C   UNL     1       6.457   5.107  19.273  0.00  0.00    +0.000 C 
ATOM      8  N   UNL     1       5.530   4.365  18.407  0.00  0.00    +0.000 N 
ATOM      9  C   UNL     1       4.798   3.393  19.088  0.00  0.00    +0.000 C 
ATOM     10  O   UNL     1       4.968   3.210  20.306  0.00  0.00    +0.000 OA
ATOM     11  H   UNL     1       7.850   7.203  17.064  0.00  0.00    +0.000 HD
BRANCH   2  12
ATOM     12  C   UNL     1       4.907   4.339  15.853  0.00  0.00    +0.000 C 
BRANCH  12  14
ATOM     13  C   UNL     1       6.239   3.892  13.965  0.00  0.00    +0.000 C 
ATOM     14  O   UNL     1       6.113   3.731  15.378  0.00  0.00    +0.000 OA
ENDBRANCH  12  14
ENDBRANCH   2  12
ENDBRANCH   1   9
BRANCH   1  15
ATOM     15  C   UNL     1       2.345   2.747  18.581  0.00  0.00    +0.000 C 
BRANCH  15  16
ATOM     16  N   UNL     1       1.537   1.686  17.942  0.00  0.00    +0.000 NA
ATOM     17  H   UNL     1       1.070   2.072  17.122  0.00  0.00    +0.000 HD
ATOM     18  H   UNL     1       2.162   0.968  17.572  0.00  0.00    +0.000 HD
ENDBRANCH  15  16
BRANCH  15  19
ATOM     19  C   UNL     1       1.839   4.124  18.075  0.00  0.00    +0.000 C 
BRANCH  19  20
ATOM     20  C   UNL     1       1.888   5.374  18.926  0.00  0.00    +0.000 A 
ATOM     21  C   UNL     1       2.240   6.581  18.282  0.00  0.00    +0.000 A 
ATOM     22  C   UNL     1       2.188   7.799  18.958  0.00  0.00    +0.000 A 
ATOM     23  F   UNL     1       2.495   8.928  18.306  0.00  0.00    +0.000 F 
ATOM     24  C   UNL     1       1.788   7.843  20.287  0.00  0.00    +0.000 A 
ATOM     25  F   UNL     1       1.714   9.012  20.932  0.00  0.00    +0.000 F 
ATOM     26  C   UNL     1       1.437   6.672  20.947  0.00  0.00    +0.000 A 
ATOM     27  C   UNL     1       1.490   5.451  20.265  0.00  0.00    +0.000 A 
ATOM     28  F   UNL     1       1.101   4.350  20.920  0.00  0.00    +0.000 F 
ENDBRANCH  19  20
ENDBRANCH  15  19
ENDBRANCH   1  15
TORSDOF 7
ENDMDL
MODEL 2
REMARK VINA RESULT:      -7.2      3.540      5.856
REMARK  Name = 
REMARK  8 active torsions:
REMARK  status: ('A' for Active; 'I' for Inactive)
REMARK    1  A    between atoms: C_1  and  O_2
REMARK    2  A    between atoms: O_2  and  C_3
REMARK    3  A    between atoms: C_3  and  C_4
REMARK    4  A    between atoms: C_11  and  C_13
REMARK    5  A    between atoms: C_13  and  C_14
REMARK    6  A    between atoms: C_14  and  N_15
REMARK    7  A    between atoms: C_14  and  C_16
REMARK    8  A    between atoms: C_16  and  C_17
REMARK                            x       y       z     vdW  Elec       q    Type
REMARK                         _______ _______ _______ _____ _____    ______ ____
ROOT
ATOM      1  C   UNL     1       2.589   7.110  19.076  0.00  0.00    +0.000 C 
ENDROOT
BRANCH   1   9
ATOM      2  C   UNL     1       1.475   4.127  18.721  0.00  0.00    +0.000 C 
ATOM      3  C   UNL     1       1.299   2.574  18.537  0.00  0.00    +0.000 C 
ATOM      4  O   UNL     1       0.250   1.985  18.795  0.00  0.00    +0.000 OA
ATOM      5  N   UNL     1       2.361   1.847  18.059  0.00  0.00    +0.000 N 
ATOM      6  C   UNL     1       3.652   2.433  17.840  0.00  0.00    +0.000 C 
ATOM      7  C   UNL     1       3.504   3.843  17.298  0.00  0.00    +0.000 C 
ATOM      8  N   UNL     1       2.790   4.701  18.252  0.00  0.00    +0.000 N 
ATOM      9  C   UNL     1       3.134   6.048  18.148  0.00  0.00    +0.000 C 
ATOM     10  O   UNL     1       3.982   6.422  17.319  0.00  0.00    +0.000 OA
ATOM     11  H   UNL     1       2.245   0.840  18.076  0.00  0.00    +0.000 HD
BRANCH   2  12
ATOM     12  C   UNL     1       1.037   4.366  20.183  0.00  0.00    +0.000 C 
BRANCH  12  14
ATOM     13  C   UNL     1       2.016   3.000  21.831  0.00  0.00    +0.000 C 
ATOM     14  O   UNL     1       2.119   4.228  21.110  0.00  0.00    +0.000 OA
ENDBRANCH  12  14
ENDBRANCH   2  12
ENDBRANCH   1   9
BRANCH   1  15
ATOM     15  C   UNL     1       1.809   8.254  18.414  0.00  0.00    +0.000 C 
BRANCH  15  16
ATOM     16  N   UNL     1       2.671   8.952  17.435  0.00  0.00    +0.000 NA
ATOM     17  H   UNL     1       2.120   9.656  16.949  0.00  0.00    +0.000 HD
ATOM     18  H   UNL     1       3.386   9.481  17.937  0.00  0.00    +0.000 HD
ENDBRANCH  15  16
BRANCH  15  19
ATOM     19  C   UNL     1       1.184   9.312  19.362  0.00  0.00    +0.000 C 
BRANCH  19  20
ATOM     20  C   UNL     1      -0.037  10.123  18.985  0.00  0.00    +0.000 A 
ATOM     21  C   UNL     1      -0.707   9.765  17.793  0.00  0.00    +0.000 A 
ATOM     22  C   UNL     1      -1.909  10.372  17.435  0.00  0.00    +0.000 A 
ATOM     23  F   UNL     1      -2.535   9.985  16.316  0.00  0.00    +0.000 F 
ATOM     24  C   UNL     1      -2.470  11.347  18.249  0.00  0.00    +0.000 A 
ATOM     25  F   UNL     1      -3.635  11.914  17.921  0.00  0.00    +0.000 F 
ATOM     26  C   UNL     1      -1.833  11.720  19.427  0.00  0.00    +0.000 A 
ATOM     27  C   UNL     1      -0.626  11.107  19.784  0.00  0.00    +0.000 A 
ATOM     28  F   UNL     1      -0.065  11.461  20.948  0.00  0.00    +0.000 F 
ENDBRANCH  19  20
ENDBRANCH  15  19
ENDBRANCH   1  15
TORSDOF 7
ENDMDL
MODEL 3
REMARK VINA RESULT:      -7.0      3.067      5.709
REMARK  Name = 
REMARK  8 active torsions:
REMARK  status: ('A' for Active; 'I' for Inactive)
REMARK    1  A    between atoms: C_1  and  O_2
REMARK    2  A    between atoms: O_2  and  C_3
REMARK    3  A    between atoms: C_3  and  C_4
REMARK    4  A    between atoms: C_11  and  C_13
REMARK    5  A    between atoms: C_13  and  C_14
REMARK    6  A    between atoms: C_14  and  N_15
REMARK    7  A    between atoms: C_14  and  C_16
REMARK    8  A    between atoms: C_16  and  C_17
REMARK                            x       y       z     vdW  Elec       q    Type
REMARK                         _______ _______ _______ _____ _____    ______ ____
ROOT
ATOM      1  C   UNL     1       2.642   7.114  19.341  0.00  0.00    +0.000 C 
ENDROOT
BRANCH   1   9
ATOM      2  C   UNL     1       1.484   4.177  18.794  0.00  0.00    +0.000 C 
ATOM      3  C   UNL     1       1.284   2.641  18.516  0.00  0.00    +0.000 C 
ATOM      4  O   UNL     1       0.223   2.056  18.726  0.00  0.00    +0.000 OA
ATOM      5  N   UNL     1       2.340   1.925  18.008  0.00  0.00    +0.000 N 
ATOM      6  C   UNL     1       3.644   2.501  17.839  0.00  0.00    +0.000 C 
ATOM      7  C   UNL     1       3.526   3.943  17.381  0.00  0.00    +0.000 C 
ATOM      8  N   UNL     1       2.814   4.755  18.376  0.00  0.00    +0.000 N 
ATOM      9  C   UNL     1       3.182   6.100  18.357  0.00  0.00    +0.000 C 
ATOM     10  O   UNL     1       4.046   6.508  17.562  0.00  0.00    +0.000 OA
ATOM     11  H   UNL     1       2.207   0.921  17.963  0.00  0.00    +0.000 HD
BRANCH   2  12
ATOM     12  C   UNL     1       1.031   4.335  20.263  0.00  0.00    +0.000 C 
BRANCH  12  14
ATOM     13  C   UNL     1       2.125   2.912  21.785  0.00  0.00    +0.000 C 
ATOM     14  O   UNL     1       2.115   4.209  21.188  0.00  0.00    +0.000 OA
ENDBRANCH  12  14
ENDBRANCH   2  12
ENDBRANCH   1   9
BRANCH   1  15
ATOM     15  C   UNL     1       1.783   8.240  18.750  0.00  0.00    +0.000 C 
BRANCH  15  16
ATOM     16  N   UNL     1       2.170   8.485  17.344  0.00  0.00    +0.000 NA
ATOM     17  H   UNL     1       1.346   8.767  16.816  0.00  0.00    +0.000 HD
ATOM     18  H   UNL     1       2.794   9.294  17.305  0.00  0.00    +0.000 HD
ENDBRANCH  15  16
BRANCH  15  19
ATOM     19  C   UNL     1       1.794   9.595  19.507  0.00  0.00    +0.000 C 
BRANCH  19  20
ATOM     20  C   UNL     1       0.729   9.974  20.513  0.00  0.00    +0.000 A 
ATOM     21  C   UNL     1       0.819   9.395  21.799  0.00  0.00    +0.000 A 
ATOM     22  C   UNL     1      -0.042   9.784  22.824  0.00  0.00    +0.000 A 
ATOM     23  F   UNL     1       0.094   9.239  24.040  0.00  0.00    +0.000 F 
ATOM     24  C   UNL     1      -1.010  10.751  22.594  0.00  0.00    +0.000 A 
ATOM     25  F   UNL     1      -1.822  11.143  23.581  0.00  0.00    +0.000 F 
ATOM     26  C   UNL     1      -1.124  11.338  21.339  0.00  0.00    +0.000 A 
ATOM     27  C   UNL     1      -0.257  10.946  20.312  0.00  0.00    +0.000 A 
ATOM     28  F   UNL     1      -0.366  11.565  19.130  0.00  0.00    +0.000 F 
ENDBRANCH  19  20
ENDBRANCH  15  19
ENDBRANCH   1  15
TORSDOF 7
ENDMDL
MODEL 4
REMARK VINA RESULT:      -6.8      4.054      5.967
REMARK  Name = 
REMARK  8 active torsions:
REMARK  status: ('A' for Active; 'I' for Inactive)
REMARK    1  A    between atoms: C_1  and  O_2
REMARK    2  A    between atoms: O_2  and  C_3
REMARK    3  A    between atoms: C_3  and  C_4
REMARK    4  A    between atoms: C_11  and  C_13
REMARK    5  A    between atoms: C_13  and  C_14
REMARK    6  A    between atoms: C_14  and  N_15
REMARK    7  A    between atoms: C_14  and  C_16
REMARK    8  A    between atoms: C_16  and  C_17
REMARK                            x       y       z     vdW  Elec       q    Type
REMARK                         _______ _______ _______ _____ _____    ______ ____
ROOT
ATOM      1  C   UNL     1       1.998   7.961  18.568  0.00  0.00    +0.000 C 
ENDROOT
BRANCH   1   9
ATOM      2  C   UNL     1       3.373   5.086  18.897  0.00  0.00    +0.000 C 
ATOM      3  C   UNL     1       4.369   3.873  19.014  0.00  0.00    +0.000 C 
ATOM      4  O   UNL     1       4.053   2.794  19.512  0.00  0.00    +0.000 OA
ATOM      5  N   UNL     1       5.646   4.026  18.532  0.00  0.00    +0.000 N 
ATOM      6  C   UNL     1       6.132   5.283  18.039  0.00  0.00    +0.000 C 
ATOM      7  C   UNL     1       5.035   6.011  17.283  0.00  0.00    +0.000 C 
ATOM      8  N   UNL     1       3.892   6.296  18.160  0.00  0.00    +0.000 N 
ATOM      9  C   UNL     1       3.169   7.425  17.775  0.00  0.00    +0.000 C 
ATOM     10  O   UNL     1       3.518   8.092  16.786  0.00  0.00    +0.000 OA
ATOM     11  H   UNL     1       6.286   3.269  18.741  0.00  0.00    +0.000 HD
BRANCH   2  12
ATOM     12  C   UNL     1       2.850   5.259  20.340  0.00  0.00    +0.000 C 
BRANCH  12  14
ATOM     13  C   UNL     1       1.049   3.772  20.632  0.00  0.00    +0.000 C 
ATOM     14  O   UNL     1       1.426   5.134  20.426  0.00  0.00    +0.000 OA
ENDBRANCH  12  14
ENDBRANCH   2  12
ENDBRANCH   1   9
BRANCH   1  15
ATOM     15  C   UNL     1       1.296   9.197  17.988  0.00  0.00    +0.000 C 
BRANCH  15  16
ATOM     16  N   UNL     1       2.294  10.243  17.675  0.00  0.00    +0.000 NA
ATOM     17  H   UNL     1       2.698  10.053  16.759  0.00  0.00    +0.000 HD
ATOM     18  H   UNL     1       1.816  11.139  17.568  0.00  0.00    +0.000 HD
ENDBRANCH  15  16
BRANCH  15  19
ATOM     19  C   UNL     1       0.174   9.830  18.853  0.00  0.00    +0.000 C 
BRANCH  19  20
ATOM     20  C   UNL     1      -1.122  10.339  18.259  0.00  0.00    +0.000 A 
ATOM     21  C   UNL     1      -1.567   9.732  17.063  0.00  0.00    +0.000 A 
ATOM     22  C   UNL     1      -2.809  10.048  16.516  0.00  0.00    +0.000 A 
ATOM     23  F   UNL     1      -3.213   9.428  15.400  0.00  0.00    +0.000 F 
ATOM     24  C   UNL     1      -3.634  10.972  17.142  0.00  0.00    +0.000 A 
ATOM     25  F   UNL     1      -4.836  11.260  16.632  0.00  0.00    +0.000 F 
ATOM     26  C   UNL     1      -3.223  11.586  18.319  0.00  0.00    +0.000 A 
ATOM     27  C   UNL     1      -1.975  11.266  18.867  0.00  0.00    +0.000 A 
ATOM     28  F   UNL     1      -1.632  11.844  20.025  0.00  0.00    +0.000 F 
ENDBRANCH  19  20
ENDBRANCH  15  19
ENDBRANCH   1  15
TORSDOF 7
ENDMDL
MODEL 5
REMARK VINA RESULT:      -6.7      3.421      6.448
REMARK  Name = 
REMARK  8 active torsions:
REMARK  status: ('A' for Active; 'I' for Inactive)
REMARK    1  A    between atoms: C_1  and  O_2
REMARK    2  A    between atoms: O_2  and  C_3
REMARK    3  A    between atoms: C_3  and  C_4
REMARK    4  A    between atoms: C_11  and  C_13
REMARK    5  A    between atoms: C_13  and  C_14
REMARK    6  A    between atoms: C_14  and  N_15
REMARK    7  A    between atoms: C_14  and  C_16
REMARK    8  A    between atoms: C_16  and  C_17
REMARK                            x       y       z     vdW  Elec       q    Type
REMARK                         _______ _______ _______ _____ _____    ______ ____
ROOT
ATOM      1  C   UNL     1       5.687   4.799  19.366  0.00  0.00    +0.000 C 
ENDROOT
BRANCH   1   9
ATOM      2  C   UNL     1       2.764   4.370  18.126  0.00  0.00    +0.000 C 
ATOM      3  C   UNL     1       1.253   4.016  17.861  0.00  0.00    +0.000 C 
ATOM      4  O   UNL     1       0.603   4.508  16.941  0.00  0.00    +0.000 OA
ATOM      5  N   UNL     1       0.638   3.111  18.691  0.00  0.00    +0.000 N 
ATOM      6  C   UNL     1       1.287   2.575  19.854  0.00  0.00    +0.000 C 
ATOM      7  C   UNL     1       2.760   2.336  19.570  0.00  0.00    +0.000 C 
ATOM      8  N   UNL     1       3.440   3.592  19.228  0.00  0.00    +0.000 N 
ATOM      9  C   UNL     1       4.796   3.591  19.553  0.00  0.00    +0.000 C 
ATOM     10  O   UNL     1       5.317   2.599  20.091  0.00  0.00    +0.000 OA
ATOM     11  H   UNL     1      -0.362   3.009  18.563  0.00  0.00    +0.000 HD
BRANCH   2  12
ATOM     12  C   UNL     1       2.762   5.914  18.196  0.00  0.00    +0.000 C 
BRANCH  12  14
ATOM     13  C   UNL     1       2.075   7.733  19.522  0.00  0.00    +0.000 C 
ATOM     14  O   UNL     1       2.594   6.402  19.531  0.00  0.00    +0.000 OA
ENDBRANCH  12  14
ENDBRANCH   2  12
ENDBRANCH   1   9
BRANCH   1  15
ATOM     15  C   UNL     1       6.718   4.713  18.234  0.00  0.00    +0.000 C 
BRANCH  15  16
ATOM     16  N   UNL     1       8.078   4.936  18.771  0.00  0.00    +0.000 NA
ATOM     17  H   UNL     1       8.043   4.904  19.788  0.00  0.00    +0.000 HD
ATOM     18  H   UNL     1       8.675   4.150  18.506  0.00  0.00    +0.000 HD
ENDBRANCH  15  16
BRANCH  15  19
ATOM     19  C   UNL     1       6.505   5.661  17.023  0.00  0.00    +0.000 C 
BRANCH  19  20
ATOM     20  C   UNL     1       6.433   5.159  15.598  0.00  0.00    +0.000 A 
ATOM     21  C   UNL     1       7.454   5.575  14.714  0.00  0.00    +0.000 A 
ATOM     22  C   UNL     1       7.537   5.062  13.421  0.00  0.00    +0.000 A 
ATOM     23  F   UNL     1       8.538   5.453  12.621  0.00  0.00    +0.000 F 
ATOM     24  C   UNL     1       6.611   4.128  12.978  0.00  0.00    +0.000 A 
ATOM     25  F   UNL     1       6.702   3.616  11.746  0.00  0.00    +0.000 F 
ATOM     26  C   UNL     1       5.595   3.700  13.825  0.00  0.00    +0.000 A 
ATOM     27  C   UNL     1       5.515   4.217  15.123  0.00  0.00    +0.000 A 
ATOM     28  F   UNL     1       4.550   3.748  15.925  0.00  0.00    +0.000 F 
ENDBRANCH  19  20
ENDBRANCH  15  19
ENDBRANCH   1  15
TORSDOF 7
ENDMDL
MODEL 6
REMARK VINA RESULT:      -6.7      5.874      8.287
REMARK  Name = 
REMARK  8 active torsions:
REMARK  status: ('A' for Active; 'I' for Inactive)
REMARK    1  A    between atoms: C_1  and  O_2
REMARK    2  A    between atoms: O_2  and  C_3
REMARK    3  A    between atoms: C_3  and  C_4
REMARK    4  A    between atoms: C_11  and  C_13
REMARK    5  A    between atoms: C_13  and  C_14
REMARK    6  A    between atoms: C_14  and  N_15
REMARK    7  A    between atoms: C_14  and  C_16
REMARK    8  A    between atoms: C_16  and  C_17
REMARK                            x       y       z     vdW  Elec       q    Type
REMARK                         _______ _______ _______ _____ _____    ______ ____
ROOT
ATOM      1  C   UNL     1       0.394   9.716  18.331  0.00  0.00    +0.000 C 
ENDROOT
BRANCH   1   9
ATOM      2  C   UNL     1      -2.541  11.000  18.427  0.00  0.00    +0.000 C 
ATOM      3  C   UNL     1      -3.804  11.908  18.666  0.00  0.00    +0.000 C 
ATOM      4  O   UNL     1      -4.838  11.801  18.008  0.00  0.00    +0.000 OA
ATOM      5  N   UNL     1      -3.751  12.855  19.659  0.00  0.00    +0.000 N 
ATOM      6  C   UNL     1      -2.551  13.122  20.398  0.00  0.00    +0.000 C 
ATOM      7  C   UNL     1      -1.794  11.832  20.657  0.00  0.00    +0.000 C 
ATOM      8  N   UNL     1      -1.400  11.190  19.397  0.00  0.00    +0.000 N 
ATOM      9  C   UNL     1      -0.249  10.411  19.511  0.00  0.00    +0.000 C 
ATOM     10  O   UNL     1       0.348  10.320  20.597  0.00  0.00    +0.000 OA
ATOM     11  H   UNL     1      -4.535  13.496  19.694  0.00  0.00    +0.000 HD
BRANCH   2  12
ATOM     12  C   UNL     1      -2.268  11.158  16.915  0.00  0.00    +0.000 C 
BRANCH  12  14
ATOM     13  C   UNL     1      -2.993  10.271  14.859  0.00  0.00    +0.000 C 
ATOM     14  O   UNL     1      -2.547   9.962  16.179  0.00  0.00    +0.000 OA
ENDBRANCH  12  14
ENDBRANCH   2  12
ENDBRANCH   1   9
BRANCH   1  15
ATOM     15  C   UNL     1       1.927   9.736  18.285  0.00  0.00    +0.000 C 
BRANCH  15  16
ATOM     16  N   UNL     1       2.390  10.769  17.334  0.00  0.00    +0.000 NA
ATOM     17  H   UNL     1       1.582  11.178  16.867  0.00  0.00    +0.000 HD
ATOM     18  H   UNL     1       2.807  11.542  17.856  0.00  0.00    +0.000 HD
ENDBRANCH  15  16
BRANCH  15  19
ATOM     19  C   UNL     1       2.632   8.397  17.939  0.00  0.00    +0.000 C 
BRANCH  19  20
ATOM     20  C   UNL     1       2.263   7.088  18.602  0.00  0.00    +0.000 A 
ATOM     21  C   UNL     1       2.256   5.932  17.789  0.00  0.00    +0.000 A 
ATOM     22  C   UNL     1       2.054   4.668  18.339  0.00  0.00    +0.000 A 
ATOM     23  F   UNL     1       2.087   3.591  17.544  0.00  0.00    +0.000 F 
ATOM     24  C   UNL     1       1.852   4.524  19.705  0.00  0.00    +0.000 A 
ATOM     25  F   UNL     1       1.680   3.311  20.240  0.00  0.00    +0.000 F 
ATOM     26  C   UNL     1       1.852   5.643  20.530  0.00  0.00    +0.000 A 
ATOM     27  C   UNL     1       2.057   6.911  19.974  0.00  0.00    +0.000 A 
ATOM     28  F   UNL     1       2.096   7.961  20.805  0.00  0.00    +0.000 F 
ENDBRANCH  19  20
ENDBRANCH  15  19
ENDBRANCH   1  15
TORSDOF 7
ENDMDL
MODEL 7
REMARK VINA RESULT:      -6.7      3.442      5.826
REMARK  Name = 
REMARK  8 active torsions:
REMARK  status: ('A' for Active; 'I' for Inactive)
REMARK    1  A    between atoms: C_1  and  O_2
REMARK    2  A    between atoms: O_2  and  C_3
REMARK    3  A    between atoms: C_3  and  C_4
REMARK    4  A    between atoms: C_11  and  C_13
REMARK    5  A    between atoms: C_13  and  C_14
REMARK    6  A    between atoms: C_14  and  N_15
REMARK    7  A    between atoms: C_14  and  C_16
REMARK    8  A    between atoms: C_16  and  C_17
REMARK                            x       y       z     vdW  Elec       q    Type
REMARK                         _______ _______ _______ _____ _____    ______ ____
ROOT
ATOM      1  C   UNL     1       2.612   7.124  19.300  0.00  0.00    +0.000 C 
ENDROOT
BRANCH   1   9
ATOM      2  C   UNL     1       1.517   4.177  18.681  0.00  0.00    +0.000 C 
ATOM      3  C   UNL     1       1.348   2.640  18.387  0.00  0.00    +0.000 C 
ATOM      4  O   UNL     1       0.282   2.044  18.534  0.00  0.00    +0.000 OA
ATOM      5  N   UNL     1       2.439   1.936  17.940  0.00  0.00    +0.000 N 
ATOM      6  C   UNL     1       3.744   2.525  17.848  0.00  0.00    +0.000 C 
ATOM      7  C   UNL     1       3.639   3.968  17.387  0.00  0.00    +0.000 C 
ATOM      8  N   UNL     1       2.862   4.769  18.342  0.00  0.00    +0.000 N 
ATOM      9  C   UNL     1       3.218   6.118  18.347  0.00  0.00    +0.000 C 
ATOM     10  O   UNL     1       4.122   6.537  17.604  0.00  0.00    +0.000 OA
ATOM     11  H   UNL     1       2.318   0.931  17.884  0.00  0.00    +0.000 HD
BRANCH   2  12
ATOM     12  C   UNL     1       0.978   4.327  20.121  0.00  0.00    +0.000 C 
BRANCH  12  14
ATOM     13  C   UNL     1       1.826   2.859  21.754  0.00  0.00    +0.000 C 
ATOM     14  O   UNL     1       1.992   4.123  21.110  0.00  0.00    +0.000 OA
ENDBRANCH  12  14
ENDBRANCH   2  12
ENDBRANCH   1   9
BRANCH   1  15
ATOM     15  C   UNL     1       1.784   8.247  18.664  0.00  0.00    +0.000 C 
BRANCH  15  16
ATOM     16  N   UNL     1       2.449   8.729  17.433  0.00  0.00    +0.000 NA
ATOM     17  H   UNL     1       3.431   8.909  17.634  0.00  0.00    +0.000 HD
ATOM     18  H   UNL     1       2.457   7.977  16.742  0.00  0.00    +0.000 HD
ENDBRANCH  15  16
BRANCH  15  19
ATOM     19  C   UNL     1       1.465   9.473  19.562  0.00  0.00    +0.000 C 
BRANCH  19  20
ATOM     20  C   UNL     1       0.130  10.185  19.523  0.00  0.00    +0.000 A 
ATOM     21  C   UNL     1      -0.203  10.993  20.634  0.00  0.00    +0.000 A 
ATOM     22  C   UNL     1      -1.350  11.783  20.628  0.00  0.00    +0.000 A 
ATOM     23  F   UNL     1      -1.617  12.563  21.684  0.00  0.00    +0.000 F 
ATOM     24  C   UNL     1      -2.191  11.787  19.524  0.00  0.00    +0.000 A 
ATOM     25  F   UNL     1      -3.281  12.562  19.506  0.00  0.00    +0.000 F 
ATOM     26  C   UNL     1      -1.890  11.001  18.418  0.00  0.00    +0.000 A 
ATOM     27  C   UNL     1      -0.736  10.210  18.426  0.00  0.00    +0.000 A 
ATOM     28  F   UNL     1      -0.455   9.501  17.325  0.00  0.00    +0.000 F 
ENDBRANCH  19  20
ENDBRANCH  15  19
ENDBRANCH   1  15
TORSDOF 7
ENDMDL
MODEL 8
REMARK VINA RESULT:      -6.7      3.519      6.578
REMARK  Name = 
REMARK  8 active torsions:
REMARK  status: ('A' for Active; 'I' for Inactive)
REMARK    1  A    between atoms: C_1  and  O_2
REMARK    2  A    between atoms: O_2  and  C_3
REMARK    3  A    between atoms: C_3  and  C_4
REMARK    4  A    between atoms: C_11  and  C_13
REMARK    5  A    between atoms: C_13  and  C_14
REMARK    6  A    between atoms: C_14  and  N_15
REMARK    7  A    between atoms: C_14  and  C_16
REMARK    8  A    between atoms: C_16  and  C_17
REMARK                            x       y       z     vdW  Elec       q    Type
REMARK                         _______ _______ _______ _____ _____    ______ ____
ROOT
ATOM      1  C   UNL     1       5.813   6.465  18.445  0.00  0.00    +0.000 C 
ENDROOT
BRANCH   1   9
ATOM      2  C   UNL     1       3.153   4.714  18.088  0.00  0.00    +0.000 C 
ATOM      3  C   UNL     1       1.943   3.722  18.256  0.00  0.00    +0.000 C 
ATOM      4  O   UNL     1       0.912   3.807  17.591  0.00  0.00    +0.000 OA
ATOM      5  N   UNL     1       2.048   2.715  19.183  0.00  0.00    +0.000 N 
ATOM      6  C   UNL     1       3.165   2.611  20.078  0.00  0.00    +0.000 C 
ATOM      7  C   UNL     1       4.446   3.008  19.367  0.00  0.00    +0.000 C 
ATOM      8  N   UNL     1       4.382   4.400  18.905  0.00  0.00    +0.000 N 
ATOM      9  C   UNL     1       5.632   5.012  18.821  0.00  0.00    +0.000 C 
ATOM     10  O   UNL     1       6.663   4.390  19.134  0.00  0.00    +0.000 OA
ATOM     11  H   UNL     1       1.202   2.180  19.345  0.00  0.00    +0.000 HD
BRANCH   2  12
ATOM     12  C   UNL     1       2.498   6.106  18.232  0.00  0.00    +0.000 C 
BRANCH  12  14
ATOM     13  C   UNL     1       1.983   7.864  19.710  0.00  0.00    +0.000 C 
ATOM     14  O   UNL     1       2.284   6.473  19.599  0.00  0.00    +0.000 OA
ENDBRANCH  12  14
ENDBRANCH   2  12
ENDBRANCH   1   9
BRANCH   1  15
ATOM     15  C   UNL     1       6.328   6.739  17.026  0.00  0.00    +0.000 C 
BRANCH  15  16
ATOM     16  N   UNL     1       5.193   7.048  16.129  0.00  0.00    +0.000 NA
ATOM     17  H   UNL     1       4.756   7.917  16.432  0.00  0.00    +0.000 HD
ATOM     18  H   UNL     1       5.552   7.249  15.193  0.00  0.00    +0.000 HD
ENDBRANCH  15  16
BRANCH  15  19
ATOM     19  C   UNL     1       7.186   5.625  16.368  0.00  0.00    +0.000 C 
BRANCH  19  20
ATOM     20  C   UNL     1       6.772   4.925  15.092  0.00  0.00    +0.000 A 
ATOM     21  C   UNL     1       7.387   5.351  13.893  0.00  0.00    +0.000 A 
ATOM     22  C   UNL     1       7.161   4.679  12.693  0.00  0.00    +0.000 A 
ATOM     23  F   UNL     1       7.787   5.089  11.582  0.00  0.00    +0.000 F 
ATOM     24  C   UNL     1       6.322   3.574  12.657  0.00  0.00    +0.000 A 
ATOM     25  F   UNL     1       6.122   2.913  11.512  0.00  0.00    +0.000 F 
ATOM     26  C   UNL     1       5.703   3.133  13.820  0.00  0.00    +0.000 A 
ATOM     27  C   UNL     1       5.932   3.809  15.024  0.00  0.00    +0.000 A 
ATOM     28  F   UNL     1       5.355   3.327  16.133  0.00  0.00    +0.000 F 
ENDBRANCH  19  20
ENDBRANCH  15  19
ENDBRANCH   1  15
TORSDOF 7
ENDMDL
MODEL 9
REMARK VINA RESULT:      -6.7      5.333      8.216
REMARK  Name = 
REMARK  8 active torsions:
REMARK  status: ('A' for Active; 'I' for Inactive)
REMARK    1  A    between atoms: C_1  and  O_2
REMARK    2  A    between atoms: O_2  and  C_3
REMARK    3  A    between atoms: C_3  and  C_4
REMARK    4  A    between atoms: C_11  and  C_13
REMARK    5  A    between atoms: C_13  and  C_14
REMARK    6  A    between atoms: C_14  and  N_15
REMARK    7  A    between atoms: C_14  and  C_16
REMARK    8  A    between atoms: C_16  and  C_17
REMARK                            x       y       z     vdW  Elec       q    Type
REMARK                         _______ _______ _______ _____ _____    ______ ____
ROOT
ATOM      1  C   UNL     1       1.695   9.426  19.489  0.00  0.00    +0.000 C 
ENDROOT
BRANCH   1   9
ATOM      2  C   UNL     1      -0.275  11.939  19.753  0.00  0.00    +0.000 C 
ATOM      3  C   UNL     1      -1.506  12.919  19.780  0.00  0.00    +0.000 C 
ATOM      4  O   UNL     1      -1.490  13.996  20.373  0.00  0.00    +0.000 OA
ATOM      5  N   UNL     1      -2.646  12.556  19.106  0.00  0.00    +0.000 N 
ATOM      6  C   UNL     1      -2.791  11.271  18.484  0.00  0.00    +0.000 C 
ATOM      7  C   UNL     1      -1.475  10.835  17.865  0.00  0.00    +0.000 C 
ATOM      8  N   UNL     1      -0.428  10.712  18.887  0.00  0.00    +0.000 N 
ATOM      9  C   UNL     1       0.557   9.782  18.559  0.00  0.00    +0.000 C 
ATOM     10  O   UNL     1       0.492   9.140  17.496  0.00  0.00    +0.000 OA
ATOM     11  H   UNL     1      -3.451  13.153  19.254  0.00  0.00    +0.000 HD
BRANCH   2  12
ATOM     12  C   UNL     1       0.072  11.758  21.247  0.00  0.00    +0.000 C 
BRANCH  12  14
ATOM     13  C   UNL     1      -1.332  11.132  23.030  0.00  0.00    +0.000 C 
ATOM     14  O   UNL     1      -0.657  10.686  21.854  0.00  0.00    +0.000 OA
ENDBRANCH  12  14
ENDBRANCH   2  12
ENDBRANCH   1   9
BRANCH   1  15
ATOM     15  C   UNL     1       1.501   8.170  20.348  0.00  0.00    +0.000 C 
BRANCH  15  16
ATOM     16  N   UNL     1       1.474   8.538  21.781  0.00  0.00    +0.000 NA
ATOM     17  H   UNL     1       2.402   8.851  22.061  0.00  0.00    +0.000 HD
ATOM     18  H   UNL     1       0.875   9.356  21.905  0.00  0.00    +0.000 HD
ENDBRANCH  15  16
BRANCH  15  19
ATOM     19  C   UNL     1       2.530   7.025  20.153  0.00  0.00    +0.000 C 
BRANCH  19  20
ATOM     20  C   UNL     1       2.130   5.639  19.694  0.00  0.00    +0.000 A 
ATOM     21  C   UNL     1       1.665   4.741  20.682  0.00  0.00    +0.000 A 
ATOM     22  C   UNL     1       1.157   3.491  20.333  0.00  0.00    +0.000 A 
ATOM     23  F   UNL     1       0.694   2.679  21.292  0.00  0.00    +0.000 F 
ATOM     24  C   UNL     1       1.102   3.106  19.001  0.00  0.00    +0.000 A 
ATOM     25  F   UNL     1       0.593   1.916  18.662  0.00  0.00    +0.000 F 
ATOM     26  C   UNL     1       1.553   3.968  18.008  0.00  0.00    +0.000 A 
ATOM     27  C   UNL     1       2.061   5.223  18.361  0.00  0.00    +0.000 A 
ATOM     28  F   UNL     1       2.444   6.044  17.375  0.00  0.00    +0.000 F 
ENDBRANCH  19  20
ENDBRANCH  15  19
ENDBRANCH   1  15
TORSDOF 7
ENDMDL
