MODEL 1
REMARK VINA RESULT:      -7.2      0.000      0.000
REMARK  Name = 
REMARK  6 active torsions:
REMARK  status: ('A' for Active; 'I' for Inactive)
REMARK    1  A    between atoms: O_1  and  C_2
REMARK    2  A    between atoms: C_7  and  O_8
REMARK    3  A    between atoms: C_11  and  N_12
REMARK    4  A    between atoms: N_12  and  C_13
REMARK    5  A    between atoms: C_13  and  C_14
REMARK    6  A    between atoms: C_20  and  O_21
REMARK                            x       y       z     vdW  Elec       q    Type
REMARK                         _______ _______ _______ _____ _____    ______ ____
ROOT
ATOM      1  C   UNL     1       6.725   4.323  13.135  0.00  0.00    +0.000 A 
ATOM      2  C   UNL     1       5.572   3.582  13.353  0.00  0.00    +0.000 A 
ATOM      3  C   UNL     1       4.992   3.590  14.617  0.00  0.00    +0.000 A 
ATOM      4  C   UNL     1       5.563   4.325  15.676  0.00  0.00    +0.000 A 
ATOM      5  C   UNL     1       6.707   5.114  15.446  0.00  0.00    +0.000 A 
ATOM      6  C   UNL     1       7.294   5.081  14.166  0.00  0.00    +0.000 A 
ATOM      7  C   UNL     1       7.309   5.934  16.564  0.00  0.00    +0.000 C 
ATOM      8  C   UNL     1       6.383   6.136  17.764  0.00  0.00    +0.000 C 
ATOM      9  C   UNL     1       5.770   4.802  18.202  0.00  0.00    +0.000 C 
ATOM     10  C   UNL     1       4.893   4.254  17.034  0.00  0.00    +0.000 C 
ENDROOT
BRANCH   1  11
ATOM     11  O   UNL     1       7.320   4.308  11.904  0.00  0.00    +0.000 OA
ATOM     12  H   UNL     1       7.674   3.421  11.736  0.00  0.00    +0.000 HD
ENDBRANCH   1  11
BRANCH   6  13
ATOM     13  O   UNL     1       8.434   5.782  13.874  0.00  0.00    +0.000 OA
ATOM     14  H   UNL     1       8.507   6.555  14.448  0.00  0.00    +0.000 HD
ENDBRANCH   6  13
BRANCH   9  15
ATOM     15  N   UNL     1       5.047   5.021  19.481  0.00  0.00    +0.000 NA
ATOM     16  H   UNL     1       5.598   5.649  20.067  0.00  0.00    +0.000 HD
BRANCH  15  17
ATOM     17  C   UNL     1       3.723   5.615  19.273  0.00  0.00    +0.000 C 
BRANCH  17  18
ATOM     18  C   UNL     1       2.652   4.780  19.954  0.00  0.00    +0.000 C 
ATOM     19  C   UNL     1       1.636   4.133  18.978  0.00  0.00    +0.000 C 
ATOM     20  C   UNL     1       1.599   2.922  19.936  0.00  0.00    +0.000 C 
ATOM     21  F   UNL     1       1.505   1.710  19.346  0.00  0.00    +0.000 F 
ATOM     22  F   UNL     1       0.640   2.972  20.890  0.00  0.00    +0.000 F 
ATOM     23  C   UNL     1       3.016   3.343  20.396  0.00  0.00    +0.000 C 
ENDBRANCH  17  18
ENDBRANCH  15  17
ENDBRANCH   9  15
BRANCH  10  24
ATOM     24  O   UNL     1       4.561   2.883  17.280  0.00  0.00    +0.000 OA
ATOM     25  H   UNL     1       4.624   2.422  16.425  0.00  0.00    +0.000 HD
ENDBRANCH  10  24
TORSDOF 6
ENDMDL
MODEL 2
REMARK VINA RESULT:      -7.0      3.737      6.753
REMARK  Name = 
REMARK  6 active torsions:
REMARK  status: ('A' for Active; 'I' for Inactive)
REMARK    1  A    between atoms: O_1  and  C_2
REMARK    2  A    between atoms: C_7  and  O_8
REMARK    3  A    between atoms: C_11  and  N_12
REMARK    4  A    between atoms: N_12  and  C_13
REMARK    5  A    between atoms: C_13  and  C_14
REMARK    6  A    between atoms: C_20  and  O_21
REMARK                            x       y       z     vdW  Elec       q    Type
REMARK                         _______ _______ _______ _____ _____    ______ ____
ROOT
ATOM      1  C   UNL     1       2.391   6.601  19.610  0.00  0.00    +0.000 A 
ATOM      2  C   UNL     1       2.614   7.604  18.677  0.00  0.00    +0.000 A 
ATOM      3  C   UNL     1       3.617   7.435  17.729  0.00  0.00    +0.000 A 
ATOM      4  C   UNL     1       4.413   6.270  17.709  0.00  0.00    +0.000 A 
ATOM      5  C   UNL     1       4.158   5.231  18.625  0.00  0.00    +0.000 A 
ATOM      6  C   UNL     1       3.153   5.425  19.592  0.00  0.00    +0.000 A 
ATOM      7  C   UNL     1       4.981   3.964  18.593  0.00  0.00    +0.000 C 
ATOM      8  C   UNL     1       5.776   3.763  17.302  0.00  0.00    +0.000 C 
ATOM      9  C   UNL     1       6.542   5.039  16.937  0.00  0.00    +0.000 C 
ATOM     10  C   UNL     1       5.509   6.176  16.667  0.00  0.00    +0.000 C 
ENDROOT
BRANCH   1  11
ATOM     11  O   UNL     1       1.424   6.761  20.564  0.00  0.00    +0.000 OA
ATOM     12  H   UNL     1       1.144   7.690  20.574  0.00  0.00    +0.000 HD
ENDBRANCH   1  11
BRANCH   6  13
ATOM     13  O   UNL     1       2.876   4.484  20.548  0.00  0.00    +0.000 OA
ATOM     14  H   UNL     1       2.355   4.875  21.260  0.00  0.00    +0.000 HD
ENDBRANCH   6  13
BRANCH   9  15
ATOM     15  N   UNL     1       7.445   4.728  15.799  0.00  0.00    +0.000 NA
ATOM     16  H   UNL     1       7.613   3.721  15.777  0.00  0.00    +0.000 HD
BRANCH  15  17
ATOM     17  C   UNL     1       6.875   5.136  14.513  0.00  0.00    +0.000 C 
BRANCH  17  18
ATOM     18  C   UNL     1       6.536   3.919  13.669  0.00  0.00    +0.000 C 
ATOM     19  C   UNL     1       5.019   3.719  13.424  0.00  0.00    +0.000 C 
ATOM     20  C   UNL     1       5.389   3.190  12.021  0.00  0.00    +0.000 C 
ATOM     21  F   UNL     1       4.545   3.533  11.024  0.00  0.00    +0.000 F 
ATOM     22  F   UNL     1       5.570   1.851  11.941  0.00  0.00    +0.000 F 
ATOM     23  C   UNL     1       6.683   4.031  12.133  0.00  0.00    +0.000 C 
ENDBRANCH  17  18
ENDBRANCH  15  17
ENDBRANCH   9  15
BRANCH  10  24
ATOM     24  O   UNL     1       6.181   7.440  16.631  0.00  0.00    +0.000 OA
ATOM     25  H   UNL     1       5.995   7.880  17.479  0.00  0.00    +0.000 HD
ENDBRANCH  10  24
TORSDOF 6
ENDMDL
MODEL 3
REMARK VINA RESULT:      -7.0      4.793      7.492
REMARK  Name = 
REMARK  6 active torsions:
REMARK  status: ('A' for Active; 'I' for Inactive)
REMARK    1  A    between atoms: O_1  and  C_2
REMARK    2  A    between atoms: C_7  and  O_8
REMARK    3  A    between atoms: C_11  and  N_12
REMARK    4  A    between atoms: N_12  and  C_13
REMARK    5  A    between atoms: C_13  and  C_14
REMARK    6  A    between atoms: C_20  and  O_21
REMARK                            x       y       z     vdW  Elec       q    Type
REMARK                         _______ _______ _______ _____ _____    ______ ____
ROOT
ATOM      1  C   UNL     1       0.319  10.006  20.207  0.00  0.00    +0.000 A 
ATOM      2  C   UNL     1       0.475   9.163  21.299  0.00  0.00    +0.000 A 
ATOM      3  C   UNL     1       1.249   8.017  21.163  0.00  0.00    +0.000 A 
ATOM      4  C   UNL     1       1.865   7.694  19.935  0.00  0.00    +0.000 A 
ATOM      5  C   UNL     1       1.746   8.570  18.839  0.00  0.00    +0.000 A 
ATOM      6  C   UNL     1       0.943   9.718  18.986  0.00  0.00    +0.000 A 
ATOM      7  C   UNL     1       2.428   8.254  17.529  0.00  0.00    +0.000 C 
ATOM      8  C   UNL     1       3.519   7.185  17.629  0.00  0.00    +0.000 C 
ATOM      9  C   UNL     1       3.006   5.965  18.401  0.00  0.00    +0.000 C 
ATOM     10  C   UNL     1       2.663   6.408  19.856  0.00  0.00    +0.000 C 
ENDROOT
BRANCH   1  11
ATOM     11  O   UNL     1      -0.458  11.126  20.317  0.00  0.00    +0.000 OA
ATOM     12  H   UNL     1       0.050  11.817  20.771  0.00  0.00    +0.000 HD
ENDBRANCH   1  11
BRANCH   6  13
ATOM     13  O   UNL     1       0.738  10.595  17.954  0.00  0.00    +0.000 OA
ATOM     14  H   UNL     1       0.342  10.138  17.202  0.00  0.00    +0.000 HD
ENDBRANCH   6  13
BRANCH   9  15
ATOM     15  N   UNL     1       4.025   4.889  18.295  0.00  0.00    +0.000 NA
ATOM     16  H   UNL     1       3.666   4.153  17.686  0.00  0.00    +0.000 HD
BRANCH  15  17
ATOM     17  C   UNL     1       5.291   5.379  17.744  0.00  0.00    +0.000 C 
BRANCH  17  18
ATOM     18  C   UNL     1       5.680   4.581  16.510  0.00  0.00    +0.000 C 
ATOM     19  C   UNL     1       5.575   5.374  15.183  0.00  0.00    +0.000 C 
ATOM     20  C   UNL     1       6.814   4.588  14.700  0.00  0.00    +0.000 C 
ATOM     21  F   UNL     1       7.695   5.286  13.951  0.00  0.00    +0.000 F 
ATOM     22  F   UNL     1       6.545   3.444  14.030  0.00  0.00    +0.000 F 
ATOM     23  C   UNL     1       7.185   4.413  16.193  0.00  0.00    +0.000 C 
ENDBRANCH  17  18
ENDBRANCH  15  17
ENDBRANCH   9  15
BRANCH  10  24
ATOM     24  O   UNL     1       1.900   5.385  20.506  0.00  0.00    +0.000 OA
ATOM     25  H   UNL     1       2.321   4.537  20.281  0.00  0.00    +0.000 HD
ENDBRANCH  10  24
TORSDOF 6
ENDMDL
MODEL 4
REMARK VINA RESULT:      -6.9      3.565      6.626
REMARK  Name = 
REMARK  6 active torsions:
REMARK  status: ('A' for Active; 'I' for Inactive)
REMARK    1  A    between atoms: O_1  and  C_2
REMARK    2  A    between atoms: C_7  and  O_8
REMARK    3  A    between atoms: C_11  and  N_12
REMARK    4  A    between atoms: N_12  and  C_13
REMARK    5  A    between atoms: C_13  and  C_14
REMARK    6  A    between atoms: C_20  and  O_21
REMARK                            x       y       z     vdW  Elec       q    Type
REMARK                         _______ _______ _______ _____ _____    ______ ____
ROOT
ATOM      1  C   UNL     1       2.417   5.008  19.902  0.00  0.00    +0.000 A 
ATOM      2  C   UNL     1       2.920   3.717  19.819  0.00  0.00    +0.000 A 
ATOM      3  C   UNL     1       3.989   3.461  18.968  0.00  0.00    +0.000 A 
ATOM      4  C   UNL     1       4.558   4.485  18.182  0.00  0.00    +0.000 A 
ATOM      5  C   UNL     1       4.079   5.805  18.298  0.00  0.00    +0.000 A 
ATOM      6  C   UNL     1       2.984   6.046  19.150  0.00  0.00    +0.000 A 
ATOM      7  C   UNL     1       4.701   6.919  17.488  0.00  0.00    +0.000 C 
ATOM      8  C   UNL     1       6.068   6.575  16.892  0.00  0.00    +0.000 C 
ATOM      9  C   UNL     1       6.021   5.214  16.189  0.00  0.00    +0.000 C 
ATOM     10  C   UNL     1       5.695   4.119  17.251  0.00  0.00    +0.000 C 
ENDROOT
BRANCH   1  11
ATOM     11  O   UNL     1       1.352   5.273  20.717  0.00  0.00    +0.000 OA
ATOM     12  H   UNL     1       1.049   6.180  20.554  0.00  0.00    +0.000 HD
ENDBRANCH   1  11
BRANCH   6  13
ATOM     13  O   UNL     1       2.429   7.291  19.282  0.00  0.00    +0.000 OA
ATOM     14  H   UNL     1       1.836   7.313  20.044  0.00  0.00    +0.000 HD
ENDBRANCH   6  13
BRANCH   9  15
ATOM     15  N   UNL     1       7.303   5.023  15.463  0.00  0.00    +0.000 NA
ATOM     16  H   UNL     1       7.642   4.076  15.634  0.00  0.00    +0.000 HD
BRANCH  15  17
ATOM     17  C   UNL     1       7.155   5.214  14.018  0.00  0.00    +0.000 C 
BRANCH  17  18
ATOM     18  C   UNL     1       6.685   3.930  13.356  0.00  0.00    +0.000 C 
ATOM     19  C   UNL     1       5.147   3.824  13.196  0.00  0.00    +0.000 C 
ATOM     20  C   UNL     1       5.410   3.089  11.863  0.00  0.00    +0.000 C 
ATOM     21  F   UNL     1       4.548   3.368  10.861  0.00  0.00    +0.000 F 
ATOM     22  F   UNL     1       5.486   1.741  11.954  0.00  0.00    +0.000 F 
ATOM     23  C   UNL     1       6.768   3.830  11.814  0.00  0.00    +0.000 C 
ENDBRANCH  17  18
ENDBRANCH  15  17
ENDBRANCH   9  15
BRANCH  10  24
ATOM     24  O   UNL     1       5.340   2.898  16.594  0.00  0.00    +0.000 OA
ATOM     25  H   UNL     1       4.804   2.386  17.225  0.00  0.00    +0.000 HD
ENDBRANCH  10  24
TORSDOF 6
ENDMDL
MODEL 5
REMARK VINA RESULT:      -6.9      5.117      7.738
REMARK  Name = 
REMARK  6 active torsions:
REMARK  status: ('A' for Active; 'I' for Inactive)
REMARK    1  A    between atoms: O_1  and  C_2
REMARK    2  A    between atoms: C_7  and  O_8
REMARK    3  A    between atoms: C_11  and  N_12
REMARK    4  A    between atoms: N_12  and  C_13
REMARK    5  A    between atoms: C_13  and  C_14
REMARK    6  A    between atoms: C_20  and  O_21
REMARK                            x       y       z     vdW  Elec       q    Type
REMARK                         _______ _______ _______ _____ _____    ______ ____
ROOT
ATOM      1  C   UNL     1      -0.076  10.522  20.467  0.00  0.00    +0.000 A 
ATOM      2  C   UNL     1       0.173   9.744  21.590  0.00  0.00    +0.000 A 
ATOM      3  C   UNL     1       0.978   8.617  21.467  0.00  0.00    +0.000 A 
ATOM      4  C   UNL     1       1.531   8.248  20.223  0.00  0.00    +0.000 A 
ATOM      5  C   UNL     1       1.318   9.060  19.092  0.00  0.00    +0.000 A 
ATOM      6  C   UNL     1       0.485  10.188  19.227  0.00  0.00    +0.000 A 
ATOM      7  C   UNL     1       1.933   8.696  17.761  0.00  0.00    +0.000 C 
ATOM      8  C   UNL     1       3.064   7.669  17.851  0.00  0.00    +0.000 C 
ATOM      9  C   UNL     1       2.640   6.476  18.714  0.00  0.00    +0.000 C 
ATOM     10  C   UNL     1       2.367   6.986  20.162  0.00  0.00    +0.000 C 
ENDROOT
BRANCH   1  11
ATOM     11  O   UNL     1      -0.883  11.621  20.566  0.00  0.00    +0.000 OA
ATOM     12  H   UNL     1      -0.357  12.368  20.889  0.00  0.00    +0.000 HD
ENDBRANCH   1  11
BRANCH   6  13
ATOM     13  O   UNL     1       0.190  11.002  18.166  0.00  0.00    +0.000 OA
ATOM     14  H   UNL     1       0.195  10.494  17.344  0.00  0.00    +0.000 HD
ENDBRANCH   6  13
BRANCH   9  15
ATOM     15  N   UNL     1       3.688   5.429  18.603  0.00  0.00    +0.000 NA
ATOM     16  H   UNL     1       3.625   4.812  19.414  0.00  0.00    +0.000 HD
BRANCH  15  17
ATOM     17  C   UNL     1       3.539   4.623  17.388  0.00  0.00    +0.000 C 
BRANCH  17  18
ATOM     18  C   UNL     1       4.885   4.419  16.715  0.00  0.00    +0.000 C 
ATOM     19  C   UNL     1       5.338   5.605  15.826  0.00  0.00    +0.000 C 
ATOM     20  C   UNL     1       6.782   5.299  16.279  0.00  0.00    +0.000 C 
ATOM     21  F   UNL     1       7.574   6.375  16.481  0.00  0.00    +0.000 F 
ATOM     22  F   UNL     1       7.468   4.449  15.480  0.00  0.00    +0.000 F 
ATOM     23  C   UNL     1       6.165   4.665  17.549  0.00  0.00    +0.000 C 
ENDBRANCH  17  18
ENDBRANCH  15  17
ENDBRANCH   9  15
BRANCH  10  24
ATOM     24  O   UNL     1       1.680   5.976  20.909  0.00  0.00    +0.000 OA
ATOM     25  H   UNL     1       1.376   6.395  21.733  0.00  0.00    +0.000 HD
ENDBRANCH  10  24
TORSDOF 6
ENDMDL
MODEL 6
REMARK VINA RESULT:      -6.9      1.682      2.395
REMARK  Name = 
REMARK  6 active torsions:
REMARK  status: ('A' for Active; 'I' for Inactive)
REMARK    1  A    between atoms: O_1  and  C_2
REMARK    2  A    between atoms: C_7  and  O_8
REMARK    3  A    between atoms: C_11  and  N_12
REMARK    4  A    between atoms: N_12  and  C_13
REMARK    5  A    between atoms: C_13  and  C_14
REMARK    6  A    between atoms: C_20  and  O_21
REMARK                            x       y       z     vdW  Elec       q    Type
REMARK                         _______ _______ _______ _____ _____    ______ ____
ROOT
ATOM      1  C   UNL     1       6.132   5.103  14.948  0.00  0.00    +0.000 A 
ATOM      2  C   UNL     1       6.314   3.842  15.500  0.00  0.00    +0.000 A 
ATOM      3  C   UNL     1       5.728   3.551  16.727  0.00  0.00    +0.000 A 
ATOM      4  C   UNL     1       4.968   4.516  17.420  0.00  0.00    +0.000 A 
ATOM      5  C   UNL     1       4.744   5.781  16.841  0.00  0.00    +0.000 A 
ATOM      6  C   UNL     1       5.359   6.068  15.607  0.00  0.00    +0.000 A 
ATOM      7  C   UNL     1       3.903   6.812  17.556  0.00  0.00    +0.000 C 
ATOM      8  C   UNL     1       3.041   6.247  18.686  0.00  0.00    +0.000 C 
ATOM      9  C   UNL     1       3.877   5.348  19.603  0.00  0.00    +0.000 C 
ATOM     10  C   UNL     1       4.394   4.135  18.769  0.00  0.00    +0.000 C 
ENDROOT
BRANCH   1  11
ATOM     11  O   UNL     1       6.719   5.413  13.752  0.00  0.00    +0.000 OA
ATOM     12  H   UNL     1       6.715   6.376  13.641  0.00  0.00    +0.000 HD
ENDBRANCH   1  11
BRANCH   6  13
ATOM     13  O   UNL     1       5.230   7.289  15.000  0.00  0.00    +0.000 OA
ATOM     14  H   UNL     1       5.325   7.198  14.043  0.00  0.00    +0.000 HD
ENDBRANCH   6  13
BRANCH   9  15
ATOM     15  N   UNL     1       3.048   4.992  20.783  0.00  0.00    +0.000 NA
ATOM     16  H   UNL     1       3.321   5.583  21.569  0.00  0.00    +0.000 HD
BRANCH  15  17
ATOM     17  C   UNL     1       1.617   5.179  20.531  0.00  0.00    +0.000 C 
BRANCH  17  18
ATOM     18  C   UNL     1       0.997   3.896  20.002  0.00  0.00    +0.000 C 
ATOM     19  C   UNL     1       1.075   3.741  18.462  0.00  0.00    +0.000 C 
ATOM     20  C   UNL     1       1.262   2.226  18.697  0.00  0.00    +0.000 C 
ATOM     21  F   UNL     1       2.118   1.604  17.858  0.00  0.00    +0.000 F 
ATOM     22  F   UNL     1       0.120   1.500  18.704  0.00  0.00    +0.000 F 
ATOM     23  C   UNL     1       1.825   2.593  20.091  0.00  0.00    +0.000 C 
ENDBRANCH  17  18
ENDBRANCH  15  17
ENDBRANCH   9  15
BRANCH  10  24
ATOM     24  O   UNL     1       5.418   3.449  19.497  0.00  0.00    +0.000 OA
ATOM     25  H   UNL     1       5.662   2.669  18.969  0.00  0.00    +0.000 HD
ENDBRANCH  10  24
TORSDOF 6
ENDMDL
MODEL 7
REMARK VINA RESULT:      -6.9      5.496      8.076
REMARK  Name = 
REMARK  6 active torsions:
REMARK  status: ('A' for Active; 'I' for Inactive)
REMARK    1  A    between atoms: O_1  and  C_2
REMARK    2  A    between atoms: C_7  and  O_8
REMARK    3  A    between atoms: C_11  and  N_12
REMARK    4  A    between atoms: N_12  and  C_13
REMARK    5  A    between atoms: C_13  and  C_14
REMARK    6  A    between atoms: C_20  and  O_21
REMARK                            x       y       z     vdW  Elec       q    Type
REMARK                         _______ _______ _______ _____ _____    ______ ____
ROOT
ATOM      1  C   UNL     1      -0.621  10.937  20.452  0.00  0.00    +0.000 A 
ATOM      2  C   UNL     1      -0.288  10.211  21.588  0.00  0.00    +0.000 A 
ATOM      3  C   UNL     1       0.610   9.156  21.476  0.00  0.00    +0.000 A 
ATOM      4  C   UNL     1       1.174   8.805  20.232  0.00  0.00    +0.000 A 
ATOM      5  C   UNL     1       0.872   9.568  19.086  0.00  0.00    +0.000 A 
ATOM      6  C   UNL     1      -0.053  10.623  19.210  0.00  0.00    +0.000 A 
ATOM      7  C   UNL     1       1.496   9.225  17.753  0.00  0.00    +0.000 C 
ATOM      8  C   UNL     1       2.713   8.303  17.846  0.00  0.00    +0.000 C 
ATOM      9  C   UNL     1       2.408   7.099  18.744  0.00  0.00    +0.000 C 
ATOM     10  C   UNL     1       2.115   7.619  20.186  0.00  0.00    +0.000 C 
ENDROOT
BRANCH   1  11
ATOM     11  O   UNL     1      -1.519  11.964  20.540  0.00  0.00    +0.000 OA
ATOM     12  H   UNL     1      -2.349  11.693  20.118  0.00  0.00    +0.000 HD
ENDBRANCH   1  11
BRANCH   6  13
ATOM     13  O   UNL     1      -0.435  11.381  18.136  0.00  0.00    +0.000 OA
ATOM     14  H   UNL     1       0.187  11.263  17.406  0.00  0.00    +0.000 HD
ENDBRANCH   6  13
BRANCH   9  15
ATOM     15  N   UNL     1       3.541   6.144  18.639  0.00  0.00    +0.000 NA
ATOM     16  H   UNL     1       3.170   5.194  18.614  0.00  0.00    +0.000 HD
BRANCH  15  17
ATOM     17  C   UNL     1       4.341   6.367  17.432  0.00  0.00    +0.000 C 
BRANCH  17  18
ATOM     18  C   UNL     1       5.615   5.539  17.476  0.00  0.00    +0.000 C 
ATOM     19  C   UNL     1       6.918   6.373  17.385  0.00  0.00    +0.000 C 
ATOM     20  C   UNL     1       7.555   5.348  18.349  0.00  0.00    +0.000 C 
ATOM     21  F   UNL     1       8.411   5.856  19.262  0.00  0.00    +0.000 F 
ATOM     22  F   UNL     1       8.186   4.312  17.750  0.00  0.00    +0.000 F 
ATOM     23  C   UNL     1       6.123   5.053  18.855  0.00  0.00    +0.000 C 
ENDBRANCH  17  18
ENDBRANCH  15  17
ENDBRANCH   9  15
BRANCH  10  24
ATOM     24  O   UNL     1       1.530   6.572  20.967  0.00  0.00    +0.000 OA
ATOM     25  H   UNL     1       0.798   6.205  20.440  0.00  0.00    +0.000 HD
ENDBRANCH  10  24
TORSDOF 6
ENDMDL
MODEL 8
REMARK VINA RESULT:      -6.9      5.346      7.379
REMARK  Name = 
REMARK  6 active torsions:
REMARK  status: ('A' for Active; 'I' for Inactive)
REMARK    1  A    between atoms: O_1  and  C_2
REMARK    2  A    between atoms: C_7  and  O_8
REMARK    3  A    between atoms: C_11  and  N_12
REMARK    4  A    between atoms: N_12  and  C_13
REMARK    5  A    between atoms: C_13  and  C_14
REMARK    6  A    between atoms: C_20  and  O_21
REMARK                            x       y       z     vdW  Elec       q    Type
REMARK                         _______ _______ _______ _____ _____    ______ ____
ROOT
ATOM      1  C   UNL     1       3.926   3.000  18.013  0.00  0.00    +0.000 A 
ATOM      2  C   UNL     1       3.799   3.466  16.711  0.00  0.00    +0.000 A 
ATOM      3  C   UNL     1       4.587   4.534  16.296  0.00  0.00    +0.000 A 
ATOM      4  C   UNL     1       5.497   5.155  17.177  0.00  0.00    +0.000 A 
ATOM      5  C   UNL     1       5.661   4.655  18.483  0.00  0.00    +0.000 A 
ATOM      6  C   UNL     1       4.843   3.585  18.896  0.00  0.00    +0.000 A 
ATOM      7  C   UNL     1       6.657   5.288  19.426  0.00  0.00    +0.000 C 
ATOM      8  C   UNL     1       7.689   6.186  18.741  0.00  0.00    +0.000 C 
ATOM      9  C   UNL     1       6.999   7.161  17.780  0.00  0.00    +0.000 C 
ATOM     10  C   UNL     1       6.293   6.337  16.661  0.00  0.00    +0.000 C 
ENDROOT
BRANCH   1  11
ATOM     11  O   UNL     1       3.143   1.965  18.444  0.00  0.00    +0.000 OA
ATOM     12  H   UNL     1       3.605   1.499  19.159  0.00  0.00    +0.000 HD
ENDBRANCH   1  11
BRANCH   6  13
ATOM     13  O   UNL     1       4.907   3.072  20.164  0.00  0.00    +0.000 OA
ATOM     14  H   UNL     1       4.625   2.148  20.165  0.00  0.00    +0.000 HD
ENDBRANCH   6  13
BRANCH   9  15
ATOM     15  N   UNL     1       8.015   8.133  17.299  0.00  0.00    +0.000 NA
ATOM     16  H   UNL     1       7.899   8.260  16.293  0.00  0.00    +0.000 HD
BRANCH  15  17
ATOM     17  C   UNL     1       7.887   9.437  17.955  0.00  0.00    +0.000 C 
BRANCH  17  18
ATOM     18  C   UNL     1       9.227   9.888  18.511  0.00  0.00    +0.000 C 
ATOM     19  C   UNL     1       9.735  11.233  17.931  0.00  0.00    +0.000 C 
ATOM     20  C   UNL     1      10.328  11.527  19.327  0.00  0.00    +0.000 C 
ATOM     21  F   UNL     1      10.255  12.813  19.735  0.00  0.00    +0.000 F 
ATOM     22  F   UNL     1      11.609  11.128  19.503  0.00  0.00    +0.000 F 
ATOM     23  C   UNL     1       9.250  10.574  19.898  0.00  0.00    +0.000 C 
ENDBRANCH  17  18
ENDBRANCH  15  17
ENDBRANCH   9  15
BRANCH  10  24
ATOM     24  O   UNL     1       5.392   7.180  15.934  0.00  0.00    +0.000 OA
ATOM     25  H   UNL     1       5.336   8.018  16.427  0.00  0.00    +0.000 HD
ENDBRANCH  10  24
TORSDOF 6
ENDMDL
MODEL 9
REMARK VINA RESULT:      -6.8      5.582      8.173
REMARK  Name = 
REMARK  6 active torsions:
REMARK  status: ('A' for Active; 'I' for Inactive)
REMARK    1  A    between atoms: O_1  and  C_2
REMARK    2  A    between atoms: C_7  and  O_8
REMARK    3  A    between atoms: C_11  and  N_12
REMARK    4  A    between atoms: N_12  and  C_13
REMARK    5  A    between atoms: C_13  and  C_14
REMARK    6  A    between atoms: C_20  and  O_21
REMARK                            x       y       z     vdW  Elec       q    Type
REMARK                         _______ _______ _______ _____ _____    ______ ____
ROOT
ATOM      1  C   UNL     1      -0.716  11.615  21.254  0.00  0.00    +0.000 A 
ATOM      2  C   UNL     1      -0.818  11.863  19.892  0.00  0.00    +0.000 A 
ATOM      3  C   UNL     1      -0.197  10.998  18.998  0.00  0.00    +0.000 A 
ATOM      4  C   UNL     1       0.541   9.885  19.453  0.00  0.00    +0.000 A 
ATOM      5  C   UNL     1       0.608   9.605  20.832  0.00  0.00    +0.000 A 
ATOM      6  C   UNL     1      -0.010  10.500  21.727  0.00  0.00    +0.000 A 
ATOM      7  C   UNL     1       1.366   8.397  21.332  0.00  0.00    +0.000 C 
ATOM      8  C   UNL     1       1.676   7.358  20.252  0.00  0.00    +0.000 C 
ATOM      9  C   UNL     1       2.278   8.032  19.014  0.00  0.00    +0.000 C 
ATOM     10  C   UNL     1       1.219   9.010  18.419  0.00  0.00    +0.000 C 
ENDROOT
BRANCH   1  11
ATOM     11  O   UNL     1      -1.302  12.468  22.147  0.00  0.00    +0.000 OA
ATOM     12  H   UNL     1      -1.396  12.014  22.999  0.00  0.00    +0.000 HD
ENDBRANCH   1  11
BRANCH   6  13
ATOM     13  O   UNL     1       0.050  10.325  23.084  0.00  0.00    +0.000 OA
ATOM     14  H   UNL     1       0.403  11.118  23.507  0.00  0.00    +0.000 HD
ENDBRANCH   6  13
BRANCH   9  15
ATOM     15  N   UNL     1       2.741   6.967  18.087  0.00  0.00    +0.000 NA
ATOM     16  H   UNL     1       3.346   7.386  17.380  0.00  0.00    +0.000 HD
BRANCH  15  17
ATOM     17  C   UNL     1       3.490   5.916  18.782  0.00  0.00    +0.000 C 
BRANCH  17  18
ATOM     18  C   UNL     1       3.104   4.546  18.251  0.00  0.00    +0.000 C 
ATOM     19  C   UNL     1       2.703   3.529  19.349  0.00  0.00    +0.000 C 
ATOM     20  C   UNL     1       1.670   2.965  18.348  0.00  0.00    +0.000 C 
ATOM     21  F   UNL     1       0.492   2.573  18.880  0.00  0.00    +0.000 F 
ATOM     22  F   UNL     1       2.114   1.946  17.577  0.00  0.00    +0.000 F 
ATOM     23  C   UNL     1       1.679   4.360  17.677  0.00  0.00    +0.000 C 
ENDBRANCH  17  18
ENDBRANCH  15  17
ENDBRANCH   9  15
BRANCH  10  24
ATOM     24  O   UNL     1       1.843   9.875  17.464  0.00  0.00    +0.000 OA
ATOM     25  H   UNL     1       1.248  10.636  17.345  0.00  0.00    +0.000 HD
ENDBRANCH  10  24
TORSDOF 6
ENDMDL
