MODEL 1
REMARK VINA RESULT:      -7.2      0.000      0.000
REMARK  Name = 
REMARK  13 active torsions:
REMARK  status: ('A' for Active; 'I' for Inactive)
REMARK    1  A    between atoms: C_1  and  C_2
REMARK    2  A    between atoms: C_2  and  O_3
REMARK    3  A    between atoms: O_3  and  C_4
REMARK    4  A    between atoms: C_4  and  C_5
REMARK    5  A    between atoms: C_4  and  C_31
REMARK    6  A    between atoms: C_5  and  C_6
REMARK    7  A    between atoms: C_9  and  O_10
REMARK    8  A    between atoms: O_10  and  C_11
REMARK    9  A    between atoms: C_11  and  C_12
REMARK   10  A    between atoms: C_12  and  N_13
REMARK   11  A    between atoms: C_16  and  C_17
REMARK   12  A    between atoms: C_22  and  C_23
REMARK   13  A    between atoms: C_31  and  O_33
REMARK                            x       y       z     vdW  Elec       q    Type
REMARK                         _______ _______ _______ _____ _____    ______ ____
ROOT
ATOM      1  C   UNL     1       7.997   9.436  17.989  0.00  0.00    +0.000 C 
ENDROOT
BRANCH   1   2
ATOM      2  O   UNL     1       8.169   8.222  17.246  0.00  0.00    +0.000 OA
BRANCH   2   6
ATOM      3  C   UNL     1       5.709   5.095  18.563  0.00  0.00    +0.000 A 
ATOM      4  C   UNL     1       6.978   5.318  19.116  0.00  0.00    +0.000 A 
ATOM      5  C   UNL     1       7.773   6.379  18.667  0.00  0.00    +0.000 A 
ATOM      6  C   UNL     1       7.316   7.225  17.658  0.00  0.00    +0.000 A 
ATOM      7  C   UNL     1       6.037   7.031  17.137  0.00  0.00    +0.000 A 
ATOM      8  C   UNL     1       5.248   5.970  17.575  0.00  0.00    +0.000 A 
BRANCH   3   9
ATOM      9  C   UNL     1       4.854   3.932  19.014  0.00  0.00    +0.000 C 
BRANCH   9  10
ATOM     10  C   UNL     1       3.585   3.693  18.182  0.00  0.00    +0.000 C 
BRANCH  10  11
ATOM     11  C   UNL     1       3.242   2.199  18.162  0.00  0.00    +0.000 C 
ATOM     12  O   UNL     1       3.883   1.332  18.738  0.00  0.00    +0.000 OA
BRANCH  11  13
ATOM     13  O   UNL     1       2.146   1.934  17.411  0.00  0.00    +0.000 OA
ATOM     14  H   UNL     1       1.455   1.562  18.010  0.00  0.00    +0.000 HD
ENDBRANCH  11  13
ENDBRANCH  10  11
BRANCH  10  15
ATOM     15  O   UNL     1       2.433   4.432  18.639  0.00  0.00    +0.000 OA
BRANCH  15  17
ATOM     16  C   UNL     1       1.815   5.706  20.574  0.00  0.00    +0.000 C 
ATOM     17  C   UNL     1       2.233   4.345  20.052  0.00  0.00    +0.000 C 
ENDBRANCH  15  17
ENDBRANCH  10  15
ENDBRANCH   9  10
ENDBRANCH   3   9
ENDBRANCH   2   6
ENDBRANCH   1   2
BRANCH   1  18
ATOM     18  C   UNL     1       9.069   9.581  19.077  0.00  0.00    +0.000 C 
BRANCH  18  19
ATOM     19  N   UNL     1       9.783  10.878  19.018  0.00  0.00    +0.000 NA
ATOM     20  C   UNL     1       9.731  11.415  17.646  0.00  0.00    +0.000 C 
ATOM     21  C   UNL     1      10.122  12.863  17.523  0.00  0.00    +0.000 C 
ATOM     22  C   UNL     1      10.274  13.670  18.586  0.00  0.00    +0.000 C 
ATOM     23  C   UNL     1      10.064  13.159  19.980  0.00  0.00    +0.000 C 
ATOM     24  C   UNL     1       9.256  11.854  19.987  0.00  0.00    +0.000 C 
BRANCH  22  25
ATOM     25  C   UNL     1      10.586  15.093  18.427  0.00  0.00    +0.000 A 
ATOM     26  C   UNL     1      11.942  15.452  18.392  0.00  0.00    +0.000 A 
ATOM     27  C   UNL     1      12.328  16.784  18.258  0.00  0.00    +0.000 A 
ATOM     28  C   UNL     1      11.363  17.778  18.149  0.00  0.00    +0.000 A 
ATOM     29  C   UNL     1      10.012  17.434  18.177  0.00  0.00    +0.000 A 
ATOM     30  C   UNL     1       9.599  16.089  18.317  0.00  0.00    +0.000 A 
BRANCH  30  31
ATOM     31  C   UNL     1       8.115  15.824  18.350  0.00  0.00    +0.000 C 
ATOM     32  F   UNL     1       7.298  16.909  18.245  0.00  0.00    +0.000 F 
ATOM     33  F   UNL     1       7.726  14.991  17.336  0.00  0.00    +0.000 F 
ATOM     34  F   UNL     1       7.732  15.194  19.497  0.00  0.00    +0.000 F 
ENDBRANCH  30  31
ENDBRANCH  22  25
ENDBRANCH  18  19
ENDBRANCH   1  18
TORSDOF 12
ENDMDL
MODEL 2
REMARK VINA RESULT:      -7.2      8.233     12.028
REMARK  Name = 
REMARK  13 active torsions:
REMARK  status: ('A' for Active; 'I' for Inactive)
REMARK    1  A    between atoms: C_1  and  C_2
REMARK    2  A    between atoms: C_2  and  O_3
REMARK    3  A    between atoms: O_3  and  C_4
REMARK    4  A    between atoms: C_4  and  C_5
REMARK    5  A    between atoms: C_4  and  C_31
REMARK    6  A    between atoms: C_5  and  C_6
REMARK    7  A    between atoms: C_9  and  O_10
REMARK    8  A    between atoms: O_10  and  C_11
REMARK    9  A    between atoms: C_11  and  C_12
REMARK   10  A    between atoms: C_12  and  N_13
REMARK   11  A    between atoms: C_16  and  C_17
REMARK   12  A    between atoms: C_22  and  C_23
REMARK   13  A    between atoms: C_31  and  O_33
REMARK                            x       y       z     vdW  Elec       q    Type
REMARK                         _______ _______ _______ _____ _____    ______ ____
ROOT
ATOM      1  C   UNL     1       0.611  10.166  21.523  0.00  0.00    +0.000 C 
ENDROOT
BRANCH   1   2
ATOM      2  O   UNL     1       0.739  11.549  21.878  0.00  0.00    +0.000 OA
BRANCH   2   6
ATOM      3  C   UNL     1      -3.029  13.225  22.623  0.00  0.00    +0.000 A 
ATOM      4  C   UNL     1      -2.613  12.041  23.247  0.00  0.00    +0.000 A 
ATOM      5  C   UNL     1      -1.342  11.511  22.992  0.00  0.00    +0.000 A 
ATOM      6  C   UNL     1      -0.477  12.151  22.105  0.00  0.00    +0.000 A 
ATOM      7  C   UNL     1      -0.873  13.350  21.516  0.00  0.00    +0.000 A 
ATOM      8  C   UNL     1      -2.140  13.875  21.763  0.00  0.00    +0.000 A 
BRANCH   3   9
ATOM      9  C   UNL     1      -4.411  13.790  22.864  0.00  0.00    +0.000 C 
BRANCH   9  10
ATOM     10  C   UNL     1      -5.548  12.757  22.870  0.00  0.00    +0.000 C 
BRANCH  10  11
ATOM     11  C   UNL     1      -6.857  13.417  23.317  0.00  0.00    +0.000 C 
ATOM     12  O   UNL     1      -7.822  13.606  22.590  0.00  0.00    +0.000 OA
BRANCH  11  13
ATOM     13  O   UNL     1      -6.825  13.793  24.617  0.00  0.00    +0.000 OA
ATOM     14  H   UNL     1      -7.713  14.158  24.846  0.00  0.00    +0.000 HD
ENDBRANCH  11  13
ENDBRANCH  10  11
BRANCH  10  15
ATOM     15  O   UNL     1      -5.760  12.106  21.601  0.00  0.00    +0.000 OA
BRANCH  15  17
ATOM     16  C   UNL     1      -4.801  12.235  19.406  0.00  0.00    +0.000 C 
ATOM     17  C   UNL     1      -5.569  12.977  20.482  0.00  0.00    +0.000 C 
ENDBRANCH  15  17
ENDBRANCH  10  15
ENDBRANCH   9  10
ENDBRANCH   3   9
ENDBRANCH   2   6
ENDBRANCH   1   2
BRANCH   1  18
ATOM     18  C   UNL     1       0.220  10.002  20.048  0.00  0.00    +0.000 C 
BRANCH  18  19
ATOM     19  N   UNL     1       0.855   8.826  19.408  0.00  0.00    +0.000 NA
ATOM     20  C   UNL     1       1.489   9.229  18.138  0.00  0.00    +0.000 C 
ATOM     21  C   UNL     1       2.441   8.216  17.562  0.00  0.00    +0.000 C 
ATOM     22  C   UNL     1       2.868   7.143  18.249  0.00  0.00    +0.000 C 
ATOM     23  C   UNL     1       2.404   6.890  19.653  0.00  0.00    +0.000 C 
ATOM     24  C   UNL     1       1.824   8.159  20.293  0.00  0.00    +0.000 C 
BRANCH  22  25
ATOM     25  C   UNL     1       3.850   6.215  17.683  0.00  0.00    +0.000 A 
ATOM     26  C   UNL     1       5.113   6.734  17.362  0.00  0.00    +0.000 A 
ATOM     27  C   UNL     1       6.102   5.926  16.805  0.00  0.00    +0.000 A 
ATOM     28  C   UNL     1       5.845   4.580  16.570  0.00  0.00    +0.000 A 
ATOM     29  C   UNL     1       4.595   4.050  16.889  0.00  0.00    +0.000 A 
ATOM     30  C   UNL     1       3.577   4.855  17.450  0.00  0.00    +0.000 A 
BRANCH  30  31
ATOM     31  C   UNL     1       2.258   4.189  17.747  0.00  0.00    +0.000 C 
ATOM     32  F   UNL     1       1.135   4.868  17.381  0.00  0.00    +0.000 F 
ATOM     33  F   UNL     1       2.152   2.974  17.127  0.00  0.00    +0.000 F 
ATOM     34  F   UNL     1       2.103   3.926  19.077  0.00  0.00    +0.000 F 
ENDBRANCH  30  31
ENDBRANCH  22  25
ENDBRANCH  18  19
ENDBRANCH   1  18
TORSDOF 12
ENDMDL
MODEL 3
REMARK VINA RESULT:      -7.2      7.802      9.599
REMARK  Name = 
REMARK  13 active torsions:
REMARK  status: ('A' for Active; 'I' for Inactive)
REMARK    1  A    between atoms: C_1  and  C_2
REMARK    2  A    between atoms: C_2  and  O_3
REMARK    3  A    between atoms: O_3  and  C_4
REMARK    4  A    between atoms: C_4  and  C_5
REMARK    5  A    between atoms: C_4  and  C_31
REMARK    6  A    between atoms: C_5  and  C_6
REMARK    7  A    between atoms: C_9  and  O_10
REMARK    8  A    between atoms: O_10  and  C_11
REMARK    9  A    between atoms: C_11  and  C_12
REMARK   10  A    between atoms: C_12  and  N_13
REMARK   11  A    between atoms: C_16  and  C_17
REMARK   12  A    between atoms: C_22  and  C_23
REMARK   13  A    between atoms: C_31  and  O_33
REMARK                            x       y       z     vdW  Elec       q    Type
REMARK                         _______ _______ _______ _____ _____    ______ ____
ROOT
ATOM      1  C   UNL     1       0.354   9.651  18.893  0.00  0.00    +0.000 C 
ENDROOT
BRANCH   1   2
ATOM      2  O   UNL     1       1.603   9.502  18.204  0.00  0.00    +0.000 OA
BRANCH   2   6
ATOM      3  C   UNL     1       3.588   5.897  18.995  0.00  0.00    +0.000 A 
ATOM      4  C   UNL     1       3.845   6.640  17.835  0.00  0.00    +0.000 A 
ATOM      5  C   UNL     1       3.178   7.849  17.602  0.00  0.00    +0.000 A 
ATOM      6  C   UNL     1       2.243   8.326  18.520  0.00  0.00    +0.000 A 
ATOM      7  C   UNL     1       2.017   7.610  19.695  0.00  0.00    +0.000 A 
ATOM      8  C   UNL     1       2.673   6.402  19.923  0.00  0.00    +0.000 A 
BRANCH   3   9
ATOM      9  C   UNL     1       4.275   4.573  19.242  0.00  0.00    +0.000 C 
BRANCH   9  10
ATOM     10  C   UNL     1       3.336   3.396  19.547  0.00  0.00    +0.000 C 
BRANCH  10  11
ATOM     11  C   UNL     1       4.004   2.074  19.152  0.00  0.00    +0.000 C 
ATOM     12  O   UNL     1       3.556   1.288  18.328  0.00  0.00    +0.000 OA
BRANCH  11  13
ATOM     13  O   UNL     1       5.152   1.855  19.836  0.00  0.00    +0.000 OA
ATOM     14  H   UNL     1       5.897   1.887  19.189  0.00  0.00    +0.000 HD
ENDBRANCH  11  13
ENDBRANCH  10  11
BRANCH  10  15
ATOM     15  O   UNL     1       2.919   3.316  20.926  0.00  0.00    +0.000 OA
BRANCH  15  17
ATOM     16  C   UNL     1       0.590   3.376  20.355  0.00  0.00    +0.000 C 
ATOM     17  C   UNL     1       1.678   2.626  21.099  0.00  0.00    +0.000 C 
ENDBRANCH  15  17
ENDBRANCH  10  15
ENDBRANCH   9  10
ENDBRANCH   3   9
ENDBRANCH   2   6
ENDBRANCH   1   2
BRANCH   1  18
ATOM     18  C   UNL     1      -0.349  10.957  18.498  0.00  0.00    +0.000 C 
BRANCH  18  19
ATOM     19  N   UNL     1      -0.396  11.946  19.600  0.00  0.00    +0.000 NA
ATOM     20  C   UNL     1      -1.616  12.766  19.484  0.00  0.00    +0.000 C 
ATOM     21  C   UNL     1      -1.949  13.573  20.710  0.00  0.00    +0.000 C 
ATOM     22  C   UNL     1      -1.339  13.389  21.892  0.00  0.00    +0.000 C 
ATOM     23  C   UNL     1      -0.265  12.354  22.054  0.00  0.00    +0.000 C 
ATOM     24  C   UNL     1      -0.310  11.314  20.927  0.00  0.00    +0.000 C 
BRANCH  22  25
ATOM     25  C   UNL     1      -1.737  14.143  23.084  0.00  0.00    +0.000 A 
ATOM     26  C   UNL     1      -1.060  15.345  23.339  0.00  0.00    +0.000 A 
ATOM     27  C   UNL     1      -1.364  16.117  24.458  0.00  0.00    +0.000 A 
ATOM     28  C   UNL     1      -2.359  15.703  25.335  0.00  0.00    +0.000 A 
ATOM     29  C   UNL     1      -3.044  14.513  25.091  0.00  0.00    +0.000 A 
ATOM     30  C   UNL     1      -2.747  13.713  23.964  0.00  0.00    +0.000 A 
BRANCH  30  31
ATOM     31  C   UNL     1      -3.535  12.439  23.797  0.00  0.00    +0.000 C 
ATOM     32  F   UNL     1      -4.418  12.132  24.788  0.00  0.00    +0.000 F 
ATOM     33  F   UNL     1      -4.283  12.451  22.651  0.00  0.00    +0.000 F 
ATOM     34  F   UNL     1      -2.726  11.346  23.684  0.00  0.00    +0.000 F 
ENDBRANCH  30  31
ENDBRANCH  22  25
ENDBRANCH  18  19
ENDBRANCH   1  18
TORSDOF 12
ENDMDL
MODEL 4
REMARK VINA RESULT:      -7.2      5.345      7.633
REMARK  Name = 
REMARK  13 active torsions:
REMARK  status: ('A' for Active; 'I' for Inactive)
REMARK    1  A    between atoms: C_1  and  C_2
REMARK    2  A    between atoms: C_2  and  O_3
REMARK    3  A    between atoms: O_3  and  C_4
REMARK    4  A    between atoms: C_4  and  C_5
REMARK    5  A    between atoms: C_4  and  C_31
REMARK    6  A    between atoms: C_5  and  C_6
REMARK    7  A    between atoms: C_9  and  O_10
REMARK    8  A    between atoms: O_10  and  C_11
REMARK    9  A    between atoms: C_11  and  C_12
REMARK   10  A    between atoms: C_12  and  N_13
REMARK   11  A    between atoms: C_16  and  C_17
REMARK   12  A    between atoms: C_22  and  C_23
REMARK   13  A    between atoms: C_31  and  O_33
REMARK                            x       y       z     vdW  Elec       q    Type
REMARK                         _______ _______ _______ _____ _____    ______ ____
ROOT
ATOM      1  C   UNL     1       1.624   7.823  21.118  0.00  0.00    +0.000 C 
ENDROOT
BRANCH   1   2
ATOM      2  O   UNL     1       1.648   6.561  20.438  0.00  0.00    +0.000 OA
BRANCH   2   6
ATOM      3  C   UNL     1       4.194   6.469  17.111  0.00  0.00    +0.000 A 
ATOM      4  C   UNL     1       3.982   5.337  17.908  0.00  0.00    +0.000 A 
ATOM      5  C   UNL     1       3.115   5.390  19.006  0.00  0.00    +0.000 A 
ATOM      6  C   UNL     1       2.455   6.577  19.324  0.00  0.00    +0.000 A 
ATOM      7  C   UNL     1       2.631   7.692  18.508  0.00  0.00    +0.000 A 
ATOM      8  C   UNL     1       3.501   7.643  17.421  0.00  0.00    +0.000 A 
BRANCH   3   9
ATOM      9  C   UNL     1       5.154   6.434  15.943  0.00  0.00    +0.000 C 
BRANCH   9  10
ATOM     10  C   UNL     1       6.416   5.585  16.161  0.00  0.00    +0.000 C 
BRANCH  10  11
ATOM     11  C   UNL     1       6.716   4.757  14.906  0.00  0.00    +0.000 C 
ATOM     12  O   UNL     1       7.317   5.174  13.926  0.00  0.00    +0.000 OA
BRANCH  11  13
ATOM     13  O   UNL     1       6.219   3.500  14.990  0.00  0.00    +0.000 OA
ATOM     14  H   UNL     1       5.773   3.296  14.133  0.00  0.00    +0.000 HD
ENDBRANCH  11  13
ENDBRANCH  10  11
BRANCH  10  15
ATOM     15  O   UNL     1       7.589   6.350  16.508  0.00  0.00    +0.000 OA
BRANCH  15  17
ATOM     16  C   UNL     1       7.798   6.013  18.873  0.00  0.00    +0.000 C 
ATOM     17  C   UNL     1       7.479   7.007  17.773  0.00  0.00    +0.000 C 
ENDBRANCH  15  17
ENDBRANCH  10  15
ENDBRANCH   9  10
ENDBRANCH   3   9
ENDBRANCH   2   6
ENDBRANCH   1   2
BRANCH   1  18
ATOM     18  C   UNL     1       0.379   8.638  20.742  0.00  0.00    +0.000 C 
BRANCH  18  19
ATOM     19  N   UNL     1       0.700  10.012  20.293  0.00  0.00    +0.000 NA
ATOM     20  C   UNL     1      -0.240  10.425  19.234  0.00  0.00    +0.000 C 
ATOM     21  C   UNL     1      -0.235  11.899  18.930  0.00  0.00    +0.000 C 
ATOM     22  C   UNL     1       0.386  12.802  19.706  0.00  0.00    +0.000 C 
ATOM     23  C   UNL     1       1.128  12.380  20.939  0.00  0.00    +0.000 C 
ATOM     24  C   UNL     1       0.703  10.981  21.402  0.00  0.00    +0.000 C 
BRANCH  22  25
ATOM     25  C   UNL     1       0.311  14.237  19.420  0.00  0.00    +0.000 A 
ATOM     26  C   UNL     1      -0.853  14.911  19.820  0.00  0.00    +0.000 A 
ATOM     27  C   UNL     1      -1.015  16.273  19.574  0.00  0.00    +0.000 A 
ATOM     28  C   UNL     1      -0.010  16.985  18.930  0.00  0.00    +0.000 A 
ATOM     29  C   UNL     1       1.154  16.328  18.531  0.00  0.00    +0.000 A 
ATOM     30  C   UNL     1       1.336  14.946  18.767  0.00  0.00    +0.000 A 
BRANCH  30  31
ATOM     31  C   UNL     1       2.623  14.328  18.285  0.00  0.00    +0.000 C 
ATOM     32  F   UNL     1       3.490  13.896  19.244  0.00  0.00    +0.000 F 
ATOM     33  F   UNL     1       2.397  13.232  17.497  0.00  0.00    +0.000 F 
ATOM     34  F   UNL     1       3.345  15.185  17.507  0.00  0.00    +0.000 F 
ENDBRANCH  30  31
ENDBRANCH  22  25
ENDBRANCH  18  19
ENDBRANCH   1  18
TORSDOF 12
ENDMDL
MODEL 5
REMARK VINA RESULT:      -7.1      1.747      2.278
REMARK  Name = 
REMARK  13 active torsions:
REMARK  status: ('A' for Active; 'I' for Inactive)
REMARK    1  A    between atoms: C_1  and  C_2
REMARK    2  A    between atoms: C_2  and  O_3
REMARK    3  A    between atoms: O_3  and  C_4
REMARK    4  A    between atoms: C_4  and  C_5
REMARK    5  A    between atoms: C_4  and  C_31
REMARK    6  A    between atoms: C_5  and  C_6
REMARK    7  A    between atoms: C_9  and  O_10
REMARK    8  A    between atoms: O_10  and  C_11
REMARK    9  A    between atoms: C_11  and  C_12
REMARK   10  A    between atoms: C_12  and  N_13
REMARK   11  A    between atoms: C_16  and  C_17
REMARK   12  A    between atoms: C_22  and  C_23
REMARK   13  A    between atoms: C_31  and  O_33
REMARK                            x       y       z     vdW  Elec       q    Type
REMARK                         _______ _______ _______ _____ _____    ______ ____
ROOT
ATOM      1  C   UNL     1       7.635   8.772  17.483  0.00  0.00    +0.000 C 
ENDROOT
BRANCH   1   2
ATOM      2  O   UNL     1       7.916   7.474  16.941  0.00  0.00    +0.000 OA
BRANCH   2   6
ATOM      3  C   UNL     1       4.717   4.770  17.081  0.00  0.00    +0.000 A 
ATOM      4  C   UNL     1       6.013   4.362  16.735  0.00  0.00    +0.000 A 
ATOM      5  C   UNL     1       7.067   5.284  16.710  0.00  0.00    +0.000 A 
ATOM      6  C   UNL     1       6.839   6.623  17.023  0.00  0.00    +0.000 A 
ATOM      7  C   UNL     1       5.560   7.022  17.409  0.00  0.00    +0.000 A 
ATOM      8  C   UNL     1       4.509   6.109  17.425  0.00  0.00    +0.000 A 
BRANCH   3   9
ATOM      9  C   UNL     1       3.564   3.793  17.077  0.00  0.00    +0.000 C 
BRANCH   9  10
ATOM     10  C   UNL     1       3.765   2.542  17.947  0.00  0.00    +0.000 C 
BRANCH  10  11
ATOM     11  C   UNL     1       4.162   2.950  19.370  0.00  0.00    +0.000 C 
ATOM     12  O   UNL     1       3.668   3.880  19.990  0.00  0.00    +0.000 OA
BRANCH  11  13
ATOM     13  O   UNL     1       5.150   2.169  19.870  0.00  0.00    +0.000 OA
ATOM     14  H   UNL     1       6.004   2.648  19.743  0.00  0.00    +0.000 HD
ENDBRANCH  11  13
ENDBRANCH  10  11
BRANCH  10  15
ATOM     15  O   UNL     1       2.611   1.678  18.012  0.00  0.00    +0.000 OA
BRANCH  15  17
ATOM     16  C   UNL     1       0.535   2.601  18.779  0.00  0.00    +0.000 C 
ATOM     17  C   UNL     1       1.813   1.891  19.180  0.00  0.00    +0.000 C 
ENDBRANCH  15  17
ENDBRANCH  10  15
ENDBRANCH   9  10
ENDBRANCH   3   9
ENDBRANCH   2   6
ENDBRANCH   1   2
BRANCH   1  18
ATOM     18  C   UNL     1       8.681   9.179  18.530  0.00  0.00    +0.000 C 
BRANCH  18  19
ATOM     19  N   UNL     1       9.393  10.430  18.181  0.00  0.00    +0.000 NA
ATOM     20  C   UNL     1       8.417  11.481  17.836  0.00  0.00    +0.000 C 
ATOM     21  C   UNL     1       8.985  12.874  17.787  0.00  0.00    +0.000 C 
ATOM     22  C   UNL     1      10.210  13.179  18.248  0.00  0.00    +0.000 C 
ATOM     23  C   UNL     1      11.096  12.125  18.841  0.00  0.00    +0.000 C 
ATOM     24  C   UNL     1      10.297  10.881  19.252  0.00  0.00    +0.000 C 
BRANCH  22  25
ATOM     25  C   UNL     1      10.703  14.558  18.250  0.00  0.00    +0.000 A 
ATOM     26  C   UNL     1      11.275  15.037  17.061  0.00  0.00    +0.000 A 
ATOM     27  C   UNL     1      11.784  16.331  16.979  0.00  0.00    +0.000 A 
ATOM     28  C   UNL     1      11.720  17.172  18.084  0.00  0.00    +0.000 A 
ATOM     29  C   UNL     1      11.150  16.710  19.271  0.00  0.00    +0.000 A 
ATOM     30  C   UNL     1      10.632  15.399  19.375  0.00  0.00    +0.000 A 
BRANCH  30  31
ATOM     31  C   UNL     1      10.049  14.993  20.705  0.00  0.00    +0.000 C 
ATOM     32  F   UNL     1      10.656  13.955  21.346  0.00  0.00    +0.000 F 
ATOM     33  F   UNL     1      10.072  16.024  21.605  0.00  0.00    +0.000 F 
ATOM     34  F   UNL     1       8.737  14.636  20.602  0.00  0.00    +0.000 F 
ENDBRANCH  30  31
ENDBRANCH  22  25
ENDBRANCH  18  19
ENDBRANCH   1  18
TORSDOF 12
ENDMDL
MODEL 6
REMARK VINA RESULT:      -7.1      8.350     12.132
REMARK  Name = 
REMARK  13 active torsions:
REMARK  status: ('A' for Active; 'I' for Inactive)
REMARK    1  A    between atoms: C_1  and  C_2
REMARK    2  A    between atoms: C_2  and  O_3
REMARK    3  A    between atoms: O_3  and  C_4
REMARK    4  A    between atoms: C_4  and  C_5
REMARK    5  A    between atoms: C_4  and  C_31
REMARK    6  A    between atoms: C_5  and  C_6
REMARK    7  A    between atoms: C_9  and  O_10
REMARK    8  A    between atoms: O_10  and  C_11
REMARK    9  A    between atoms: C_11  and  C_12
REMARK   10  A    between atoms: C_12  and  N_13
REMARK   11  A    between atoms: C_16  and  C_17
REMARK   12  A    between atoms: C_22  and  C_23
REMARK   13  A    between atoms: C_31  and  O_33
REMARK                            x       y       z     vdW  Elec       q    Type
REMARK                         _______ _______ _______ _____ _____    ______ ____
ROOT
ATOM      1  C   UNL     1       0.892  10.120  21.597  0.00  0.00    +0.000 C 
ENDROOT
BRANCH   1   2
ATOM      2  O   UNL     1       0.811  11.544  21.746  0.00  0.00    +0.000 OA
BRANCH   2   6
ATOM      3  C   UNL     1      -2.922  12.975  23.005  0.00  0.00    +0.000 A 
ATOM      4  C   UNL     1      -2.156  13.656  22.049  0.00  0.00    +0.000 A 
ATOM      5  C   UNL     1      -0.918  13.149  21.636  0.00  0.00    +0.000 A 
ATOM      6  C   UNL     1      -0.429  11.960  22.176  0.00  0.00    +0.000 A 
ATOM      7  C   UNL     1      -1.209  11.259  23.094  0.00  0.00    +0.000 A 
ATOM      8  C   UNL     1      -2.436  11.768  23.514  0.00  0.00    +0.000 A 
BRANCH   3   9
ATOM      9  C   UNL     1      -4.244  13.531  23.486  0.00  0.00    +0.000 C 
BRANCH   9  10
ATOM     10  C   UNL     1      -5.484  12.987  22.760  0.00  0.00    +0.000 C 
BRANCH  10  11
ATOM     11  C   UNL     1      -6.643  12.822  23.749  0.00  0.00    +0.000 C 
ATOM     12  O   UNL     1      -7.277  11.789  23.910  0.00  0.00    +0.000 OA
BRANCH  11  13
ATOM     13  O   UNL     1      -6.907  13.966  24.425  0.00  0.00    +0.000 OA
ATOM     14  H   UNL     1      -7.710  14.374  24.021  0.00  0.00    +0.000 HD
ENDBRANCH  11  13
ENDBRANCH  10  11
BRANCH  10  15
ATOM     15  O   UNL     1      -5.925  13.803  21.654  0.00  0.00    +0.000 OA
BRANCH  15  17
ATOM     16  C   UNL     1      -7.917  13.780  20.318  0.00  0.00    +0.000 C 
ATOM     17  C   UNL     1      -6.624  13.061  20.651  0.00  0.00    +0.000 C 
ENDBRANCH  15  17
ENDBRANCH  10  15
ENDBRANCH   9  10
ENDBRANCH   3   9
ENDBRANCH   2   6
ENDBRANCH   1   2
BRANCH   1  18
ATOM     18  C   UNL     1       0.083   9.638  20.386  0.00  0.00    +0.000 C 
BRANCH  18  19
ATOM     19  N   UNL     1       0.757   8.555  19.634  0.00  0.00    +0.000 NA
ATOM     20  C   UNL     1       1.407   9.109  18.431  0.00  0.00    +0.000 C 
ATOM     21  C   UNL     1       2.393   8.185  17.768  0.00  0.00    +0.000 C 
ATOM     22  C   UNL     1       2.831   7.052  18.341  0.00  0.00    +0.000 C 
ATOM     23  C   UNL     1       2.345   6.636  19.697  0.00  0.00    +0.000 C 
ATOM     24  C   UNL     1       1.724   7.813  20.460  0.00  0.00    +0.000 C 
BRANCH  22  25
ATOM     25  C   UNL     1       3.844   6.213  17.697  0.00  0.00    +0.000 A 
ATOM     26  C   UNL     1       5.069   6.818  17.376  0.00  0.00    +0.000 A 
ATOM     27  C   UNL     1       6.083   6.098  16.749  0.00  0.00    +0.000 A 
ATOM     28  C   UNL     1       5.892   4.756  16.441  0.00  0.00    +0.000 A 
ATOM     29  C   UNL     1       4.681   4.141  16.760  0.00  0.00    +0.000 A 
ATOM     30  C   UNL     1       3.638   4.855  17.392  0.00  0.00    +0.000 A 
BRANCH  30  31
ATOM     31  C   UNL     1       2.364   4.102  17.681  0.00  0.00    +0.000 C 
ATOM     32  F   UNL     1       2.099   3.832  18.990  0.00  0.00    +0.000 F 
ATOM     33  F   UNL     1       1.262   4.777  17.231  0.00  0.00    +0.000 F 
ATOM     34  F   UNL     1       2.327   2.894  17.049  0.00  0.00    +0.000 F 
ENDBRANCH  30  31
ENDBRANCH  22  25
ENDBRANCH  18  19
ENDBRANCH   1  18
TORSDOF 12
ENDMDL
MODEL 7
REMARK VINA RESULT:      -7.1      5.278      7.488
REMARK  Name = 
REMARK  13 active torsions:
REMARK  status: ('A' for Active; 'I' for Inactive)
REMARK    1  A    between atoms: C_1  and  C_2
REMARK    2  A    between atoms: C_2  and  O_3
REMARK    3  A    between atoms: O_3  and  C_4
REMARK    4  A    between atoms: C_4  and  C_5
REMARK    5  A    between atoms: C_4  and  C_31
REMARK    6  A    between atoms: C_5  and  C_6
REMARK    7  A    between atoms: C_9  and  O_10
REMARK    8  A    between atoms: O_10  and  C_11
REMARK    9  A    between atoms: C_11  and  C_12
REMARK   10  A    between atoms: C_12  and  N_13
REMARK   11  A    between atoms: C_16  and  C_17
REMARK   12  A    between atoms: C_22  and  C_23
REMARK   13  A    between atoms: C_31  and  O_33
REMARK                            x       y       z     vdW  Elec       q    Type
REMARK                         _______ _______ _______ _____ _____    ______ ____
ROOT
ATOM      1  C   UNL     1       1.342   8.744  21.379  0.00  0.00    +0.000 C 
ENDROOT
BRANCH   1   2
ATOM      2  O   UNL     1       1.232   7.433  20.810  0.00  0.00    +0.000 OA
BRANCH   2   6
ATOM      3  C   UNL     1       3.856   6.915  17.583  0.00  0.00    +0.000 A 
ATOM      4  C   UNL     1       3.049   8.054  17.701  0.00  0.00    +0.000 A 
ATOM      5  C   UNL     1       2.191   8.210  18.797  0.00  0.00    +0.000 A 
ATOM      6  C   UNL     1       2.124   7.227  19.783  0.00  0.00    +0.000 A 
ATOM      7  C   UNL     1       2.957   6.113  19.690  0.00  0.00    +0.000 A 
ATOM      8  C   UNL     1       3.804   5.952  18.596  0.00  0.00    +0.000 A 
BRANCH   3   9
ATOM      9  C   UNL     1       4.761   6.719  16.388  0.00  0.00    +0.000 C 
BRANCH   9  10
ATOM     10  C   UNL     1       5.964   5.793  16.623  0.00  0.00    +0.000 C 
BRANCH  10  11
ATOM     11  C   UNL     1       5.913   4.607  15.654  0.00  0.00    +0.000 C 
ATOM     12  O   UNL     1       5.336   4.615  14.576  0.00  0.00    +0.000 OA
BRANCH  11  13
ATOM     13  O   UNL     1       6.571   3.524  16.134  0.00  0.00    +0.000 OA
ATOM     14  H   UNL     1       7.063   3.115  15.382  0.00  0.00    +0.000 HD
ENDBRANCH  11  13
ENDBRANCH  10  11
BRANCH  10  15
ATOM     15  O   UNL     1       7.244   6.447  16.497  0.00  0.00    +0.000 OA
BRANCH  15  17
ATOM     16  C   UNL     1       7.733   6.076  18.816  0.00  0.00    +0.000 C 
ATOM     17  C   UNL     1       7.664   7.099  17.699  0.00  0.00    +0.000 C 
ENDBRANCH  15  17
ENDBRANCH  10  15
ENDBRANCH   9  10
ENDBRANCH   3   9
ENDBRANCH   2   6
ENDBRANCH   1   2
BRANCH   1  18
ATOM     18  C   UNL     1       0.181   9.645  20.937  0.00  0.00    +0.000 C 
BRANCH  18  19
ATOM     19  N   UNL     1       0.629  10.969  20.446  0.00  0.00    +0.000 NA
ATOM     20  C   UNL     1       0.018  11.249  19.133  0.00  0.00    +0.000 C 
ATOM     21  C   UNL     1       0.124  12.681  18.684  0.00  0.00    +0.000 C 
ATOM     22  C   UNL     1       0.521  13.673  19.497  0.00  0.00    +0.000 C 
ATOM     23  C   UNL     1       0.895  13.399  20.924  0.00  0.00    +0.000 C 
ATOM     24  C   UNL     1       0.342  12.051  21.403  0.00  0.00    +0.000 C 
BRANCH  22  25
ATOM     25  C   UNL     1       0.545  15.067  19.047  0.00  0.00    +0.000 A 
ATOM     26  C   UNL     1      -0.663  15.779  19.098  0.00  0.00    +0.000 A 
ATOM     27  C   UNL     1      -0.735  17.104  18.675  0.00  0.00    +0.000 A 
ATOM     28  C   UNL     1       0.406  17.743  18.203  0.00  0.00    +0.000 A 
ATOM     29  C   UNL     1       1.615  17.049  18.152  0.00  0.00    +0.000 A 
ATOM     30  C   UNL     1       1.707  15.702  18.572  0.00  0.00    +0.000 A 
BRANCH  30  31
ATOM     31  C   UNL     1       3.056  15.038  18.464  0.00  0.00    +0.000 C 
ATOM     32  F   UNL     1       3.663  14.697  19.635  0.00  0.00    +0.000 F 
ATOM     33  F   UNL     1       2.993  13.874  17.748  0.00  0.00    +0.000 F 
ATOM     34  F   UNL     1       3.960  15.817  17.803  0.00  0.00    +0.000 F 
ENDBRANCH  30  31
ENDBRANCH  22  25
ENDBRANCH  18  19
ENDBRANCH   1  18
TORSDOF 12
ENDMDL
MODEL 8
REMARK VINA RESULT:      -7.0      8.223     11.982
REMARK  Name = 
REMARK  13 active torsions:
REMARK  status: ('A' for Active; 'I' for Inactive)
REMARK    1  A    between atoms: C_1  and  C_2
REMARK    2  A    between atoms: C_2  and  O_3
REMARK    3  A    between atoms: O_3  and  C_4
REMARK    4  A    between atoms: C_4  and  C_5
REMARK    5  A    between atoms: C_4  and  C_31
REMARK    6  A    between atoms: C_5  and  C_6
REMARK    7  A    between atoms: C_9  and  O_10
REMARK    8  A    between atoms: O_10  and  C_11
REMARK    9  A    between atoms: C_11  and  C_12
REMARK   10  A    between atoms: C_12  and  N_13
REMARK   11  A    between atoms: C_16  and  C_17
REMARK   12  A    between atoms: C_22  and  C_23
REMARK   13  A    between atoms: C_31  and  O_33
REMARK                            x       y       z     vdW  Elec       q    Type
REMARK                         _______ _______ _______ _____ _____    ______ ____
ROOT
ATOM      1  C   UNL     1       0.839  11.033  20.381  0.00  0.00    +0.000 C 
ENDROOT
BRANCH   1   2
ATOM      2  O   UNL     1       0.704  11.844  21.555  0.00  0.00    +0.000 OA
BRANCH   2   6
ATOM      3  C   UNL     1      -3.291  12.769  22.421  0.00  0.00    +0.000 A 
ATOM      4  C   UNL     1      -2.654  13.256  21.271  0.00  0.00    +0.000 A 
ATOM      5  C   UNL     1      -1.322  12.919  20.998  0.00  0.00    +0.000 A 
ATOM      6  C   UNL     1      -0.610  12.100  21.872  0.00  0.00    +0.000 A 
ATOM      7  C   UNL     1      -1.254  11.580  22.994  0.00  0.00    +0.000 A 
ATOM      8  C   UNL     1      -2.576  11.921  23.272  0.00  0.00    +0.000 A 
BRANCH   3   9
ATOM      9  C   UNL     1      -4.717  13.152  22.745  0.00  0.00    +0.000 C 
BRANCH   9  10
ATOM     10  C   UNL     1      -5.614  13.421  21.528  0.00  0.00    +0.000 C 
BRANCH  10  11
ATOM     11  C   UNL     1      -6.224  12.108  21.023  0.00  0.00    +0.000 C 
ATOM     12  O   UNL     1      -6.993  11.407  21.666  0.00  0.00    +0.000 OA
BRANCH  11  13
ATOM     13  O   UNL     1      -5.798  11.790  19.777  0.00  0.00    +0.000 OA
ATOM     14  H   UNL     1      -5.651  10.814  19.750  0.00  0.00    +0.000 HD
ENDBRANCH  11  13
ENDBRANCH  10  11
BRANCH  10  15
ATOM     15  O   UNL     1      -6.676  14.366  21.775  0.00  0.00    +0.000 OA
BRANCH  15  17
ATOM     16  C   UNL     1      -5.589  15.669  20.081  0.00  0.00    +0.000 C 
ATOM     17  C   UNL     1      -6.919  15.242  20.671  0.00  0.00    +0.000 C 
ENDBRANCH  15  17
ENDBRANCH  10  15
ENDBRANCH   9  10
ENDBRANCH   3   9
ENDBRANCH   2   6
ENDBRANCH   1   2
BRANCH   1  18
ATOM     18  C   UNL     1       0.122   9.686  20.546  0.00  0.00    +0.000 C 
BRANCH  18  19
ATOM     19  N   UNL     1       0.766   8.590  19.786  0.00  0.00    +0.000 NA
ATOM     20  C   UNL     1       1.307   9.111  18.517  0.00  0.00    +0.000 C 
ATOM     21  C   UNL     1       2.264   8.186  17.815  0.00  0.00    +0.000 C 
ATOM     22  C   UNL     1       2.775   7.087  18.396  0.00  0.00    +0.000 C 
ATOM     23  C   UNL     1       2.405   6.713  19.800  0.00  0.00    +0.000 C 
ATOM     24  C   UNL     1       1.812   7.905  20.564  0.00  0.00    +0.000 C 
BRANCH  22  25
ATOM     25  C   UNL     1       3.759   6.247  17.709  0.00  0.00    +0.000 A 
ATOM     26  C   UNL     1       4.977   6.846  17.353  0.00  0.00    +0.000 A 
ATOM     27  C   UNL     1       5.964   6.126  16.683  0.00  0.00    +0.000 A 
ATOM     28  C   UNL     1       5.750   4.789  16.367  0.00  0.00    +0.000 A 
ATOM     29  C   UNL     1       4.546   4.180  16.719  0.00  0.00    +0.000 A 
ATOM     30  C   UNL     1       3.531   4.895  17.394  0.00  0.00    +0.000 A 
BRANCH  30  31
ATOM     31  C   UNL     1       2.261   4.149  17.718  0.00  0.00    +0.000 C 
ATOM     32  F   UNL     1       2.031   3.879  19.033  0.00  0.00    +0.000 F 
ATOM     33  F   UNL     1       1.151   4.831  17.298  0.00  0.00    +0.000 F 
ATOM     34  F   UNL     1       2.200   2.942  17.086  0.00  0.00    +0.000 F 
ENDBRANCH  30  31
ENDBRANCH  22  25
ENDBRANCH  18  19
ENDBRANCH   1  18
TORSDOF 12
ENDMDL
MODEL 9
REMARK VINA RESULT:      -7.0      8.043      9.927
REMARK  Name = 
REMARK  13 active torsions:
REMARK  status: ('A' for Active; 'I' for Inactive)
REMARK    1  A    between atoms: C_1  and  C_2
REMARK    2  A    between atoms: C_2  and  O_3
REMARK    3  A    between atoms: O_3  and  C_4
REMARK    4  A    between atoms: C_4  and  C_5
REMARK    5  A    between atoms: C_4  and  C_31
REMARK    6  A    between atoms: C_5  and  C_6
REMARK    7  A    between atoms: C_9  and  O_10
REMARK    8  A    between atoms: O_10  and  C_11
REMARK    9  A    between atoms: C_11  and  C_12
REMARK   10  A    between atoms: C_12  and  N_13
REMARK   11  A    between atoms: C_16  and  C_17
REMARK   12  A    between atoms: C_22  and  C_23
REMARK   13  A    between atoms: C_31  and  O_33
REMARK                            x       y       z     vdW  Elec       q    Type
REMARK                         _______ _______ _______ _____ _____    ______ ____
ROOT
ATOM      1  C   UNL     1       0.158  10.110  18.116  0.00  0.00    +0.000 C 
ENDROOT
BRANCH   1   2
ATOM      2  O   UNL     1       1.326  10.035  18.944  0.00  0.00    +0.000 OA
BRANCH   2   6
ATOM      3  C   UNL     1       2.973   6.191  19.226  0.00  0.00    +0.000 A 
ATOM      4  C   UNL     1       2.220   6.748  20.268  0.00  0.00    +0.000 A 
ATOM      5  C   UNL     1       1.668   8.029  20.143  0.00  0.00    +0.000 A 
ATOM      6  C   UNL     1       1.868   8.771  18.979  0.00  0.00    +0.000 A 
ATOM      7  C   UNL     1       2.581   8.202  17.925  0.00  0.00    +0.000 A 
ATOM      8  C   UNL     1       3.138   6.931  18.052  0.00  0.00    +0.000 A 
BRANCH   3   9
ATOM      9  C   UNL     1       3.603   4.823  19.363  0.00  0.00    +0.000 C 
BRANCH   9  10
ATOM     10  C   UNL     1       3.129   3.780  18.340  0.00  0.00    +0.000 C 
BRANCH  10  11
ATOM     11  C   UNL     1       1.599   3.677  18.365  0.00  0.00    +0.000 C 
ATOM     12  O   UNL     1       0.949   3.230  19.300  0.00  0.00    +0.000 OA
BRANCH  11  13
ATOM     13  O   UNL     1       1.036   4.121  17.216  0.00  0.00    +0.000 OA
ATOM     14  H   UNL     1       0.463   4.893  17.443  0.00  0.00    +0.000 HD
ENDBRANCH  11  13
ENDBRANCH  10  11
BRANCH  10  15
ATOM     15  O   UNL     1       3.558   4.042  16.988  0.00  0.00    +0.000 OA
BRANCH  15  17
ATOM     16  C   UNL     1       5.335   4.307  15.399  0.00  0.00    +0.000 C 
ATOM     17  C   UNL     1       4.961   3.844  16.794  0.00  0.00    +0.000 C 
ENDBRANCH  15  17
ENDBRANCH  10  15
ENDBRANCH   9  10
ENDBRANCH   3   9
ENDBRANCH   2   6
ENDBRANCH   1   2
BRANCH   1  18
ATOM     18  C   UNL     1      -1.112  10.301  18.957  0.00  0.00    +0.000 C 
BRANCH  18  19
ATOM     19  N   UNL     1      -0.992  11.396  19.947  0.00  0.00    +0.000 NA
ATOM     20  C   UNL     1      -2.165  12.285  19.855  0.00  0.00    +0.000 C 
ATOM     21  C   UNL     1      -2.328  13.232  21.013  0.00  0.00    +0.000 C 
ATOM     22  C   UNL     1      -1.618  13.126  22.148  0.00  0.00    +0.000 C 
ATOM     23  C   UNL     1      -0.599  12.040  22.322  0.00  0.00    +0.000 C 
ATOM     24  C   UNL     1      -0.815  10.897  21.321  0.00  0.00    +0.000 C 
BRANCH  22  25
ATOM     25  C   UNL     1      -1.853  14.022  23.283  0.00  0.00    +0.000 A 
ATOM     26  C   UNL     1      -1.003  15.130  23.412  0.00  0.00    +0.000 A 
ATOM     27  C   UNL     1      -1.145  16.026  24.470  0.00  0.00    +0.000 A 
ATOM     28  C   UNL     1      -2.148  15.831  25.412  0.00  0.00    +0.000 A 
ATOM     29  C   UNL     1      -3.003  14.735  25.293  0.00  0.00    +0.000 A 
ATOM     30  C   UNL     1      -2.872  13.813  24.229  0.00  0.00    +0.000 A 
BRANCH  30  31
ATOM     31  C   UNL     1      -3.838  12.656  24.198  0.00  0.00    +0.000 C 
ATOM     32  F   UNL     1      -4.573  12.444  25.326  0.00  0.00    +0.000 F 
ATOM     33  F   UNL     1      -4.761  12.792  23.197  0.00  0.00    +0.000 F 
ATOM     34  F   UNL     1      -3.211  11.470  23.949  0.00  0.00    +0.000 F 
ENDBRANCH  30  31
ENDBRANCH  22  25
ENDBRANCH  18  19
ENDBRANCH   1  18
TORSDOF 12
ENDMDL
