MODEL 1
REMARK VINA RESULT:      -9.0      0.000      0.000
REMARK  Name = 
REMARK  4 active torsions:
REMARK  status: ('A' for Active; 'I' for Inactive)
REMARK    1  A    between atoms: S_2  and  N_4
REMARK    2  A    between atoms: S_2  and  C_10
REMARK    3  A    between atoms: C_14  and  C_15
REMARK    4  A    between atoms: C_18  and  C_19
REMARK                            x       y       z     vdW  Elec       q    Type
REMARK                         _______ _______ _______ _____ _____    ______ ____
ROOT
ATOM      1  C   UNL     1       0.747  10.994  18.862  0.00  0.00    +0.000 A 
ATOM      2  C   UNL     1       1.519  10.556  17.796  0.00  0.00    +0.000 A 
ATOM      3  C   UNL     1       2.114   9.299  17.866  0.00  0.00    +0.000 A 
ATOM      4  C   UNL     1       1.910   8.410  18.960  0.00  0.00    +0.000 A 
ATOM      5  C   UNL     1       2.435   7.086  19.079  0.00  0.00    +0.000 A 
ATOM      6  N   UNL     1       2.196   6.309  20.167  0.00  0.00    +0.000 NA
ATOM      7  C   UNL     1       1.485   6.836  21.186  0.00  0.00    +0.000 A 
ATOM      8  C   UNL     1       0.931   8.099  21.165  0.00  0.00    +0.000 A 
ATOM      9  C   UNL     1       1.120   8.896  20.036  0.00  0.00    +0.000 A 
ATOM     10  C   UNL     1       0.547  10.177  19.979  0.00  0.00    +0.000 A 
ENDROOT
BRANCH   5  11
ATOM     11  C   UNL     1       3.312   6.454  18.053  0.00  0.00    +0.000 A 
ATOM     12  C   UNL     1       4.497   7.105  17.643  0.00  0.00    +0.000 A 
ATOM     13  C   UNL     1       5.482   6.458  16.893  0.00  0.00    +0.000 A 
ATOM     14  C   UNL     1       5.278   5.157  16.435  0.00  0.00    +0.000 A 
ATOM     15  C   UNL     1       4.039   4.553  16.684  0.00  0.00    +0.000 A 
ATOM     16  C   UNL     1       3.075   5.181  17.489  0.00  0.00    +0.000 A 
ATOM     17 CL   UNL     1       1.634   4.259  17.776  0.00  0.00    +0.000 Cl
BRANCH  14  18
ATOM     18  C   UNL     1       6.356   4.404  15.697  0.00  0.00    +0.000 C 
ATOM     19  F   UNL     1       6.080   3.080  15.535  0.00  0.00    +0.000 F 
ATOM     20  F   UNL     1       6.557   4.894  14.441  0.00  0.00    +0.000 F 
ATOM     21  F   UNL     1       7.560   4.465  16.320  0.00  0.00    +0.000 F 
ENDBRANCH  14  18
ENDBRANCH   5  11
BRANCH   1  23
ATOM     22  O   UNL     1       1.049  13.580  18.678  0.00  0.00    +0.000 OA
ATOM     23  S   UNL     1       0.002  12.598  18.814  0.00  0.00    +0.000 S 
ATOM     24  O   UNL     1      -0.949  12.678  19.908  0.00  0.00    +0.000 OA
BRANCH  23  25
ATOM     25  N   UNL     1      -0.963  12.497  17.430  0.00  0.00    +0.000 N 
ATOM     26  C   UNL     1      -2.024  11.590  17.620  0.00  0.00    +0.000 A 
ATOM     27  N   UNL     1      -3.137  11.942  18.215  0.00  0.00    +0.000 NA
ATOM     28  C   UNL     1      -3.984  10.844  18.176  0.00  0.00    +0.000 A 
ATOM     29  N   UNL     1      -3.600   9.707  17.593  0.00  0.00    +0.000 NA
ATOM     30  S   UNL     1      -2.054   9.990  17.016  0.00  0.00    +0.000 S 
ATOM     31  H   UNL     1      -0.338  12.225  16.671  0.00  0.00    +0.000 HD
ENDBRANCH  23  25
ENDBRANCH   1  23
TORSDOF 4
ENDMDL
MODEL 2
REMARK VINA RESULT:      -8.8      1.892      3.123
REMARK  Name = 
REMARK  4 active torsions:
REMARK  status: ('A' for Active; 'I' for Inactive)
REMARK    1  A    between atoms: S_2  and  N_4
REMARK    2  A    between atoms: S_2  and  C_10
REMARK    3  A    between atoms: C_14  and  C_15
REMARK    4  A    between atoms: C_18  and  C_19
REMARK                            x       y       z     vdW  Elec       q    Type
REMARK                         _______ _______ _______ _____ _____    ______ ____
ROOT
ATOM      1  C   UNL     1       0.690  10.530  18.948  0.00  0.00    +0.000 A 
ATOM      2  C   UNL     1       1.440  10.177  17.837  0.00  0.00    +0.000 A 
ATOM      3  C   UNL     1       2.115   8.959  17.837  0.00  0.00    +0.000 A 
ATOM      4  C   UNL     1       2.017   8.025  18.908  0.00  0.00    +0.000 A 
ATOM      5  C   UNL     1       2.630   6.735  18.959  0.00  0.00    +0.000 A 
ATOM      6  N   UNL     1       2.488   5.910  20.028  0.00  0.00    +0.000 NA
ATOM      7  C   UNL     1       1.791   6.357  21.093  0.00  0.00    +0.000 A 
ATOM      8  C   UNL     1       1.159   7.582  21.139  0.00  0.00    +0.000 A 
ATOM      9  C   UNL     1       1.247   8.424  20.032  0.00  0.00    +0.000 A 
ATOM     10  C   UNL     1       0.591   9.667  20.044  0.00  0.00    +0.000 A 
ENDROOT
BRANCH   5  11
ATOM     11  C   UNL     1       3.498   6.194  17.875  0.00  0.00    +0.000 A 
ATOM     12  C   UNL     1       4.580   6.962  17.391  0.00  0.00    +0.000 A 
ATOM     13  C   UNL     1       5.576   6.418  16.576  0.00  0.00    +0.000 A 
ATOM     14  C   UNL     1       5.478   5.101  16.127  0.00  0.00    +0.000 A 
ATOM     15  C   UNL     1       4.327   4.374  16.454  0.00  0.00    +0.000 A 
ATOM     16  C   UNL     1       3.357   4.901  17.323  0.00  0.00    +0.000 A 
ATOM     17 CL   UNL     1       2.041   3.836  17.700  0.00  0.00    +0.000 Cl
BRANCH  14  18
ATOM     18  C   UNL     1       6.577   4.462  15.317  0.00  0.00    +0.000 C 
ATOM     19  F   UNL     1       6.973   5.210  14.251  0.00  0.00    +0.000 F 
ATOM     20  F   UNL     1       7.703   4.249  16.057  0.00  0.00    +0.000 F 
ATOM     21  F   UNL     1       6.223   3.249  14.817  0.00  0.00    +0.000 F 
ENDBRANCH  14  18
ENDBRANCH   5  11
BRANCH   1  23
ATOM     22  O   UNL     1      -0.178  12.553  20.351  0.00  0.00    +0.000 OA
ATOM     23  S   UNL     1      -0.156  12.083  18.988  0.00  0.00    +0.000 S 
ATOM     24  O   UNL     1      -1.390  11.936  18.238  0.00  0.00    +0.000 OA
BRANCH  23  25
ATOM     25  N   UNL     1       0.822  13.042  17.997  0.00  0.00    +0.000 N 
ATOM     26  C   UNL     1       1.669  13.863  18.768  0.00  0.00    +0.000 A 
ATOM     27  N   UNL     1       2.806  13.424  19.248  0.00  0.00    +0.000 NA
ATOM     28  C   UNL     1       3.415  14.491  19.892  0.00  0.00    +0.000 A 
ATOM     29  N   UNL     1       2.832  15.690  19.923  0.00  0.00    +0.000 NA
ATOM     30  S   UNL     1       1.399  15.524  19.073  0.00  0.00    +0.000 S 
ATOM     31  H   UNL     1       0.185  13.575  17.404  0.00  0.00    +0.000 HD
ENDBRANCH  23  25
ENDBRANCH   1  23
TORSDOF 4
ENDMDL
MODEL 3
REMARK VINA RESULT:      -8.8      2.516      3.366
REMARK  Name = 
REMARK  4 active torsions:
REMARK  status: ('A' for Active; 'I' for Inactive)
REMARK    1  A    between atoms: S_2  and  N_4
REMARK    2  A    between atoms: S_2  and  C_10
REMARK    3  A    between atoms: C_14  and  C_15
REMARK    4  A    between atoms: C_18  and  C_19
REMARK                            x       y       z     vdW  Elec       q    Type
REMARK                         _______ _______ _______ _____ _____    ______ ____
ROOT
ATOM      1  C   UNL     1       1.537   7.618  20.545  0.00  0.00    +0.000 A 
ATOM      2  C   UNL     1       2.332   7.752  19.417  0.00  0.00    +0.000 A 
ATOM      3  C   UNL     1       3.049   6.648  18.961  0.00  0.00    +0.000 A 
ATOM      4  C   UNL     1       2.950   5.362  19.566  0.00  0.00    +0.000 A 
ATOM      5  C   UNL     1       3.604   4.171  19.124  0.00  0.00    +0.000 A 
ATOM      6  N   UNL     1       3.458   2.985  19.770  0.00  0.00    +0.000 NA
ATOM      7  C   UNL     1       2.714   2.957  20.895  0.00  0.00    +0.000 A 
ATOM      8  C   UNL     1       2.039   4.049  21.399  0.00  0.00    +0.000 A 
ATOM      9  C   UNL     1       2.132   5.265  20.723  0.00  0.00    +0.000 A 
ATOM     10  C   UNL     1       1.435   6.387  21.201  0.00  0.00    +0.000 A 
ENDROOT
BRANCH   5  11
ATOM     11  C   UNL     1       4.523   4.124  17.952  0.00  0.00    +0.000 A 
ATOM     12  C   UNL     1       4.080   3.561  16.734  0.00  0.00    +0.000 A 
ATOM     13  C   UNL     1       4.787   3.720  15.539  0.00  0.00    +0.000 A 
ATOM     14  C   UNL     1       6.022   4.367  15.531  0.00  0.00    +0.000 A 
ATOM     15  C   UNL     1       6.561   4.782  16.756  0.00  0.00    +0.000 A 
ATOM     16  C   UNL     1       5.822   4.676  17.946  0.00  0.00    +0.000 A 
ATOM     17 CL   UNL     1       6.596   5.322  19.358  0.00  0.00    +0.000 Cl
BRANCH  14  18
ATOM     18  C   UNL     1       6.767   4.628  14.246  0.00  0.00    +0.000 C 
ATOM     19  F   UNL     1       6.822   3.547  13.421  0.00  0.00    +0.000 F 
ATOM     20  F   UNL     1       6.191   5.623  13.513  0.00  0.00    +0.000 F 
ATOM     21  F   UNL     1       8.053   5.011  14.453  0.00  0.00    +0.000 F 
ENDBRANCH  14  18
ENDBRANCH   5  11
BRANCH   1  23
ATOM     22  O   UNL     1       1.300   9.484  22.354  0.00  0.00    +0.000 OA
ATOM     23  S   UNL     1       0.638   9.010  21.164  0.00  0.00    +0.000 S 
ATOM     24  O   UNL     1      -0.768   8.652  21.194  0.00  0.00    +0.000 OA
BRANCH  23  25
ATOM     25  N   UNL     1       0.761  10.106  19.884  0.00  0.00    +0.000 N 
ATOM     26  C   UNL     1      -0.454  10.790  19.687  0.00  0.00    +0.000 A 
ATOM     27  N   UNL     1      -0.775  11.846  20.393  0.00  0.00    +0.000 NA
ATOM     28  C   UNL     1      -1.989  12.309  19.904  0.00  0.00    +0.000 A 
ATOM     29  N   UNL     1      -2.594  11.692  18.888  0.00  0.00    +0.000 NA
ATOM     30  S   UNL     1      -1.589  10.423  18.461  0.00  0.00    +0.000 S 
ATOM     31  H   UNL     1       1.046   9.559  19.071  0.00  0.00    +0.000 HD
ENDBRANCH  23  25
ENDBRANCH   1  23
TORSDOF 4
ENDMDL
MODEL 4
REMARK VINA RESULT:      -8.8      2.142      2.620
REMARK  Name = 
REMARK  4 active torsions:
REMARK  status: ('A' for Active; 'I' for Inactive)
REMARK    1  A    between atoms: S_2  and  N_4
REMARK    2  A    between atoms: S_2  and  C_10
REMARK    3  A    between atoms: C_14  and  C_15
REMARK    4  A    between atoms: C_18  and  C_19
REMARK                            x       y       z     vdW  Elec       q    Type
REMARK                         _______ _______ _______ _____ _____    ______ ____
ROOT
ATOM      1  C   UNL     1       0.976  10.353  19.202  0.00  0.00    +0.000 A 
ATOM      2  C   UNL     1       1.707  10.059  18.061  0.00  0.00    +0.000 A 
ATOM      3  C   UNL     1       2.317   8.812  17.953  0.00  0.00    +0.000 A 
ATOM      4  C   UNL     1       2.169   7.794  18.939  0.00  0.00    +0.000 A 
ATOM      5  C   UNL     1       2.712   6.474  18.876  0.00  0.00    +0.000 A 
ATOM      6  N   UNL     1       2.526   5.568  19.870  0.00  0.00    +0.000 NA
ATOM      7  C   UNL     1       1.854   5.958  20.973  0.00  0.00    +0.000 A 
ATOM      8  C   UNL     1       1.288   7.206  21.128  0.00  0.00    +0.000 A 
ATOM      9  C   UNL     1       1.421   8.135  20.098  0.00  0.00    +0.000 A 
ATOM     10  C   UNL     1       0.832   9.405  20.220  0.00  0.00    +0.000 A 
ENDROOT
BRANCH   5  11
ATOM     11  C   UNL     1       3.550   5.983  17.746  0.00  0.00    +0.000 A 
ATOM     12  C   UNL     1       4.529   6.829  17.177  0.00  0.00    +0.000 A 
ATOM     13  C   UNL     1       5.512   6.353  16.306  0.00  0.00    +0.000 A 
ATOM     14  C   UNL     1       5.497   5.022  15.887  0.00  0.00    +0.000 A 
ATOM     15  C   UNL     1       4.436   4.208  16.303  0.00  0.00    +0.000 A 
ATOM     16  C   UNL     1       3.485   4.672  17.226  0.00  0.00    +0.000 A 
ATOM     17 CL   UNL     1       2.292   3.508  17.709  0.00  0.00    +0.000 Cl
BRANCH  14  18
ATOM     18  C   UNL     1       6.591   4.459  15.016  0.00  0.00    +0.000 C 
ATOM     19  F   UNL     1       6.256   3.286  14.413  0.00  0.00    +0.000 F 
ATOM     20  F   UNL     1       6.933   5.309  14.006  0.00  0.00    +0.000 F 
ATOM     21  F   UNL     1       7.737   4.216  15.704  0.00  0.00    +0.000 F 
ENDBRANCH  14  18
ENDBRANCH   5  11
BRANCH   1  23
ATOM     22  O   UNL     1      -1.214  11.772  19.268  0.00  0.00    +0.000 OA
ATOM     23  S   UNL     1       0.214  11.940  19.380  0.00  0.00    +0.000 S 
ATOM     24  O   UNL     1       0.918  12.870  18.516  0.00  0.00    +0.000 OA
BRANCH  23  25
ATOM     25  N   UNL     1       0.685  12.384  20.941  0.00  0.00    +0.000 N 
ATOM     26  C   UNL     1      -0.431  12.481  21.796  0.00  0.00    +0.000 A 
ATOM     27  N   UNL     1      -0.943  11.430  22.386  0.00  0.00    +0.000 NA
ATOM     28  C   UNL     1      -1.974  11.880  23.198  0.00  0.00    +0.000 A 
ATOM     29  N   UNL     1      -2.267  13.179  23.269  0.00  0.00    +0.000 NA
ATOM     30  S   UNL     1      -1.175  13.950  22.260  0.00  0.00    +0.000 S 
ATOM     31  H   UNL     1       1.189  13.266  20.843  0.00  0.00    +0.000 HD
ENDBRANCH  23  25
ENDBRANCH   1  23
TORSDOF 4
ENDMDL
MODEL 5
REMARK VINA RESULT:      -8.7      2.616      3.677
REMARK  Name = 
REMARK  4 active torsions:
REMARK  status: ('A' for Active; 'I' for Inactive)
REMARK    1  A    between atoms: S_2  and  N_4
REMARK    2  A    between atoms: S_2  and  C_10
REMARK    3  A    between atoms: C_14  and  C_15
REMARK    4  A    between atoms: C_18  and  C_19
REMARK                            x       y       z     vdW  Elec       q    Type
REMARK                         _______ _______ _______ _____ _____    ______ ____
ROOT
ATOM      1  C   UNL     1       1.427   7.661  20.508  0.00  0.00    +0.000 A 
ATOM      2  C   UNL     1       2.230   7.793  19.385  0.00  0.00    +0.000 A 
ATOM      3  C   UNL     1       2.970   6.696  18.952  0.00  0.00    +0.000 A 
ATOM      4  C   UNL     1       2.889   5.418  19.575  0.00  0.00    +0.000 A 
ATOM      5  C   UNL     1       3.568   4.232  19.157  0.00  0.00    +0.000 A 
ATOM      6  N   UNL     1       3.438   3.054  19.819  0.00  0.00    +0.000 NA
ATOM      7  C   UNL     1       2.684   3.028  20.938  0.00  0.00    +0.000 A 
ATOM      8  C   UNL     1       1.985   4.115  21.419  0.00  0.00    +0.000 A 
ATOM      9  C   UNL     1       2.063   5.323  20.726  0.00  0.00    +0.000 A 
ATOM     10  C   UNL     1       1.341   6.439  21.182  0.00  0.00    +0.000 A 
ENDROOT
BRANCH   5  11
ATOM     11  C   UNL     1       4.498   4.184  17.993  0.00  0.00    +0.000 A 
ATOM     12  C   UNL     1       4.067   3.623  16.771  0.00  0.00    +0.000 A 
ATOM     13  C   UNL     1       4.785   3.781  15.582  0.00  0.00    +0.000 A 
ATOM     14  C   UNL     1       6.021   4.427  15.587  0.00  0.00    +0.000 A 
ATOM     15  C   UNL     1       6.548   4.841  16.817  0.00  0.00    +0.000 A 
ATOM     16  C   UNL     1       5.798   4.736  18.000  0.00  0.00    +0.000 A 
ATOM     17 CL   UNL     1       6.559   5.380  19.419  0.00  0.00    +0.000 Cl
BRANCH  14  18
ATOM     18  C   UNL     1       6.778   4.688  14.309  0.00  0.00    +0.000 C 
ATOM     19  F   UNL     1       6.829   3.610  13.479  0.00  0.00    +0.000 F 
ATOM     20  F   UNL     1       6.218   5.692  13.576  0.00  0.00    +0.000 F 
ATOM     21  F   UNL     1       8.066   5.057  14.528  0.00  0.00    +0.000 F 
ENDBRANCH  14  18
ENDBRANCH   5  11
BRANCH   1  23
ATOM     22  O   UNL     1       1.405   9.953  21.757  0.00  0.00    +0.000 OA
ATOM     23  S   UNL     1       0.498   9.046  21.099  0.00  0.00    +0.000 S 
ATOM     24  O   UNL     1      -0.668   8.533  21.794  0.00  0.00    +0.000 OA
BRANCH  23  25
ATOM     25  N   UNL     1      -0.122   9.691  19.665  0.00  0.00    +0.000 N 
ATOM     26  C   UNL     1       0.313  11.018  19.479  0.00  0.00    +0.000 A 
ATOM     27  N   UNL     1       1.479  11.295  18.950  0.00  0.00    +0.000 NA
ATOM     28  C   UNL     1       1.564  12.676  18.850  0.00  0.00    +0.000 A 
ATOM     29  N   UNL     1       0.555  13.451  19.252  0.00  0.00    +0.000 NA
ATOM     30  S   UNL     1      -0.634  12.406  19.798  0.00  0.00    +0.000 S 
ATOM     31  H   UNL     1      -1.137   9.613  19.737  0.00  0.00    +0.000 HD
ENDBRANCH  23  25
ENDBRANCH   1  23
TORSDOF 4
ENDMDL
MODEL 6
REMARK VINA RESULT:      -8.7      3.321      4.713
REMARK  Name = 
REMARK  4 active torsions:
REMARK  status: ('A' for Active; 'I' for Inactive)
REMARK    1  A    between atoms: S_2  and  N_4
REMARK    2  A    between atoms: S_2  and  C_10
REMARK    3  A    between atoms: C_14  and  C_15
REMARK    4  A    between atoms: C_18  and  C_19
REMARK                            x       y       z     vdW  Elec       q    Type
REMARK                         _______ _______ _______ _____ _____    ______ ____
ROOT
ATOM      1  C   UNL     1      -3.385  11.304  18.176  0.00  0.00    +0.000 A 
ATOM      2  C   UNL     1      -2.893  10.036  17.907  0.00  0.00    +0.000 A 
ATOM      3  C   UNL     1      -1.560   9.754  18.194  0.00  0.00    +0.000 A 
ATOM      4  C   UNL     1      -0.690  10.696  18.817  0.00  0.00    +0.000 A 
ATOM      5  C   UNL     1       0.668  10.466  19.196  0.00  0.00    +0.000 A 
ATOM      6  N   UNL     1       1.428  11.429  19.779  0.00  0.00    +0.000 NA
ATOM      7  C   UNL     1       0.889  12.654  19.949  0.00  0.00    +0.000 A 
ATOM      8  C   UNL     1      -0.412  12.974  19.622  0.00  0.00    +0.000 A 
ATOM      9  C   UNL     1      -1.227  11.987  19.070  0.00  0.00    +0.000 A 
ATOM     10  C   UNL     1      -2.563  12.280  18.750  0.00  0.00    +0.000 A 
ENDROOT
BRANCH   5  11
ATOM     11  C   UNL     1       1.381   9.179  18.960  0.00  0.00    +0.000 A 
ATOM     12  C   UNL     1       2.033   8.952  17.727  0.00  0.00    +0.000 A 
ATOM     13  C   UNL     1       2.927   7.895  17.539  0.00  0.00    +0.000 A 
ATOM     14  C   UNL     1       3.132   6.957  18.552  0.00  0.00    +0.000 A 
ATOM     15  C   UNL     1       2.367   7.065  19.720  0.00  0.00    +0.000 A 
ATOM     16  C   UNL     1       1.515   8.162  19.931  0.00  0.00    +0.000 A 
ATOM     17 CL   UNL     1       0.712   8.192  21.468  0.00  0.00    +0.000 Cl
BRANCH  14  18
ATOM     18  C   UNL     1       4.152   5.856  18.410  0.00  0.00    +0.000 C 
ATOM     19  F   UNL     1       4.552   5.330  19.600  0.00  0.00    +0.000 F 
ATOM     20  F   UNL     1       3.676   4.806  17.683  0.00  0.00    +0.000 F 
ATOM     21  F   UNL     1       5.283   6.266  17.780  0.00  0.00    +0.000 F 
ENDBRANCH  14  18
ENDBRANCH   5  11
BRANCH   1  23
ATOM     22  O   UNL     1      -5.908  10.649  18.313  0.00  0.00    +0.000 OA
ATOM     23  S   UNL     1      -5.066  11.700  17.795  0.00  0.00    +0.000 S 
ATOM     24  O   UNL     1      -5.128  12.072  16.394  0.00  0.00    +0.000 OA
BRANCH  23  25
ATOM     25  N   UNL     1      -5.282  13.157  18.623  0.00  0.00    +0.000 N 
ATOM     26  C   UNL     1      -6.077  12.972  19.771  0.00  0.00    +0.000 A 
ATOM     27  N   UNL     1      -5.570  12.551  20.903  0.00  0.00    +0.000 NA
ATOM     28  C   UNL     1      -6.600  12.545  21.833  0.00  0.00    +0.000 A 
ATOM     29  N   UNL     1      -7.829  12.934  21.491  0.00  0.00    +0.000 NA
ATOM     30  S   UNL     1      -7.738  13.371  19.877  0.00  0.00    +0.000 S 
ATOM     31  H   UNL     1      -5.697  13.804  17.952  0.00  0.00    +0.000 HD
ENDBRANCH  23  25
ENDBRANCH   1  23
TORSDOF 4
ENDMDL
MODEL 7
REMARK VINA RESULT:      -8.5      2.034      2.477
REMARK  Name = 
REMARK  4 active torsions:
REMARK  status: ('A' for Active; 'I' for Inactive)
REMARK    1  A    between atoms: S_2  and  N_4
REMARK    2  A    between atoms: S_2  and  C_10
REMARK    3  A    between atoms: C_14  and  C_15
REMARK    4  A    between atoms: C_18  and  C_19
REMARK                            x       y       z     vdW  Elec       q    Type
REMARK                         _______ _______ _______ _____ _____    ______ ____
ROOT
ATOM      1  C   UNL     1       0.939  10.341  19.289  0.00  0.00    +0.000 A 
ATOM      2  C   UNL     1       1.665  10.068  18.139  0.00  0.00    +0.000 A 
ATOM      3  C   UNL     1       2.293   8.831  18.016  0.00  0.00    +0.000 A 
ATOM      4  C   UNL     1       2.170   7.803  18.995  0.00  0.00    +0.000 A 
ATOM      5  C   UNL     1       2.733   6.492  18.915  0.00  0.00    +0.000 A 
ATOM      6  N   UNL     1       2.570   5.575  19.903  0.00  0.00    +0.000 NA
ATOM      7  C   UNL     1       1.901   5.945  21.015  0.00  0.00    +0.000 A 
ATOM      8  C   UNL     1       1.316   7.182  21.185  0.00  0.00    +0.000 A 
ATOM      9  C   UNL     1       1.426   8.122  20.162  0.00  0.00    +0.000 A 
ATOM     10  C   UNL     1       0.819   9.381  20.300  0.00  0.00    +0.000 A 
ENDROOT
BRANCH   5  11
ATOM     11  C   UNL     1       3.569   6.024  17.774  0.00  0.00    +0.000 A 
ATOM     12  C   UNL     1       4.608   6.846  17.280  0.00  0.00    +0.000 A 
ATOM     13  C   UNL     1       5.583   6.368  16.401  0.00  0.00    +0.000 A 
ATOM     14  C   UNL     1       5.503   5.069  15.899  0.00  0.00    +0.000 A 
ATOM     15  C   UNL     1       4.388   4.293  16.241  0.00  0.00    +0.000 A 
ATOM     16  C   UNL     1       3.442   4.753  17.172  0.00  0.00    +0.000 A 
ATOM     17 CL   UNL     1       2.174   3.633  17.555  0.00  0.00    +0.000 Cl
BRANCH  14  18
ATOM     18  C   UNL     1       6.585   4.498  15.017  0.00  0.00    +0.000 C 
ATOM     19  F   UNL     1       6.881   5.281  13.944  0.00  0.00    +0.000 F 
ATOM     20  F   UNL     1       7.760   4.331  15.688  0.00  0.00    +0.000 F 
ATOM     21  F   UNL     1       6.264   3.277  14.516  0.00  0.00    +0.000 F 
ENDBRANCH  14  18
ENDBRANCH   5  11
BRANCH   1  23
ATOM     22  O   UNL     1       0.025  12.523  18.185  0.00  0.00    +0.000 OA
ATOM     23  S   UNL     1       0.154  11.914  19.487  0.00  0.00    +0.000 S 
ATOM     24  O   UNL     1       0.826  12.613  20.566  0.00  0.00    +0.000 OA
BRANCH  23  25
ATOM     25  N   UNL     1      -1.344  11.480  20.140  0.00  0.00    +0.000 N 
ATOM     26  C   UNL     1      -1.678  12.308  21.229  0.00  0.00    +0.000 A 
ATOM     27  N   UNL     1      -2.235  13.481  21.060  0.00  0.00    +0.000 NA
ATOM     28  C   UNL     1      -2.490  13.997  22.323  0.00  0.00    +0.000 A 
ATOM     29  N   UNL     1      -2.178  13.302  23.418  0.00  0.00    +0.000 NA
ATOM     30  S   UNL     1      -1.517  11.863  22.873  0.00  0.00    +0.000 S 
ATOM     31  H   UNL     1      -1.264  10.496  20.398  0.00  0.00    +0.000 HD
ENDBRANCH  23  25
ENDBRANCH   1  23
TORSDOF 4
ENDMDL
MODEL 8
REMARK VINA RESULT:      -8.5      3.082      4.029
REMARK  Name = 
REMARK  4 active torsions:
REMARK  status: ('A' for Active; 'I' for Inactive)
REMARK    1  A    between atoms: S_2  and  N_4
REMARK    2  A    between atoms: S_2  and  C_10
REMARK    3  A    between atoms: C_14  and  C_15
REMARK    4  A    between atoms: C_18  and  C_19
REMARK                            x       y       z     vdW  Elec       q    Type
REMARK                         _______ _______ _______ _____ _____    ______ ____
ROOT
ATOM      1  C   UNL     1       2.057   8.301  18.700  0.00  0.00    +0.000 A 
ATOM      2  C   UNL     1       2.845   8.368  17.561  0.00  0.00    +0.000 A 
ATOM      3  C   UNL     1       3.700   7.309  17.268  0.00  0.00    +0.000 A 
ATOM      4  C   UNL     1       3.754   6.123  18.055  0.00  0.00    +0.000 A 
ATOM      5  C   UNL     1       4.558   4.971  17.789  0.00  0.00    +0.000 A 
ATOM      6  N   UNL     1       4.553   3.884  18.602  0.00  0.00    +0.000 NA
ATOM      7  C   UNL     1       3.803   3.926  19.723  0.00  0.00    +0.000 A 
ATOM      8  C   UNL     1       2.990   4.987  20.065  0.00  0.00    +0.000 A 
ATOM      9  C   UNL     1       2.940   6.093  19.218  0.00  0.00    +0.000 A 
ATOM     10  C   UNL     1       2.101   7.176  19.530  0.00  0.00    +0.000 A 
ENDROOT
BRANCH   5  11
ATOM     11  C   UNL     1       5.492   4.870  16.632  0.00  0.00    +0.000 A 
ATOM     12  C   UNL     1       5.111   4.140  15.483  0.00  0.00    +0.000 A 
ATOM     13  C   UNL     1       5.817   4.223  14.280  0.00  0.00    +0.000 A 
ATOM     14  C   UNL     1       6.995   4.965  14.203  0.00  0.00    +0.000 A 
ATOM     15  C   UNL     1       7.483   5.557  15.375  0.00  0.00    +0.000 A 
ATOM     16  C   UNL     1       6.741   5.525  16.567  0.00  0.00    +0.000 A 
ATOM     17 CL   UNL     1       7.443   6.386  17.900  0.00  0.00    +0.000 Cl
BRANCH  14  18
ATOM     18  C   UNL     1       7.730   5.142  12.899  0.00  0.00    +0.000 C 
ATOM     19  F   UNL     1       9.085   5.126  13.033  0.00  0.00    +0.000 F 
ATOM     20  F   UNL     1       7.436   4.154  12.006  0.00  0.00    +0.000 F 
ATOM     21  F   UNL     1       7.426   6.311  12.278  0.00  0.00    +0.000 F 
ENDBRANCH  14  18
ENDBRANCH   5  11
BRANCH   1  23
ATOM     22  O   UNL     1       0.569   9.488  20.487  0.00  0.00    +0.000 OA
ATOM     23  S   UNL     1       0.982   9.644  19.114  0.00  0.00    +0.000 S 
ATOM     24  O   UNL     1      -0.003   9.766  18.055  0.00  0.00    +0.000 OA
BRANCH  23  25
ATOM     25  N   UNL     1       1.993  10.982  18.899  0.00  0.00    +0.000 N 
ATOM     26  C   UNL     1       1.463  12.121  19.536  0.00  0.00    +0.000 A 
ATOM     27  N   UNL     1       1.646  12.348  20.813  0.00  0.00    +0.000 NA
ATOM     28  C   UNL     1       1.058  13.572  21.099  0.00  0.00    +0.000 A 
ATOM     29  N   UNL     1       0.460  14.280  20.140  0.00  0.00    +0.000 NA
ATOM     30  S   UNL     1       0.634  13.385  18.735  0.00  0.00    +0.000 S 
ATOM     31  H   UNL     1       2.093  11.100  17.891  0.00  0.00    +0.000 HD
ENDBRANCH  23  25
ENDBRANCH   1  23
TORSDOF 4
ENDMDL
MODEL 9
REMARK VINA RESULT:      -8.5      1.200      1.247
REMARK  Name = 
REMARK  4 active torsions:
REMARK  status: ('A' for Active; 'I' for Inactive)
REMARK    1  A    between atoms: S_2  and  N_4
REMARK    2  A    between atoms: S_2  and  C_10
REMARK    3  A    between atoms: C_14  and  C_15
REMARK    4  A    between atoms: C_18  and  C_19
REMARK                            x       y       z     vdW  Elec       q    Type
REMARK                         _______ _______ _______ _____ _____    ______ ____
ROOT
ATOM      1  C   UNL     1       0.851  10.254  19.206  0.00  0.00    +0.000 A 
ATOM      2  C   UNL     1       1.577   9.988  18.055  0.00  0.00    +0.000 A 
ATOM      3  C   UNL     1       2.254   8.775  17.949  0.00  0.00    +0.000 A 
ATOM      4  C   UNL     1       2.181   7.763  18.949  0.00  0.00    +0.000 A 
ATOM      5  C   UNL     1       2.797   6.474  18.889  0.00  0.00    +0.000 A 
ATOM      6  N   UNL     1       2.680   5.571  19.897  0.00  0.00    +0.000 NA
ATOM      7  C   UNL     1       2.006   5.935  21.008  0.00  0.00    +0.000 A 
ATOM      8  C   UNL     1       1.373   7.151  21.159  0.00  0.00    +0.000 A 
ATOM      9  C   UNL     1       1.435   8.074  20.117  0.00  0.00    +0.000 A 
ATOM     10  C   UNL     1       0.778   9.310  20.236  0.00  0.00    +0.000 A 
ENDROOT
BRANCH   5  11
ATOM     11  C   UNL     1       3.642   6.019  17.750  0.00  0.00    +0.000 A 
ATOM     12  C   UNL     1       4.671   6.854  17.260  0.00  0.00    +0.000 A 
ATOM     13  C   UNL     1       5.654   6.389  16.382  0.00  0.00    +0.000 A 
ATOM     14  C   UNL     1       5.592   5.090  15.878  0.00  0.00    +0.000 A 
ATOM     15  C   UNL     1       4.486   4.300  16.216  0.00  0.00    +0.000 A 
ATOM     16  C   UNL     1       3.532   4.747  17.145  0.00  0.00    +0.000 A 
ATOM     17 CL   UNL     1       2.277   3.611  17.524  0.00  0.00    +0.000 Cl
BRANCH  14  18
ATOM     18  C   UNL     1       6.682   4.534  14.998  0.00  0.00    +0.000 C 
ATOM     19  F   UNL     1       6.367   3.337  14.433  0.00  0.00    +0.000 F 
ATOM     20  F   UNL     1       6.979   5.366  13.960  0.00  0.00    +0.000 F 
ATOM     21  F   UNL     1       7.848   4.339  15.667  0.00  0.00    +0.000 F 
ENDBRANCH  14  18
ENDBRANCH   5  11
BRANCH   1  23
ATOM     22  O   UNL     1      -0.011  12.454  18.096  0.00  0.00    +0.000 OA
ATOM     23  S   UNL     1       0.003  11.797  19.381  0.00  0.00    +0.000 S 
ATOM     24  O   UNL     1       0.542  12.469  20.548  0.00  0.00    +0.000 OA
BRANCH  23  25
ATOM     25  N   UNL     1      -1.539  11.299  19.861  0.00  0.00    +0.000 N 
ATOM     26  C   UNL     1      -2.339  10.987  18.744  0.00  0.00    +0.000 A 
ATOM     27  N   UNL     1      -2.282   9.816  18.159  0.00  0.00    +0.000 NA
ATOM     28  C   UNL     1      -3.235   9.819  17.150  0.00  0.00    +0.000 A 
ATOM     29  N   UNL     1      -4.001  10.890  16.940  0.00  0.00    +0.000 NA
ATOM     30  S   UNL     1      -3.539  12.015  18.090  0.00  0.00    +0.000 S 
ATOM     31  H   UNL     1      -1.919  12.063  20.421  0.00  0.00    +0.000 HD
ENDBRANCH  23  25
ENDBRANCH   1  23
TORSDOF 4
ENDMDL
