MODEL 1
REMARK VINA RESULT:      -8.8      0.000      0.000
REMARK  Name = 
REMARK  8 active torsions:
REMARK  status: ('A' for Active; 'I' for Inactive)
REMARK    1  A    between atoms: C_1  and  C_2
REMARK    2  A    between atoms: C_2  and  C_3
REMARK    3  A    between atoms: C_3  and  C_4
REMARK    4  A    between atoms: C_14  and  C_15
REMARK    5  A    between atoms: N_17  and  C_18
REMARK    6  A    between atoms: C_21  and  C_22
REMARK    7  A    between atoms: C_22  and  C_23
REMARK    8  A    between atoms: C_27  and  C_28
REMARK                            x       y       z     vdW  Elec       q    Type
REMARK                         _______ _______ _______ _____ _____    ______ ____
ROOT
ATOM      1  C   UNL     1      -2.253  12.969  22.788  0.00  0.00    +0.000 C 
ATOM      2  C   UNL     1      -1.059  13.954  22.768  0.00  0.00    +0.000 C 
ATOM      3  C   UNL     1      -2.746  12.618  21.389  0.00  0.00    +0.000 C 
ATOM      4  C   UNL     1      -1.591  12.032  20.659  0.00  0.00    +0.000 C 
ATOM      5  O   UNL     1      -1.248  12.468  19.571  0.00  0.00    +0.000 OA
ATOM      6  C   UNL     1      -0.889  10.955  21.375  0.00  0.00    +0.000 A 
ATOM      7  C   UNL     1      -1.075  10.880  22.772  0.00  0.00    +0.000 A 
ATOM      8  C   UNL     1      -0.428   9.888  23.511  0.00  0.00    +0.000 A 
ATOM      9  C   UNL     1       0.428   8.964  22.891  0.00  0.00    +0.000 A 
ATOM     10  C   UNL     1       0.609   9.080  21.506  0.00  0.00    +0.000 A 
ATOM     11  O   UNL     1       1.431   8.296  20.742  0.00  0.00    +0.000 OA
ATOM     12  C   UNL     1       1.356   8.767  19.458  0.00  0.00    +0.000 A 
ATOM     13  C   UNL     1       0.415   9.789  19.384  0.00  0.00    +0.000 A 
ATOM     14  C   UNL     1      -0.002  10.503  18.146  0.00  0.00    +0.000 C 
ATOM     15  C   UNL     1      -0.028  10.040  20.721  0.00  0.00    +0.000 A 
ATOM     16  O   UNL     1      -1.863  11.763  23.487  0.00  0.00    +0.000 OA
ENDROOT
BRANCH  12  17
ATOM     17  C   UNL     1       2.218   8.257  18.401  0.00  0.00    +0.000 C 
ATOM     18  O   UNL     1       2.241   8.786  17.290  0.00  0.00    +0.000 OA
ATOM     19  N   UNL     1       2.958   7.114  18.681  0.00  0.00    +0.000 N 
ATOM     20  H   UNL     1       2.643   6.552  19.461  0.00  0.00    +0.000 HD
BRANCH  19  21
ATOM     21  C   UNL     1       3.790   6.531  17.697  0.00  0.00    +0.000 A 
ATOM     22  C   UNL     1       3.699   5.170  17.376  0.00  0.00    +0.000 A 
ATOM     23  C   UNL     1       4.578   4.577  16.462  0.00  0.00    +0.000 A 
ATOM     24  C   UNL     1       5.575   5.340  15.856  0.00  0.00    +0.000 A 
ATOM     25  C   UNL     1       5.658   6.709  16.170  0.00  0.00    +0.000 A 
ATOM     26  C   UNL     1       4.756   7.309  17.062  0.00  0.00    +0.000 A 
BRANCH  24  27
ATOM     27  C   UNL     1       6.573   4.774  14.892  0.00  0.00    +0.000 C 
ATOM     28  C   UNL     1       6.204   3.660  13.943  0.00  0.00    +0.000 C 
ATOM     29  O   UNL     1       7.719   5.228  14.885  0.00  0.00    +0.000 OA
ENDBRANCH  24  27
ENDBRANCH  19  21
ENDBRANCH  12  17
BRANCH   1  31
ATOM     30  C   UNL     1      -4.110  12.820  24.607  0.00  0.00    +0.000 C 
ATOM     31  C   UNL     1      -3.392  13.674  23.570  0.00  0.00    +0.000 C 
ENDBRANCH   1  31
TORSDOF 4
ENDMDL
MODEL 2
REMARK VINA RESULT:      -8.5      0.407      1.013
REMARK  Name = 
REMARK  8 active torsions:
REMARK  status: ('A' for Active; 'I' for Inactive)
REMARK    1  A    between atoms: C_1  and  C_2
REMARK    2  A    between atoms: C_2  and  C_3
REMARK    3  A    between atoms: C_3  and  C_4
REMARK    4  A    between atoms: C_14  and  C_15
REMARK    5  A    between atoms: N_17  and  C_18
REMARK    6  A    between atoms: C_21  and  C_22
REMARK    7  A    between atoms: C_22  and  C_23
REMARK    8  A    between atoms: C_27  and  C_28
REMARK                            x       y       z     vdW  Elec       q    Type
REMARK                         _______ _______ _______ _____ _____    ______ ____
ROOT
ATOM      1  C   UNL     1      -2.177  13.021  22.600  0.00  0.00    +0.000 C 
ATOM      2  C   UNL     1      -0.954  13.969  22.638  0.00  0.00    +0.000 C 
ATOM      3  C   UNL     1      -2.608  12.679  21.178  0.00  0.00    +0.000 C 
ATOM      4  C   UNL     1      -1.435  12.056  20.509  0.00  0.00    +0.000 C 
ATOM      5  O   UNL     1      -1.024  12.478  19.439  0.00  0.00    +0.000 OA
ATOM      6  C   UNL     1      -0.803  10.961  21.263  0.00  0.00    +0.000 A 
ATOM      7  C   UNL     1      -1.062  10.897  22.648  0.00  0.00    +0.000 A 
ATOM      8  C   UNL     1      -0.483   9.889  23.422  0.00  0.00    +0.000 A 
ATOM      9  C   UNL     1       0.374   8.937  22.848  0.00  0.00    +0.000 A 
ATOM     10  C   UNL     1       0.629   9.043  21.474  0.00  0.00    +0.000 A 
ATOM     11  O   UNL     1       1.465   8.232  20.755  0.00  0.00    +0.000 OA
ATOM     12  C   UNL     1       1.470   8.700  19.468  0.00  0.00    +0.000 A 
ATOM     13  C   UNL     1       0.565   9.749  19.343  0.00  0.00    +0.000 A 
ATOM     14  C   UNL     1       0.234  10.471  18.084  0.00  0.00    +0.000 C 
ATOM     15  C   UNL     1       0.062  10.019  20.656  0.00  0.00    +0.000 A 
ATOM     16  O   UNL     1      -1.859  11.806  23.320  0.00  0.00    +0.000 OA
ENDROOT
BRANCH  12  17
ATOM     17  C   UNL     1       2.369   8.161  18.457  0.00  0.00    +0.000 C 
ATOM     18  O   UNL     1       2.412   8.641  17.325  0.00  0.00    +0.000 OA
ATOM     19  N   UNL     1       3.122   7.045  18.807  0.00  0.00    +0.000 N 
ATOM     20  H   UNL     1       2.796   6.512  19.603  0.00  0.00    +0.000 HD
BRANCH  19  21
ATOM     21  C   UNL     1       3.990   6.435  17.873  0.00  0.00    +0.000 A 
ATOM     22  C   UNL     1       5.140   7.088  17.409  0.00  0.00    +0.000 A 
ATOM     23  C   UNL     1       5.954   6.517  16.423  0.00  0.00    +0.000 A 
ATOM     24  C   UNL     1       5.624   5.278  15.876  0.00  0.00    +0.000 A 
ATOM     25  C   UNL     1       4.477   4.618  16.350  0.00  0.00    +0.000 A 
ATOM     26  C   UNL     1       3.679   5.177  17.362  0.00  0.00    +0.000 A 
BRANCH  24  27
ATOM     27  C   UNL     1       6.425   4.616  14.796  0.00  0.00    +0.000 C 
ATOM     28  C   UNL     1       5.763   3.777  13.731  0.00  0.00    +0.000 C 
ATOM     29  O   UNL     1       7.649   4.758  14.789  0.00  0.00    +0.000 OA
ENDBRANCH  24  27
ENDBRANCH  19  21
ENDBRANCH  12  17
BRANCH   1  31
ATOM     30  C   UNL     1      -4.538  14.107  22.457  0.00  0.00    +0.000 C 
ATOM     31  C   UNL     1      -3.332  13.762  23.321  0.00  0.00    +0.000 C 
ENDBRANCH   1  31
TORSDOF 4
ENDMDL
MODEL 3
REMARK VINA RESULT:      -8.2      0.993      1.075
REMARK  Name = 
REMARK  8 active torsions:
REMARK  status: ('A' for Active; 'I' for Inactive)
REMARK    1  A    between atoms: C_1  and  C_2
REMARK    2  A    between atoms: C_2  and  C_3
REMARK    3  A    between atoms: C_3  and  C_4
REMARK    4  A    between atoms: C_14  and  C_15
REMARK    5  A    between atoms: N_17  and  C_18
REMARK    6  A    between atoms: C_21  and  C_22
REMARK    7  A    between atoms: C_22  and  C_23
REMARK    8  A    between atoms: C_27  and  C_28
REMARK                            x       y       z     vdW  Elec       q    Type
REMARK                         _______ _______ _______ _____ _____    ______ ____
ROOT
ATOM      1  C   UNL     1      -3.108  13.511  21.514  0.00  0.00    +0.000 C 
ATOM      2  C   UNL     1      -2.059  14.617  21.241  0.00  0.00    +0.000 C 
ATOM      3  C   UNL     1      -3.492  12.746  20.253  0.00  0.00    +0.000 C 
ATOM      4  C   UNL     1      -2.240  12.162  19.704  0.00  0.00    +0.000 C 
ATOM      5  O   UNL     1      -1.916  12.347  18.540  0.00  0.00    +0.000 OA
ATOM      6  C   UNL     1      -1.426  11.416  20.678  0.00  0.00    +0.000 A 
ATOM      7  C   UNL     1      -1.656  11.678  22.045  0.00  0.00    +0.000 A 
ATOM      8  C   UNL     1      -0.909  11.012  23.019  0.00  0.00    +0.000 A 
ATOM      9  C   UNL     1       0.088  10.089  22.664  0.00  0.00    +0.000 A 
ATOM     10  C   UNL     1       0.307   9.871  21.297  0.00  0.00    +0.000 A 
ATOM     11  O   UNL     1       1.258   9.041  20.766  0.00  0.00    +0.000 OA
ATOM     12  C   UNL     1       1.171   9.150  19.403  0.00  0.00    +0.000 A 
ATOM     13  C   UNL     1       0.103   9.974  19.063  0.00  0.00    +0.000 A 
ATOM     14  C   UNL     1      -0.358  10.279  17.680  0.00  0.00    +0.000 C 
ATOM     15  C   UNL     1      -0.423  10.496  20.287  0.00  0.00    +0.000 A 
ATOM     16  O   UNL     1      -2.585  12.594  22.503  0.00  0.00    +0.000 OA
ENDROOT
BRANCH  12  17
ATOM     17  C   UNL     1       2.135   8.513  18.518  0.00  0.00    +0.000 C 
ATOM     18  O   UNL     1       2.489   9.054  17.471  0.00  0.00    +0.000 OA
ATOM     19  N   UNL     1       2.584   7.246  18.875  0.00  0.00    +0.000 N 
ATOM     20  H   UNL     1       2.015   6.735  19.536  0.00  0.00    +0.000 HD
BRANCH  19  21
ATOM     21  C   UNL     1       3.492   6.541  18.050  0.00  0.00    +0.000 A 
ATOM     22  C   UNL     1       3.660   5.155  18.168  0.00  0.00    +0.000 A 
ATOM     23  C   UNL     1       4.618   4.471  17.408  0.00  0.00    +0.000 A 
ATOM     24  C   UNL     1       5.432   5.169  16.518  0.00  0.00    +0.000 A 
ATOM     25  C   UNL     1       5.254   6.558  16.392  0.00  0.00    +0.000 A 
ATOM     26  C   UNL     1       4.272   7.238  17.131  0.00  0.00    +0.000 A 
BRANCH  24  27
ATOM     27  C   UNL     1       6.500   4.516  15.694  0.00  0.00    +0.000 C 
ATOM     28  C   UNL     1       6.226   4.044  14.287  0.00  0.00    +0.000 C 
ATOM     29  O   UNL     1       7.619   4.358  16.184  0.00  0.00    +0.000 OA
ENDBRANCH  24  27
ENDBRANCH  19  21
ENDBRANCH  12  17
BRANCH   1  31
ATOM     30  C   UNL     1      -4.934  13.636  23.364  0.00  0.00    +0.000 C 
ATOM     31  C   UNL     1      -4.362  14.224  22.081  0.00  0.00    +0.000 C 
ENDBRANCH   1  31
TORSDOF 4
ENDMDL
MODEL 4
REMARK VINA RESULT:      -8.1      2.589      3.655
REMARK  Name = 
REMARK  8 active torsions:
REMARK  status: ('A' for Active; 'I' for Inactive)
REMARK    1  A    between atoms: C_1  and  C_2
REMARK    2  A    between atoms: C_2  and  C_3
REMARK    3  A    between atoms: C_3  and  C_4
REMARK    4  A    between atoms: C_14  and  C_15
REMARK    5  A    between atoms: N_17  and  C_18
REMARK    6  A    between atoms: C_21  and  C_22
REMARK    7  A    between atoms: C_22  and  C_23
REMARK    8  A    between atoms: C_27  and  C_28
REMARK                            x       y       z     vdW  Elec       q    Type
REMARK                         _______ _______ _______ _____ _____    ______ ____
ROOT
ATOM      1  C   UNL     1      -2.830  13.563  22.635  0.00  0.00    +0.000 C 
ATOM      2  C   UNL     1      -3.933  12.477  22.668  0.00  0.00    +0.000 C 
ATOM      3  C   UNL     1      -1.572  13.142  23.386  0.00  0.00    +0.000 C 
ATOM      4  C   UNL     1      -1.093  11.884  22.754  0.00  0.00    +0.000 C 
ATOM      5  O   UNL     1      -0.873  10.887  23.425  0.00  0.00    +0.000 OA
ATOM      6  C   UNL     1      -0.972  11.935  21.288  0.00  0.00    +0.000 A 
ATOM      7  C   UNL     1      -1.693  12.946  20.616  0.00  0.00    +0.000 A 
ATOM      8  C   UNL     1      -1.629  13.041  19.225  0.00  0.00    +0.000 A 
ATOM      9  C   UNL     1      -0.870  12.134  18.469  0.00  0.00    +0.000 A 
ATOM     10  C   UNL     1      -0.186  11.129  19.165  0.00  0.00    +0.000 A 
ATOM     11  O   UNL     1       0.569  10.138  18.596  0.00  0.00    +0.000 OA
ATOM     12  C   UNL     1       1.021   9.341  19.615  0.00  0.00    +0.000 A 
ATOM     13  C   UNL     1       0.635   9.876  20.839  0.00  0.00    +0.000 A 
ATOM     14  C   UNL     1       0.996   9.337  22.180  0.00  0.00    +0.000 C 
ATOM     15  C   UNL     1      -0.202  11.001  20.553  0.00  0.00    +0.000 A 
ATOM     16  O   UNL     1      -2.501  13.866  21.259  0.00  0.00    +0.000 OA
ENDROOT
BRANCH  12  17
ATOM     17  C   UNL     1       1.738   8.100  19.359  0.00  0.00    +0.000 C 
ATOM     18  O   UNL     1       2.155   7.828  18.233  0.00  0.00    +0.000 OA
ATOM     19  N   UNL     1       1.870   7.213  20.422  0.00  0.00    +0.000 N 
ATOM     20  H   UNL     1       1.230   7.336  21.196  0.00  0.00    +0.000 HD
BRANCH  19  21
ATOM     21  C   UNL     1       2.518   5.968  20.249  0.00  0.00    +0.000 A 
ATOM     22  C   UNL     1       3.682   5.850  19.479  0.00  0.00    +0.000 A 
ATOM     23  C   UNL     1       4.276   4.605  19.241  0.00  0.00    +0.000 A 
ATOM     24  C   UNL     1       3.706   3.447  19.769  0.00  0.00    +0.000 A 
ATOM     25  C   UNL     1       2.544   3.567  20.553  0.00  0.00    +0.000 A 
ATOM     26  C   UNL     1       1.968   4.820  20.817  0.00  0.00    +0.000 A 
BRANCH  24  27
ATOM     27  C   UNL     1       4.261   2.076  19.535  0.00  0.00    +0.000 C 
ATOM     28  C   UNL     1       3.816   1.239  18.360  0.00  0.00    +0.000 C 
ATOM     29  O   UNL     1       5.093   1.625  20.325  0.00  0.00    +0.000 OA
ENDBRANCH  24  27
ENDBRANCH  19  21
ENDBRANCH  12  17
BRANCH   1  31
ATOM     30  C   UNL     1      -3.106  14.999  24.788  0.00  0.00    +0.000 C 
ATOM     31  C   UNL     1      -3.432  14.822  23.312  0.00  0.00    +0.000 C 
ENDBRANCH   1  31
TORSDOF 4
ENDMDL
MODEL 5
REMARK VINA RESULT:      -8.0      1.380      1.415
REMARK  Name = 
REMARK  8 active torsions:
REMARK  status: ('A' for Active; 'I' for Inactive)
REMARK    1  A    between atoms: C_1  and  C_2
REMARK    2  A    between atoms: C_2  and  C_3
REMARK    3  A    between atoms: C_3  and  C_4
REMARK    4  A    between atoms: C_14  and  C_15
REMARK    5  A    between atoms: N_17  and  C_18
REMARK    6  A    between atoms: C_21  and  C_22
REMARK    7  A    between atoms: C_22  and  C_23
REMARK    8  A    between atoms: C_27  and  C_28
REMARK                            x       y       z     vdW  Elec       q    Type
REMARK                         _______ _______ _______ _____ _____    ______ ____
ROOT
ATOM      1  C   UNL     1      -1.980  13.701  21.371  0.00  0.00    +0.000 C 
ATOM      2  C   UNL     1      -0.631  14.456  21.446  0.00  0.00    +0.000 C 
ATOM      3  C   UNL     1      -2.211  13.050  20.012  0.00  0.00    +0.000 C 
ATOM      4  C   UNL     1      -1.073  12.122  19.779  0.00  0.00    +0.000 C 
ATOM      5  O   UNL     1      -0.411  12.183  18.754  0.00  0.00    +0.000 OA
ATOM      6  C   UNL     1      -0.792  11.196  20.889  0.00  0.00    +0.000 A 
ATOM      7  C   UNL     1      -1.296  11.542  22.160  0.00  0.00    +0.000 A 
ATOM      8  C   UNL     1      -1.054  10.711  23.257  0.00  0.00    +0.000 A 
ATOM      9  C   UNL     1      -0.297   9.536  23.124  0.00  0.00    +0.000 A 
ATOM     10  C   UNL     1       0.209   9.236  21.852  0.00  0.00    +0.000 A 
ATOM     11  O   UNL     1       0.996   8.159  21.543  0.00  0.00    +0.000 OA
ATOM     12  C   UNL     1       1.310   8.259  20.213  0.00  0.00    +0.000 A 
ATOM     13  C   UNL     1       0.647   9.346  19.652  0.00  0.00    +0.000 A 
ATOM     14  C   UNL     1       0.677   9.740  18.217  0.00  0.00    +0.000 C 
ATOM     15  C   UNL     1      -0.020  10.021  20.723  0.00  0.00    +0.000 A 
ATOM     16  O   UNL     1      -2.019  12.694  22.410  0.00  0.00    +0.000 OA
ENDROOT
BRANCH  12  17
ATOM     17  C   UNL     1       2.259   7.356  19.577  0.00  0.00    +0.000 C 
ATOM     18  O   UNL     1       2.739   6.404  20.192  0.00  0.00    +0.000 OA
ATOM     19  N   UNL     1       2.644   7.654  18.275  0.00  0.00    +0.000 N 
ATOM     20  H   UNL     1       2.487   8.604  17.964  0.00  0.00    +0.000 HD
BRANCH  19  21
ATOM     21  C   UNL     1       3.591   6.851  17.598  0.00  0.00    +0.000 A 
ATOM     22  C   UNL     1       3.446   5.460  17.519  0.00  0.00    +0.000 A 
ATOM     23  C   UNL     1       4.425   4.658  16.921  0.00  0.00    +0.000 A 
ATOM     24  C   UNL     1       5.578   5.239  16.394  0.00  0.00    +0.000 A 
ATOM     25  C   UNL     1       5.717   6.636  16.463  0.00  0.00    +0.000 A 
ATOM     26  C   UNL     1       4.720   7.442  17.035  0.00  0.00    +0.000 A 
BRANCH  24  27
ATOM     27  C   UNL     1       6.685   4.448  15.766  0.00  0.00    +0.000 C 
ATOM     28  C   UNL     1       6.506   3.773  14.428  0.00  0.00    +0.000 C 
ATOM     29  O   UNL     1       7.758   4.345  16.364  0.00  0.00    +0.000 OA
ENDBRANCH  24  27
ENDBRANCH  19  21
ENDBRANCH  12  17
BRANCH   1  31
ATOM     30  C   UNL     1      -4.484  14.376  21.146  0.00  0.00    +0.000 C 
ATOM     31  C   UNL     1      -3.090  14.753  21.630  0.00  0.00    +0.000 C 
ENDBRANCH   1  31
TORSDOF 4
ENDMDL
MODEL 6
REMARK VINA RESULT:      -7.9      3.112      4.537
REMARK  Name = 
REMARK  8 active torsions:
REMARK  status: ('A' for Active; 'I' for Inactive)
REMARK    1  A    between atoms: C_1  and  C_2
REMARK    2  A    between atoms: C_2  and  C_3
REMARK    3  A    between atoms: C_3  and  C_4
REMARK    4  A    between atoms: C_14  and  C_15
REMARK    5  A    between atoms: N_17  and  C_18
REMARK    6  A    between atoms: C_21  and  C_22
REMARK    7  A    between atoms: C_22  and  C_23
REMARK    8  A    between atoms: C_27  and  C_28
REMARK                            x       y       z     vdW  Elec       q    Type
REMARK                         _______ _______ _______ _____ _____    ______ ____
ROOT
ATOM      1  C   UNL     1      -6.140  12.912  19.372  0.00  0.00    +0.000 C 
ATOM      2  C   UNL     1      -6.589  11.656  20.157  0.00  0.00    +0.000 C 
ATOM      3  C   UNL     1      -4.935  13.599  20.006  0.00  0.00    +0.000 C 
ATOM      4  C   UNL     1      -3.843  12.592  20.060  0.00  0.00    +0.000 C 
ATOM      5  O   UNL     1      -3.260  12.351  21.106  0.00  0.00    +0.000 OA
ATOM      6  C   UNL     1      -3.582  11.893  18.790  0.00  0.00    +0.000 A 
ATOM      7  C   UNL     1      -4.608  11.912  17.821  0.00  0.00    +0.000 A 
ATOM      8  C   UNL     1      -4.427  11.259  16.600  0.00  0.00    +0.000 A 
ATOM      9  C   UNL     1      -3.242  10.562  16.319  0.00  0.00    +0.000 A 
ATOM     10  C   UNL     1      -2.254  10.543  17.313  0.00  0.00    +0.000 A 
ATOM     11  O   UNL     1      -1.056   9.884  17.231  0.00  0.00    +0.000 OA
ATOM     12  C   UNL     1      -0.408  10.079  18.423  0.00  0.00    +0.000 A 
ATOM     13  C   UNL     1      -1.149  10.939  19.227  0.00  0.00    +0.000 A 
ATOM     14  C   UNL     1      -0.743  11.447  20.567  0.00  0.00    +0.000 C 
ATOM     15  C   UNL     1      -2.377  11.193  18.539  0.00  0.00    +0.000 A 
ATOM     16  O   UNL     1      -5.828  12.535  18.010  0.00  0.00    +0.000 OA
ENDROOT
BRANCH  12  17
ATOM     17  C   UNL     1       0.837   9.396  18.741  0.00  0.00    +0.000 C 
ATOM     18  O   UNL     1       1.614   9.851  19.580  0.00  0.00    +0.000 OA
ATOM     19  N   UNL     1       1.138   8.250  18.012  0.00  0.00    +0.000 N 
ATOM     20  H   UNL     1       0.646   8.131  17.136  0.00  0.00    +0.000 HD
BRANCH  19  21
ATOM     21  C   UNL     1       2.346   7.549  18.231  0.00  0.00    +0.000 A 
ATOM     22  C   UNL     1       3.440   7.692  17.368  0.00  0.00    +0.000 A 
ATOM     23  C   UNL     1       4.606   6.935  17.539  0.00  0.00    +0.000 A 
ATOM     24  C   UNL     1       4.693   6.011  18.579  0.00  0.00    +0.000 A 
ATOM     25  C   UNL     1       3.598   5.877  19.452  0.00  0.00    +0.000 A 
ATOM     26  C   UNL     1       2.443   6.659  19.299  0.00  0.00    +0.000 A 
BRANCH  24  27
ATOM     27  C   UNL     1       5.891   5.142  18.810  0.00  0.00    +0.000 C 
ATOM     28  C   UNL     1       7.291   5.658  18.581  0.00  0.00    +0.000 C 
ATOM     29  O   UNL     1       5.723   3.981  19.187  0.00  0.00    +0.000 OA
ENDBRANCH  24  27
ENDBRANCH  19  21
ENDBRANCH  12  17
BRANCH   1  31
ATOM     30  C   UNL     1      -7.915  14.240  18.008  0.00  0.00    +0.000 C 
ATOM     31  C   UNL     1      -7.345  13.888  19.375  0.00  0.00    +0.000 C 
ENDBRANCH   1  31
TORSDOF 4
ENDMDL
MODEL 7
REMARK VINA RESULT:      -7.8      1.000      1.048
REMARK  Name = 
REMARK  8 active torsions:
REMARK  status: ('A' for Active; 'I' for Inactive)
REMARK    1  A    between atoms: C_1  and  C_2
REMARK    2  A    between atoms: C_2  and  C_3
REMARK    3  A    between atoms: C_3  and  C_4
REMARK    4  A    between atoms: C_14  and  C_15
REMARK    5  A    between atoms: N_17  and  C_18
REMARK    6  A    between atoms: C_21  and  C_22
REMARK    7  A    between atoms: C_22  and  C_23
REMARK    8  A    between atoms: C_27  and  C_28
REMARK                            x       y       z     vdW  Elec       q    Type
REMARK                         _______ _______ _______ _____ _____    ______ ____
ROOT
ATOM      1  C   UNL     1      -2.225  13.891  22.684  0.00  0.00    +0.000 C 
ATOM      2  C   UNL     1      -0.884  14.650  22.829  0.00  0.00    +0.000 C 
ATOM      3  C   UNL     1      -2.613  13.661  21.228  0.00  0.00    +0.000 C 
ATOM      4  C   UNL     1      -1.503  12.895  20.602  0.00  0.00    +0.000 C 
ATOM      5  O   UNL     1      -0.971  13.286  19.574  0.00  0.00    +0.000 OA
ATOM      6  C   UNL     1      -1.081  11.696  21.345  0.00  0.00    +0.000 A 
ATOM      7  C   UNL     1      -1.431  11.628  22.710  0.00  0.00    +0.000 A 
ATOM      8  C   UNL     1      -1.051  10.522  23.473  0.00  0.00    +0.000 A 
ATOM      9  C   UNL     1      -0.306   9.474  22.911  0.00  0.00    +0.000 A 
ATOM     10  C   UNL     1       0.046   9.585  21.559  0.00  0.00    +0.000 A 
ATOM     11  O   UNL     1       0.799   8.684  20.855  0.00  0.00    +0.000 OA
ATOM     12  C   UNL     1       0.949   9.187  19.590  0.00  0.00    +0.000 A 
ATOM     13  C   UNL     1       0.214  10.360  19.458  0.00  0.00    +0.000 A 
ATOM     14  C   UNL     1       0.066  11.162  18.211  0.00  0.00    +0.000 C 
ATOM     15  C   UNL     1      -0.325  10.658  20.750  0.00  0.00    +0.000 A 
ATOM     16  O   UNL     1      -2.129  12.621  23.372  0.00  0.00    +0.000 OA
ENDROOT
BRANCH  12  17
ATOM     17  C   UNL     1       1.822   8.555  18.610  0.00  0.00    +0.000 C 
ATOM     18  O   UNL     1       2.032   9.078  17.516  0.00  0.00    +0.000 OA
ATOM     19  N   UNL     1       2.349   7.311  18.939  0.00  0.00    +0.000 N 
ATOM     20  H   UNL     1       1.879   6.801  19.675  0.00  0.00    +0.000 HD
BRANCH  19  21
ATOM     21  C   UNL     1       3.174   6.611  18.028  0.00  0.00    +0.000 A 
ATOM     22  C   UNL     1       3.081   5.221  17.878  0.00  0.00    +0.000 A 
ATOM     23  C   UNL     1       3.954   4.520  17.037  0.00  0.00    +0.000 A 
ATOM     24  C   UNL     1       4.945   5.202  16.333  0.00  0.00    +0.000 A 
ATOM     25  C   UNL     1       5.030   6.598  16.476  0.00  0.00    +0.000 A 
ATOM     26  C   UNL     1       4.134   7.304  17.294  0.00  0.00    +0.000 A 
BRANCH  24  27
ATOM     27  C   UNL     1       5.936   4.521  15.440  0.00  0.00    +0.000 C 
ATOM     28  C   UNL     1       7.337   4.215  15.910  0.00  0.00    +0.000 C 
ATOM     29  O   UNL     1       5.596   4.214  14.296  0.00  0.00    +0.000 OA
ENDBRANCH  24  27
ENDBRANCH  19  21
ENDBRANCH  12  17
BRANCH   1  31
ATOM     30  C   UNL     1      -3.267  14.797  24.891  0.00  0.00    +0.000 C 
ATOM     31  C   UNL     1      -3.305  14.769  23.369  0.00  0.00    +0.000 C 
ENDBRANCH   1  31
TORSDOF 4
ENDMDL
MODEL 8
REMARK VINA RESULT:      -7.8      1.889      2.993
REMARK  Name = 
REMARK  8 active torsions:
REMARK  status: ('A' for Active; 'I' for Inactive)
REMARK    1  A    between atoms: C_1  and  C_2
REMARK    2  A    between atoms: C_2  and  C_3
REMARK    3  A    between atoms: C_3  and  C_4
REMARK    4  A    between atoms: C_14  and  C_15
REMARK    5  A    between atoms: N_17  and  C_18
REMARK    6  A    between atoms: C_21  and  C_22
REMARK    7  A    between atoms: C_22  and  C_23
REMARK    8  A    between atoms: C_27  and  C_28
REMARK                            x       y       z     vdW  Elec       q    Type
REMARK                         _______ _______ _______ _____ _____    ______ ____
ROOT
ATOM      1  C   UNL     1      -3.610  13.685  22.838  0.00  0.00    +0.000 C 
ATOM      2  C   UNL     1      -3.854  12.382  23.637  0.00  0.00    +0.000 C 
ATOM      3  C   UNL     1      -2.141  14.092  22.817  0.00  0.00    +0.000 C 
ATOM      4  C   UNL     1      -1.387  12.958  22.221  0.00  0.00    +0.000 C 
ATOM      5  O   UNL     1      -0.426  12.469  22.796  0.00  0.00    +0.000 OA
ATOM      6  C   UNL     1      -1.927  12.458  20.945  0.00  0.00    +0.000 A 
ATOM      7  C   UNL     1      -3.269  12.775  20.645  0.00  0.00    +0.000 A 
ATOM      8  C   UNL     1      -3.844  12.322  19.457  0.00  0.00    +0.000 A 
ATOM      9  C   UNL     1      -3.115  11.535  18.551  0.00  0.00    +0.000 A 
ATOM     10  C   UNL     1      -1.792  11.219  18.891  0.00  0.00    +0.000 A 
ATOM     11  O   UNL     1      -0.946  10.435  18.154  0.00  0.00    +0.000 OA
ATOM     12  C   UNL     1       0.227  10.338  18.855  0.00  0.00    +0.000 A 
ATOM     13  C   UNL     1       0.163  11.137  19.993  0.00  0.00    +0.000 A 
ATOM     14  C   UNL     1       1.266  11.352  20.970  0.00  0.00    +0.000 C 
ATOM     15  C   UNL     1      -1.166  11.662  20.056  0.00  0.00    +0.000 A 
ATOM     16  O   UNL     1      -4.088  13.509  21.484  0.00  0.00    +0.000 OA
ENDROOT
BRANCH  12  17
ATOM     17  C   UNL     1       1.305   9.456  18.433  0.00  0.00    +0.000 C 
ATOM     18  O   UNL     1       1.961   9.695  17.420  0.00  0.00    +0.000 OA
ATOM     19  N   UNL     1       1.512   8.303  19.183  0.00  0.00    +0.000 N 
ATOM     20  H   UNL     1       0.746   8.003  19.771  0.00  0.00    +0.000 HD
BRANCH  19  21
ATOM     21  C   UNL     1       2.513   7.372  18.818  0.00  0.00    +0.000 A 
ATOM     22  C   UNL     1       2.804   6.261  19.619  0.00  0.00    +0.000 A 
ATOM     23  C   UNL     1       3.849   5.386  19.300  0.00  0.00    +0.000 A 
ATOM     24  C   UNL     1       4.630   5.615  18.168  0.00  0.00    +0.000 A 
ATOM     25  C   UNL     1       4.330   6.725  17.358  0.00  0.00    +0.000 A 
ATOM     26  C   UNL     1       3.261   7.583  17.662  0.00  0.00    +0.000 A 
BRANCH  24  27
ATOM     27  C   UNL     1       5.785   4.745  17.775  0.00  0.00    +0.000 C 
ATOM     28  C   UNL     1       5.973   4.286  16.350  0.00  0.00    +0.000 C 
ATOM     29  O   UNL     1       6.591   4.396  18.640  0.00  0.00    +0.000 OA
ENDBRANCH  24  27
ENDBRANCH  19  21
ENDBRANCH  12  17
BRANCH   1  31
ATOM     30  C   UNL     1      -5.950  14.662  23.425  0.00  0.00    +0.000 C 
ATOM     31  C   UNL     1      -4.437  14.794  23.538  0.00  0.00    +0.000 C 
ENDBRANCH   1  31
TORSDOF 4
ENDMDL
MODEL 9
REMARK VINA RESULT:      -7.8      1.422      1.857
REMARK  Name = 
REMARK  8 active torsions:
REMARK  status: ('A' for Active; 'I' for Inactive)
REMARK    1  A    between atoms: C_1  and  C_2
REMARK    2  A    between atoms: C_2  and  C_3
REMARK    3  A    between atoms: C_3  and  C_4
REMARK    4  A    between atoms: C_14  and  C_15
REMARK    5  A    between atoms: N_17  and  C_18
REMARK    6  A    between atoms: C_21  and  C_22
REMARK    7  A    between atoms: C_22  and  C_23
REMARK    8  A    between atoms: C_27  and  C_28
REMARK                            x       y       z     vdW  Elec       q    Type
REMARK                         _______ _______ _______ _____ _____    ______ ____
ROOT
ATOM      1  C   UNL     1      -3.600  13.726  21.311  0.00  0.00    +0.000 C 
ATOM      2  C   UNL     1      -2.640  14.849  20.849  0.00  0.00    +0.000 C 
ATOM      3  C   UNL     1      -4.008  12.800  20.171  0.00  0.00    +0.000 C 
ATOM      4  C   UNL     1      -2.756  12.227  19.612  0.00  0.00    +0.000 C 
ATOM      5  O   UNL     1      -2.512  12.294  18.416  0.00  0.00    +0.000 OA
ATOM      6  C   UNL     1      -1.842  11.645  20.609  0.00  0.00    +0.000 A 
ATOM      7  C   UNL     1      -2.009  12.049  21.950  0.00  0.00    +0.000 A 
ATOM      8  C   UNL     1      -1.167  11.543  22.942  0.00  0.00    +0.000 A 
ATOM      9  C   UNL     1      -0.136  10.642  22.629  0.00  0.00    +0.000 A 
ATOM     10  C   UNL     1       0.017  10.280  21.284  0.00  0.00    +0.000 A 
ATOM     11  O   UNL     1       0.985   9.448  20.789  0.00  0.00    +0.000 OA
ATOM     12  C   UNL     1       0.813   9.394  19.431  0.00  0.00    +0.000 A 
ATOM     13  C   UNL     1      -0.322  10.113  19.070  0.00  0.00    +0.000 A 
ATOM     14  C   UNL     1      -0.880  10.230  17.694  0.00  0.00    +0.000 C 
ATOM     15  C   UNL     1      -0.808  10.742  20.260  0.00  0.00    +0.000 A 
ATOM     16  O   UNL     1      -2.965  12.960  22.362  0.00  0.00    +0.000 OA
ENDROOT
BRANCH  12  17
ATOM     17  C   UNL     1       1.763   8.714  18.562  0.00  0.00    +0.000 C 
ATOM     18  O   UNL     1       2.043   9.164  17.451  0.00  0.00    +0.000 OA
ATOM     19  N   UNL     1       2.284   7.506  19.014  0.00  0.00    +0.000 N 
ATOM     20  H   UNL     1       1.770   7.039  19.750  0.00  0.00    +0.000 HD
BRANCH  19  21
ATOM     21  C   UNL     1       3.183   6.761  18.215  0.00  0.00    +0.000 A 
ATOM     22  C   UNL     1       4.341   7.342  17.683  0.00  0.00    +0.000 A 
ATOM     23  C   UNL     1       5.187   6.627  16.825  0.00  0.00    +0.000 A 
ATOM     24  C   UNL     1       4.880   5.312  16.479  0.00  0.00    +0.000 A 
ATOM     25  C   UNL     1       3.724   4.726  17.024  0.00  0.00    +0.000 A 
ATOM     26  C   UNL     1       2.894   5.433  17.908  0.00  0.00    +0.000 A 
BRANCH  24  27
ATOM     27  C   UNL     1       5.715   4.492  15.544  0.00  0.00    +0.000 C 
ATOM     28  C   UNL     1       7.163   4.189  15.845  0.00  0.00    +0.000 C 
ATOM     29  O   UNL     1       5.206   4.065  14.507  0.00  0.00    +0.000 OA
ENDBRANCH  24  27
ENDBRANCH  19  21
ENDBRANCH  12  17
BRANCH   1  31
ATOM     30  C   UNL     1      -6.135  13.594  21.887  0.00  0.00    +0.000 C 
ATOM     31  C   UNL     1      -4.862  14.429  21.875  0.00  0.00    +0.000 C 
ENDBRANCH   1  31
TORSDOF 4
ENDMDL
