MODEL 1
REMARK VINA RESULT:      -8.5      0.000      0.000
REMARK  Name = 
REMARK  8 active torsions:
REMARK  status: ('A' for Active; 'I' for Inactive)
REMARK    1  A    between atoms: C_1  and  C_2
REMARK    2  A    between atoms: C_6  and  C_7
REMARK    3  A    between atoms: C_8  and  O_9
REMARK    4  A    between atoms: O_9  and  C_10
REMARK    5  A    between atoms: C_10  and  C_11
REMARK    6  A    between atoms: N_13  and  C_14
REMARK    7  A    between atoms: C_15  and  C_16
REMARK    8  A    between atoms: C_16  and  C_18
REMARK                            x       y       z     vdW  Elec       q    Type
REMARK                         _______ _______ _______ _____ _____    ______ ____
ROOT
ATOM      1  C   UNL     1      -0.032  10.576  18.457  0.00  0.00    +0.000 A 
ATOM      2  C   UNL     1      -0.013  11.426  19.550  0.00  0.00    +0.000 A 
ATOM      3  O   UNL     1      -1.260  11.979  19.714  0.00  0.00    +0.000 OA
ATOM      4  C   UNL     1      -2.069  11.453  18.757  0.00  0.00    +0.000 A 
ATOM      5  C   UNL     1      -3.417  11.761  18.587  0.00  0.00    +0.000 A 
ATOM      6  C   UNL     1      -4.092  11.072  17.574  0.00  0.00    +0.000 A 
ATOM      7  C   UNL     1      -3.434  10.125  16.785  0.00  0.00    +0.000 A 
ATOM      8  C   UNL     1      -2.069   9.858  16.962  0.00  0.00    +0.000 A 
ATOM      9  C   UNL     1      -1.366  10.555  17.964  0.00  0.00    +0.000 A 
ENDROOT
BRANCH   1  12
ATOM     10  C   UNL     1       1.623   8.855  18.663  0.00  0.00    +0.000 C 
ATOM     11  O   UNL     1       1.227   8.478  19.764  0.00  0.00    +0.000 OA
ATOM     12  N   UNL     1       1.072   9.911  17.943  0.00  0.00    +0.000 N 
ATOM     13  H   UNL     1       1.079   9.797  16.940  0.00  0.00    +0.000 HD
BRANCH  10  14
ATOM     14  C   UNL     1       2.769   8.158  17.923  0.00  0.00    +0.000 C 
BRANCH  14  15
ATOM     15  O   UNL     1       3.255   7.091  18.707  0.00  0.00    +0.000 OA
BRANCH  15  23
ATOM     16  C   UNL     1       5.113   6.442  16.236  0.00  0.00    +0.000 C 
ATOM     17  C   UNL     1       4.306   5.497  17.082  0.00  0.00    +0.000 A 
ATOM     18  C   UNL     1       4.401   4.134  16.721  0.00  0.00    +0.000 A 
ATOM     19  C   UNL     1       3.715   3.140  17.411  0.00  0.00    +0.000 A 
ATOM     20  C   UNL     1       2.910   3.486  18.484  0.00  0.00    +0.000 A 
ATOM     21  C   UNL     1       2.790   4.828  18.875  0.00  0.00    +0.000 A 
ATOM     22  C   UNL     1       1.898   5.157  20.046  0.00  0.00    +0.000 C 
ATOM     23  C   UNL     1       3.488   5.850  18.177  0.00  0.00    +0.000 A 
ENDBRANCH  15  23
ENDBRANCH  14  15
ENDBRANCH  10  14
ENDBRANCH   1  12
BRANCH   2  24
ATOM     24  C   UNL     1       1.066  11.874  20.398  0.00  0.00    +0.000 C 
ATOM     25  O   UNL     1       1.313  11.379  21.500  0.00  0.00    +0.000 OA
BRANCH  24  26
ATOM     26  C   UNL     1       1.949  12.978  19.925  0.00  0.00    +0.000 A 
ATOM     27  C   UNL     1       2.762  13.642  20.849  0.00  0.00    +0.000 A 
ATOM     28  C   UNL     1       3.588  14.695  20.437  0.00  0.00    +0.000 A 
ATOM     29  C   UNL     1       3.584  15.085  19.097  0.00  0.00    +0.000 A 
ATOM     30 BR   UNL     1       4.691  16.510  18.536  0.00  0.00    +0.000 Br
ATOM     31  C   UNL     1       2.767  14.440  18.172  0.00  0.00    +0.000 A 
ATOM     32  C   UNL     1       1.946  13.393  18.583  0.00  0.00    +0.000 A 
ENDBRANCH  24  26
ENDBRANCH   2  24
TORSDOF 6
ENDMDL
MODEL 2
REMARK VINA RESULT:      -8.4      3.582      8.814
REMARK  Name = 
REMARK  8 active torsions:
REMARK  status: ('A' for Active; 'I' for Inactive)
REMARK    1  A    between atoms: C_1  and  C_2
REMARK    2  A    between atoms: C_6  and  C_7
REMARK    3  A    between atoms: C_8  and  O_9
REMARK    4  A    between atoms: O_9  and  C_10
REMARK    5  A    between atoms: C_10  and  C_11
REMARK    6  A    between atoms: N_13  and  C_14
REMARK    7  A    between atoms: C_15  and  C_16
REMARK    8  A    between atoms: C_16  and  C_18
REMARK                            x       y       z     vdW  Elec       q    Type
REMARK                         _______ _______ _______ _____ _____    ______ ____
ROOT
ATOM      1  C   UNL     1       3.094   5.635  18.623  0.00  0.00    +0.000 A 
ATOM      2  C   UNL     1       4.388   5.216  18.365  0.00  0.00    +0.000 A 
ATOM      3  O   UNL     1       4.649   4.080  19.094  0.00  0.00    +0.000 OA
ATOM      4  C   UNL     1       3.517   3.764  19.776  0.00  0.00    +0.000 A 
ATOM      5  C   UNL     1       3.373   2.674  20.632  0.00  0.00    +0.000 A 
ATOM      6  C   UNL     1       2.109   2.490  21.201  0.00  0.00    +0.000 A 
ATOM      7  C   UNL     1       1.055   3.360  20.912  0.00  0.00    +0.000 A 
ATOM      8  C   UNL     1       1.239   4.466  20.069  0.00  0.00    +0.000 A 
ATOM      9  C   UNL     1       2.510   4.681  19.501  0.00  0.00    +0.000 A 
ENDROOT
BRANCH   1  12
ATOM     10  C   UNL     1       2.137   7.797  19.018  0.00  0.00    +0.000 C 
ATOM     11  O   UNL     1       2.237   7.719  20.241  0.00  0.00    +0.000 OA
ATOM     12  N   UNL     1       2.517   6.796  18.129  0.00  0.00    +0.000 N 
ATOM     13  H   UNL     1       2.890   7.122  17.249  0.00  0.00    +0.000 HD
BRANCH  10  14
ATOM     14  C   UNL     1       1.610   9.053  18.318  0.00  0.00    +0.000 C 
BRANCH  14  15
ATOM     15  O   UNL     1       0.208   9.121  18.466  0.00  0.00    +0.000 OA
BRANCH  15  23
ATOM     16  C   UNL     1       0.971  10.729  21.076  0.00  0.00    +0.000 C 
ATOM     17  C   UNL     1      -0.123  11.008  20.083  0.00  0.00    +0.000 A 
ATOM     18  C   UNL     1      -0.909  12.150  20.357  0.00  0.00    +0.000 A 
ATOM     19  C   UNL     1      -1.956  12.538  19.529  0.00  0.00    +0.000 A 
ATOM     20  C   UNL     1      -2.248  11.790  18.400  0.00  0.00    +0.000 A 
ATOM     21  C   UNL     1      -1.490  10.651  18.092  0.00  0.00    +0.000 A 
ATOM     22  C   UNL     1      -1.847   9.865  16.855  0.00  0.00    +0.000 C 
ATOM     23  C   UNL     1      -0.417  10.246  18.931  0.00  0.00    +0.000 A 
ENDBRANCH  15  23
ENDBRANCH  14  15
ENDBRANCH  10  14
ENDBRANCH   1  12
BRANCH   2  24
ATOM     24  C   UNL     1       5.456   5.816  17.601  0.00  0.00    +0.000 C 
ATOM     25  O   UNL     1       6.135   6.760  18.010  0.00  0.00    +0.000 OA
BRANCH  24  26
ATOM     26  C   UNL     1       5.779   5.267  16.254  0.00  0.00    +0.000 A 
ATOM     27  C   UNL     1       4.808   4.532  15.566  0.00  0.00    +0.000 A 
ATOM     28  C   UNL     1       5.090   3.990  14.307  0.00  0.00    +0.000 A 
ATOM     29  C   UNL     1       6.354   4.177  13.747  0.00  0.00    +0.000 A 
ATOM     30 BR   UNL     1       6.743   3.441  12.051  0.00  0.00    +0.000 Br
ATOM     31  C   UNL     1       7.334   4.894  14.430  0.00  0.00    +0.000 A 
ATOM     32  C   UNL     1       7.052   5.433  15.683  0.00  0.00    +0.000 A 
ENDBRANCH  24  26
ENDBRANCH   2  24
TORSDOF 6
ENDMDL
MODEL 3
REMARK VINA RESULT:      -8.4      3.631      8.685
REMARK  Name = 
REMARK  8 active torsions:
REMARK  status: ('A' for Active; 'I' for Inactive)
REMARK    1  A    between atoms: C_1  and  C_2
REMARK    2  A    between atoms: C_6  and  C_7
REMARK    3  A    between atoms: C_8  and  O_9
REMARK    4  A    between atoms: O_9  and  C_10
REMARK    5  A    between atoms: C_10  and  C_11
REMARK    6  A    between atoms: N_13  and  C_14
REMARK    7  A    between atoms: C_15  and  C_16
REMARK    8  A    between atoms: C_16  and  C_18
REMARK                            x       y       z     vdW  Elec       q    Type
REMARK                         _______ _______ _______ _____ _____    ______ ____
ROOT
ATOM      1  C   UNL     1       3.238   5.432  18.666  0.00  0.00    +0.000 A 
ATOM      2  C   UNL     1       4.535   4.958  18.561  0.00  0.00    +0.000 A 
ATOM      3  O   UNL     1       4.683   3.863  19.378  0.00  0.00    +0.000 OA
ATOM      4  C   UNL     1       3.480   3.625  19.964  0.00  0.00    +0.000 A 
ATOM      5  C   UNL     1       3.216   2.595  20.864  0.00  0.00    +0.000 A 
ATOM      6  C   UNL     1       1.897   2.485  21.317  0.00  0.00    +0.000 A 
ATOM      7  C   UNL     1       0.908   3.368  20.875  0.00  0.00    +0.000 A 
ATOM      8  C   UNL     1       1.212   4.412  19.990  0.00  0.00    +0.000 A 
ATOM      9  C   UNL     1       2.538   4.552  19.537  0.00  0.00    +0.000 A 
ENDROOT
BRANCH   1  12
ATOM     10  C   UNL     1       2.357   7.655  18.835  0.00  0.00    +0.000 C 
ATOM     11  O   UNL     1       2.365   7.662  20.065  0.00  0.00    +0.000 OA
ATOM     12  N   UNL     1       2.754   6.576  18.049  0.00  0.00    +0.000 N 
ATOM     13  H   UNL     1       3.204   6.822  17.179  0.00  0.00    +0.000 HD
BRANCH  10  14
ATOM     14  C   UNL     1       1.942   8.877  18.011  0.00  0.00    +0.000 C 
BRANCH  14  15
ATOM     15  O   UNL     1       0.816   9.485  18.606  0.00  0.00    +0.000 OA
BRANCH  15  23
ATOM     16  C   UNL     1       2.432  12.078  17.800  0.00  0.00    +0.000 C 
ATOM     17  C   UNL     1       1.618  11.820  19.039  0.00  0.00    +0.000 A 
ATOM     18  C   UNL     1       1.569  12.891  19.960  0.00  0.00    +0.000 A 
ATOM     19  C   UNL     1       0.855  12.804  21.150  0.00  0.00    +0.000 A 
ATOM     20  C   UNL     1       0.170  11.639  21.452  0.00  0.00    +0.000 A 
ATOM     21  C   UNL     1       0.192  10.555  20.563  0.00  0.00    +0.000 A 
ATOM     22  C   UNL     1      -0.564   9.304  20.937  0.00  0.00    +0.000 C 
ATOM     23  C   UNL     1       0.918  10.633  19.344  0.00  0.00    +0.000 A 
ENDBRANCH  15  23
ENDBRANCH  14  15
ENDBRANCH  10  14
ENDBRANCH   1  12
BRANCH   2  24
ATOM     24  C   UNL     1       5.692   5.476  17.871  0.00  0.00    +0.000 C 
ATOM     25  O   UNL     1       6.499   6.252  18.388  0.00  0.00    +0.000 OA
BRANCH  24  26
ATOM     26  C   UNL     1       5.950   5.049  16.467  0.00  0.00    +0.000 A 
ATOM     27  C   UNL     1       4.952   4.358  15.771  0.00  0.00    +0.000 A 
ATOM     28  C   UNL     1       5.173   3.929  14.457  0.00  0.00    +0.000 A 
ATOM     29  C   UNL     1       6.403   4.184  13.850  0.00  0.00    +0.000 A 
ATOM     30 BR   UNL     1       6.711   3.600  12.079  0.00  0.00    +0.000 Br
ATOM     31  C   UNL     1       7.409   4.857  14.539  0.00  0.00    +0.000 A 
ATOM     32  C   UNL     1       7.188   5.284  15.846  0.00  0.00    +0.000 A 
ENDBRANCH  24  26
ENDBRANCH   2  24
TORSDOF 6
ENDMDL
MODEL 4
REMARK VINA RESULT:      -8.3      3.520      8.868
REMARK  Name = 
REMARK  8 active torsions:
REMARK  status: ('A' for Active; 'I' for Inactive)
REMARK    1  A    between atoms: C_1  and  C_2
REMARK    2  A    between atoms: C_6  and  C_7
REMARK    3  A    between atoms: C_8  and  O_9
REMARK    4  A    between atoms: O_9  and  C_10
REMARK    5  A    between atoms: C_10  and  C_11
REMARK    6  A    between atoms: N_13  and  C_14
REMARK    7  A    between atoms: C_15  and  C_16
REMARK    8  A    between atoms: C_16  and  C_18
REMARK                            x       y       z     vdW  Elec       q    Type
REMARK                         _______ _______ _______ _____ _____    ______ ____
ROOT
ATOM      1  C   UNL     1       3.135   5.492  18.639  0.00  0.00    +0.000 A 
ATOM      2  C   UNL     1       4.429   5.038  18.449  0.00  0.00    +0.000 A 
ATOM      3  O   UNL     1       4.633   3.919  19.220  0.00  0.00    +0.000 OA
ATOM      4  C   UNL     1       3.466   3.646  19.861  0.00  0.00    +0.000 A 
ATOM      5  C   UNL     1       3.262   2.584  20.739  0.00  0.00    +0.000 A 
ATOM      6  C   UNL     1       1.971   2.442  21.258  0.00  0.00    +0.000 A 
ATOM      7  C   UNL     1       0.950   3.326  20.899  0.00  0.00    +0.000 A 
ATOM      8  C   UNL     1       1.194   4.403  20.035  0.00  0.00    +0.000 A 
ATOM      9  C   UNL     1       2.492   4.575  19.516  0.00  0.00    +0.000 A 
ENDROOT
BRANCH   1  12
ATOM     10  C   UNL     1       2.236   7.695  18.930  0.00  0.00    +0.000 C 
ATOM     11  O   UNL     1       2.305   7.660  20.157  0.00  0.00    +0.000 OA
ATOM     12  N   UNL     1       2.605   6.650  18.088  0.00  0.00    +0.000 N 
ATOM     13  H   UNL     1       3.007   6.931  17.205  0.00  0.00    +0.000 HD
BRANCH  10  14
ATOM     14  C   UNL     1       1.764   8.938  18.171  0.00  0.00    +0.000 C 
BRANCH  14  15
ATOM     15  O   UNL     1       2.018  10.088  18.948  0.00  0.00    +0.000 OA
BRANCH  15  23
ATOM     16  C   UNL     1      -0.589   9.517  20.638  0.00  0.00    +0.000 C 
ATOM     17  C   UNL     1      -0.145  10.802  19.994  0.00  0.00    +0.000 A 
ATOM     18  C   UNL     1      -1.015  11.900  20.181  0.00  0.00    +0.000 A 
ATOM     19  C   UNL     1      -0.738  13.155  19.649  0.00  0.00    +0.000 A 
ATOM     20  C   UNL     1       0.419  13.344  18.911  0.00  0.00    +0.000 A 
ATOM     21  C   UNL     1       1.308  12.279  18.705  0.00  0.00    +0.000 A 
ATOM     22  C   UNL     1       2.553  12.532  17.891  0.00  0.00    +0.000 C 
ATOM     23  C   UNL     1       1.036  10.994  19.245  0.00  0.00    +0.000 A 
ENDBRANCH  15  23
ENDBRANCH  14  15
ENDBRANCH  10  14
ENDBRANCH   1  12
BRANCH   2  24
ATOM     24  C   UNL     1       5.541   5.593  17.715  0.00  0.00    +0.000 C 
ATOM     25  O   UNL     1       6.281   6.472  18.167  0.00  0.00    +0.000 OA
BRANCH  24  26
ATOM     26  C   UNL     1       5.837   5.079  16.349  0.00  0.00    +0.000 A 
ATOM     27  C   UNL     1       7.070   5.379  15.760  0.00  0.00    +0.000 A 
ATOM     28  C   UNL     1       7.368   4.924  14.471  0.00  0.00    +0.000 A 
ATOM     29  C   UNL     1       6.419   4.179  13.770  0.00  0.00    +0.000 A 
ATOM     30 BR   UNL     1       6.813   3.568  12.025  0.00  0.00    +0.000 Br
ATOM     31  C   UNL     1       5.183   3.888  14.340  0.00  0.00    +0.000 A 
ATOM     32  C   UNL     1       4.887   4.340  15.624  0.00  0.00    +0.000 A 
ENDBRANCH  24  26
ENDBRANCH   2  24
TORSDOF 6
ENDMDL
MODEL 5
REMARK VINA RESULT:      -8.3      3.796      8.763
REMARK  Name = 
REMARK  8 active torsions:
REMARK  status: ('A' for Active; 'I' for Inactive)
REMARK    1  A    between atoms: C_1  and  C_2
REMARK    2  A    between atoms: C_6  and  C_7
REMARK    3  A    between atoms: C_8  and  O_9
REMARK    4  A    between atoms: O_9  and  C_10
REMARK    5  A    between atoms: C_10  and  C_11
REMARK    6  A    between atoms: N_13  and  C_14
REMARK    7  A    between atoms: C_15  and  C_16
REMARK    8  A    between atoms: C_16  and  C_18
REMARK                            x       y       z     vdW  Elec       q    Type
REMARK                         _______ _______ _______ _____ _____    ______ ____
ROOT
ATOM      1  C   UNL     1       3.590   5.981  19.084  0.00  0.00    +0.000 A 
ATOM      2  C   UNL     1       4.633   5.384  18.395  0.00  0.00    +0.000 A 
ATOM      3  O   UNL     1       4.719   4.063  18.763  0.00  0.00    +0.000 OA
ATOM      4  C   UNL     1       3.716   3.818  19.647  0.00  0.00    +0.000 A 
ATOM      5  C   UNL     1       3.463   2.590  20.254  0.00  0.00    +0.000 A 
ATOM      6  C   UNL     1       2.349   2.528  21.097  0.00  0.00    +0.000 A 
ATOM      7  C   UNL     1       1.539   3.648  21.304  0.00  0.00    +0.000 A 
ATOM      8  C   UNL     1       1.837   4.879  20.701  0.00  0.00    +0.000 A 
ATOM      9  C   UNL     1       2.966   4.968  19.863  0.00  0.00    +0.000 A 
ENDROOT
BRANCH   1  12
ATOM     10  C   UNL     1       2.219   7.740  18.207  0.00  0.00    +0.000 C 
ATOM     11  O   UNL     1       1.569   6.994  17.477  0.00  0.00    +0.000 OA
ATOM     12  N   UNL     1       3.264   7.328  19.029  0.00  0.00    +0.000 N 
ATOM     13  H   UNL     1       3.346   7.828  19.903  0.00  0.00    +0.000 HD
BRANCH  10  14
ATOM     14  C   UNL     1       1.913   9.235  18.329  0.00  0.00    +0.000 C 
BRANCH  14  15
ATOM     15  O   UNL     1       0.548   9.413  18.638  0.00  0.00    +0.000 OA
BRANCH  15  23
ATOM     16  C   UNL     1       1.186   8.387  21.557  0.00  0.00    +0.000 C 
ATOM     17  C   UNL     1       0.394   9.593  21.134  0.00  0.00    +0.000 A 
ATOM     18  C   UNL     1      -0.128  10.372  22.192  0.00  0.00    +0.000 A 
ATOM     19  C   UNL     1      -0.879  11.519  21.958  0.00  0.00    +0.000 A 
ATOM     20  C   UNL     1      -1.132  11.917  20.656  0.00  0.00    +0.000 A 
ATOM     21  C   UNL     1      -0.630  11.172  19.579  0.00  0.00    +0.000 A 
ATOM     22  C   UNL     1      -0.935  11.641  18.178  0.00  0.00    +0.000 C 
ATOM     23  C   UNL     1       0.139   9.999  19.806  0.00  0.00    +0.000 A 
ENDBRANCH  15  23
ENDBRANCH  14  15
ENDBRANCH  10  14
ENDBRANCH   1  12
BRANCH   2  24
ATOM     24  C   UNL     1       5.635   5.931  17.513  0.00  0.00    +0.000 C 
ATOM     25  O   UNL     1       6.334   6.906  17.801  0.00  0.00    +0.000 OA
BRANCH  24  26
ATOM     26  C   UNL     1       5.865   5.286  16.189  0.00  0.00    +0.000 A 
ATOM     27  C   UNL     1       7.129   5.378  15.598  0.00  0.00    +0.000 A 
ATOM     28  C   UNL     1       7.369   4.798  14.347  0.00  0.00    +0.000 A 
ATOM     29  C   UNL     1       6.332   4.137  13.687  0.00  0.00    +0.000 A 
ATOM     30 BR   UNL     1       6.648   3.358  11.995  0.00  0.00    +0.000 Br
ATOM     31  C   UNL     1       5.066   4.053  14.260  0.00  0.00    +0.000 A 
ATOM     32  C   UNL     1       4.828   4.631  15.505  0.00  0.00    +0.000 A 
ENDBRANCH  24  26
ENDBRANCH   2  24
TORSDOF 6
ENDMDL
MODEL 6
REMARK VINA RESULT:      -8.2      3.702      8.766
REMARK  Name = 
REMARK  8 active torsions:
REMARK  status: ('A' for Active; 'I' for Inactive)
REMARK    1  A    between atoms: C_1  and  C_2
REMARK    2  A    between atoms: C_6  and  C_7
REMARK    3  A    between atoms: C_8  and  O_9
REMARK    4  A    between atoms: O_9  and  C_10
REMARK    5  A    between atoms: C_10  and  C_11
REMARK    6  A    between atoms: N_13  and  C_14
REMARK    7  A    between atoms: C_15  and  C_16
REMARK    8  A    between atoms: C_16  and  C_18
REMARK                            x       y       z     vdW  Elec       q    Type
REMARK                         _______ _______ _______ _____ _____    ______ ____
ROOT
ATOM      1  C   UNL     1       3.674   5.456  19.424  0.00  0.00    +0.000 A 
ATOM      2  C   UNL     1       4.819   4.843  18.945  0.00  0.00    +0.000 A 
ATOM      3  O   UNL     1       4.902   3.574  19.465  0.00  0.00    +0.000 OA
ATOM      4  C   UNL     1       3.800   3.375  20.235  0.00  0.00    +0.000 A 
ATOM      5  C   UNL     1       3.512   2.207  20.938  0.00  0.00    +0.000 A 
ATOM      6  C   UNL     1       2.299   2.179  21.632  0.00  0.00    +0.000 A 
ATOM      7  C   UNL     1       1.430   3.273  21.607  0.00  0.00    +0.000 A 
ATOM      8  C   UNL     1       1.761   4.446  20.914  0.00  0.00    +0.000 A 
ATOM      9  C   UNL     1       2.988   4.502  20.224  0.00  0.00    +0.000 A 
ENDROOT
BRANCH   1  12
ATOM     10  C   UNL     1       2.334   7.039  18.222  0.00  0.00    +0.000 C 
ATOM     11  O   UNL     1       1.780   6.185  17.532  0.00  0.00    +0.000 OA
ATOM     12  N   UNL     1       3.310   6.773  19.178  0.00  0.00    +0.000 N 
ATOM     13  H   UNL     1       3.294   7.375  19.988  0.00  0.00    +0.000 HD
BRANCH  10  14
ATOM     14  C   UNL     1       1.969   8.524  18.135  0.00  0.00    +0.000 C 
BRANCH  14  15
ATOM     15  O   UNL     1       1.833   9.053  19.436  0.00  0.00    +0.000 OA
BRANCH  15  23
ATOM     16  C   UNL     1       2.282  11.890  18.122  0.00  0.00    +0.000 C 
ATOM     17  C   UNL     1       1.249  11.472  19.131  0.00  0.00    +0.000 A 
ATOM     18  C   UNL     1       0.357  12.490  19.538  0.00  0.00    +0.000 A 
ATOM     19  C   UNL     1      -0.654  12.255  20.463  0.00  0.00    +0.000 A 
ATOM     20  C   UNL     1      -0.799  10.991  21.010  0.00  0.00    +0.000 A 
ATOM     21  C   UNL     1       0.065   9.953  20.631  0.00  0.00    +0.000 A 
ATOM     22  C   UNL     1      -0.128   8.594  21.258  0.00  0.00    +0.000 C 
ATOM     23  C   UNL     1       1.101  10.182  19.686  0.00  0.00    +0.000 A 
ENDBRANCH  15  23
ENDBRANCH  14  15
ENDBRANCH  10  14
ENDBRANCH   1  12
BRANCH   2  24
ATOM     24  C   UNL     1       5.910   5.342  18.143  0.00  0.00    +0.000 C 
ATOM     25  O   UNL     1       6.775   6.109  18.577  0.00  0.00    +0.000 OA
BRANCH  24  26
ATOM     26  C   UNL     1       6.025   4.907  16.723  0.00  0.00    +0.000 A 
ATOM     27  C   UNL     1       7.193   5.202  16.012  0.00  0.00    +0.000 A 
ATOM     28  C   UNL     1       7.321   4.822  14.671  0.00  0.00    +0.000 A 
ATOM     29  C   UNL     1       6.267   4.156  14.044  0.00  0.00    +0.000 A 
ATOM     30 BR   UNL     1       6.431   3.645  12.232  0.00  0.00    +0.000 Br
ATOM     31  C   UNL     1       5.094   3.871  14.738  0.00  0.00    +0.000 A 
ATOM     32  C   UNL     1       4.968   4.249  16.072  0.00  0.00    +0.000 A 
ENDBRANCH  24  26
ENDBRANCH   2  24
TORSDOF 6
ENDMDL
MODEL 7
REMARK VINA RESULT:      -8.2      0.577      1.556
REMARK  Name = 
REMARK  8 active torsions:
REMARK  status: ('A' for Active; 'I' for Inactive)
REMARK    1  A    between atoms: C_1  and  C_2
REMARK    2  A    between atoms: C_6  and  C_7
REMARK    3  A    between atoms: C_8  and  O_9
REMARK    4  A    between atoms: O_9  and  C_10
REMARK    5  A    between atoms: C_10  and  C_11
REMARK    6  A    between atoms: N_13  and  C_14
REMARK    7  A    between atoms: C_15  and  C_16
REMARK    8  A    between atoms: C_16  and  C_18
REMARK                            x       y       z     vdW  Elec       q    Type
REMARK                         _______ _______ _______ _____ _____    ______ ____
ROOT
ATOM      1  C   UNL     1       0.030  10.539  18.387  0.00  0.00    +0.000 A 
ATOM      2  C   UNL     1       0.053  11.349  19.509  0.00  0.00    +0.000 A 
ATOM      3  O   UNL     1      -1.203  11.866  19.719  0.00  0.00    +0.000 OA
ATOM      4  C   UNL     1      -2.020  11.356  18.760  0.00  0.00    +0.000 A 
ATOM      5  C   UNL     1      -3.378  11.638  18.629  0.00  0.00    +0.000 A 
ATOM      6  C   UNL     1      -4.058  10.971  17.605  0.00  0.00    +0.000 A 
ATOM      7  C   UNL     1      -3.396  10.068  16.769  0.00  0.00    +0.000 A 
ATOM      8  C   UNL     1      -2.021   9.827  16.908  0.00  0.00    +0.000 A 
ATOM      9  C   UNL     1      -1.313  10.504  17.921  0.00  0.00    +0.000 A 
ENDROOT
BRANCH   1  12
ATOM     10  C   UNL     1       1.717   8.839  18.486  0.00  0.00    +0.000 C 
ATOM     11  O   UNL     1       1.342   8.402  19.573  0.00  0.00    +0.000 OA
ATOM     12  N   UNL     1       1.138   9.919  17.826  0.00  0.00    +0.000 N 
ATOM     13  H   UNL     1       1.132   9.853  16.819  0.00  0.00    +0.000 HD
BRANCH  10  14
ATOM     14  C   UNL     1       2.863   8.199  17.698  0.00  0.00    +0.000 C 
BRANCH  14  15
ATOM     15  O   UNL     1       3.405   7.129  18.441  0.00  0.00    +0.000 OA
BRANCH  15  23
ATOM     16  C   UNL     1       1.530   4.589  18.316  0.00  0.00    +0.000 C 
ATOM     17  C   UNL     1       2.921   4.762  17.771  0.00  0.00    +0.000 A 
ATOM     18  C   UNL     1       3.452   3.633  17.108  0.00  0.00    +0.000 A 
ATOM     19  C   UNL     1       4.725   3.640  16.548  0.00  0.00    +0.000 A 
ATOM     20  C   UNL     1       5.504   4.782  16.639  0.00  0.00    +0.000 A 
ATOM     21  C   UNL     1       5.012   5.924  17.288  0.00  0.00    +0.000 A 
ATOM     22  C   UNL     1       5.899   7.142  17.366  0.00  0.00    +0.000 C 
ATOM     23  C   UNL     1       3.713   5.927  17.862  0.00  0.00    +0.000 A 
ENDBRANCH  15  23
ENDBRANCH  14  15
ENDBRANCH  10  14
ENDBRANCH   1  12
BRANCH   2  24
ATOM     24  C   UNL     1       1.140  11.792  20.350  0.00  0.00    +0.000 C 
ATOM     25  O   UNL     1       1.414  11.269  21.434  0.00  0.00    +0.000 OA
BRANCH  24  26
ATOM     26  C   UNL     1       1.994  12.924  19.894  0.00  0.00    +0.000 A 
ATOM     27  C   UNL     1       2.725  13.649  20.841  0.00  0.00    +0.000 A 
ATOM     28  C   UNL     1       3.522  14.729  20.444  0.00  0.00    +0.000 A 
ATOM     29  C   UNL     1       3.573  15.085  19.096  0.00  0.00    +0.000 A 
ATOM     30 BR   UNL     1       4.642  16.546  18.554  0.00  0.00    +0.000 Br
ATOM     31  C   UNL     1       2.838  14.378  18.147  0.00  0.00    +0.000 A 
ATOM     32  C   UNL     1       2.045  13.304  18.543  0.00  0.00    +0.000 A 
ENDBRANCH  24  26
ENDBRANCH   2  24
TORSDOF 6
ENDMDL
MODEL 8
REMARK VINA RESULT:      -8.1      0.679      1.031
REMARK  Name = 
REMARK  8 active torsions:
REMARK  status: ('A' for Active; 'I' for Inactive)
REMARK    1  A    between atoms: C_1  and  C_2
REMARK    2  A    between atoms: C_6  and  C_7
REMARK    3  A    between atoms: C_8  and  O_9
REMARK    4  A    between atoms: O_9  and  C_10
REMARK    5  A    between atoms: C_10  and  C_11
REMARK    6  A    between atoms: N_13  and  C_14
REMARK    7  A    between atoms: C_15  and  C_16
REMARK    8  A    between atoms: C_16  and  C_18
REMARK                            x       y       z     vdW  Elec       q    Type
REMARK                         _______ _______ _______ _____ _____    ______ ____
ROOT
ATOM      1  C   UNL     1      -0.089  10.638  18.509  0.00  0.00    +0.000 A 
ATOM      2  C   UNL     1      -0.082  11.484  19.605  0.00  0.00    +0.000 A 
ATOM      3  O   UNL     1      -1.334  12.031  19.761  0.00  0.00    +0.000 OA
ATOM      4  C   UNL     1      -2.132  11.504  18.796  0.00  0.00    +0.000 A 
ATOM      5  C   UNL     1      -3.481  11.806  18.616  0.00  0.00    +0.000 A 
ATOM      6  C   UNL     1      -4.144  11.119  17.596  0.00  0.00    +0.000 A 
ATOM      7  C   UNL     1      -3.476  10.177  16.809  0.00  0.00    +0.000 A 
ATOM      8  C   UNL     1      -2.111   9.916  16.995  0.00  0.00    +0.000 A 
ATOM      9  C   UNL     1      -1.419  10.612  18.005  0.00  0.00    +0.000 A 
ENDROOT
BRANCH   1  12
ATOM     10  C   UNL     1       1.581   8.933  18.728  0.00  0.00    +0.000 C 
ATOM     11  O   UNL     1       1.186   8.559  19.830  0.00  0.00    +0.000 OA
ATOM     12  N   UNL     1       1.022   9.980  18.001  0.00  0.00    +0.000 N 
ATOM     13  H   UNL     1       1.031   9.860  16.998  0.00  0.00    +0.000 HD
BRANCH  10  14
ATOM     14  C   UNL     1       2.734   8.242  17.994  0.00  0.00    +0.000 C 
BRANCH  14  15
ATOM     15  O   UNL     1       2.464   6.862  17.885  0.00  0.00    +0.000 OA
BRANCH  15  23
ATOM     16  C   UNL     1       5.031   6.514  16.077  0.00  0.00    +0.000 C 
ATOM     17  C   UNL     1       4.608   5.714  17.278  0.00  0.00    +0.000 A 
ATOM     18  C   UNL     1       5.487   4.669  17.645  0.00  0.00    +0.000 A 
ATOM     19  C   UNL     1       5.232   3.844  18.735  0.00  0.00    +0.000 A 
ATOM     20  C   UNL     1       4.087   4.041  19.488  0.00  0.00    +0.000 A 
ATOM     21  C   UNL     1       3.190   5.068  19.157  0.00  0.00    +0.000 A 
ATOM     22  C   UNL     1       1.953   5.241  20.003  0.00  0.00    +0.000 C 
ATOM     23  C   UNL     1       3.441   5.917  18.046  0.00  0.00    +0.000 A 
ENDBRANCH  15  23
ENDBRANCH  14  15
ENDBRANCH  10  14
ENDBRANCH   1  12
BRANCH   2  24
ATOM     24  C   UNL     1       0.988  11.934  20.462  0.00  0.00    +0.000 C 
ATOM     25  O   UNL     1       1.263  11.400  21.540  0.00  0.00    +0.000 OA
BRANCH  24  26
ATOM     26  C   UNL     1       1.825  13.088  20.032  0.00  0.00    +0.000 A 
ATOM     27  C   UNL     1       2.458  13.044  18.785  0.00  0.00    +0.000 A 
ATOM     28  C   UNL     1       3.265  14.106  18.362  0.00  0.00    +0.000 A 
ATOM     29  C   UNL     1       3.444  15.207  19.201  0.00  0.00    +0.000 A 
ATOM     30 BR   UNL     1       4.539  16.642  18.639  0.00  0.00    +0.000 Br
ATOM     31  C   UNL     1       2.831  15.255  20.450  0.00  0.00    +0.000 A 
ATOM     32  C   UNL     1       2.028  14.198  20.870  0.00  0.00    +0.000 A 
ENDBRANCH  24  26
ENDBRANCH   2  24
TORSDOF 6
ENDMDL
MODEL 9
REMARK VINA RESULT:      -8.1      3.618      6.619
REMARK  Name = 
REMARK  8 active torsions:
REMARK  status: ('A' for Active; 'I' for Inactive)
REMARK    1  A    between atoms: C_1  and  C_2
REMARK    2  A    between atoms: C_6  and  C_7
REMARK    3  A    between atoms: C_8  and  O_9
REMARK    4  A    between atoms: O_9  and  C_10
REMARK    5  A    between atoms: C_10  and  C_11
REMARK    6  A    between atoms: N_13  and  C_14
REMARK    7  A    between atoms: C_15  and  C_16
REMARK    8  A    between atoms: C_16  and  C_18
REMARK                            x       y       z     vdW  Elec       q    Type
REMARK                         _______ _______ _______ _____ _____    ______ ____
ROOT
ATOM      1  C   UNL     1       3.692   5.884  18.351  0.00  0.00    +0.000 A 
ATOM      2  C   UNL     1       2.741   6.719  18.913  0.00  0.00    +0.000 A 
ATOM      3  O   UNL     1       2.093   6.049  19.923  0.00  0.00    +0.000 OA
ATOM      4  C   UNL     1       2.657   4.816  20.023  0.00  0.00    +0.000 A 
ATOM      5  C   UNL     1       2.279   3.831  20.934  0.00  0.00    +0.000 A 
ATOM      6  C   UNL     1       3.018   2.645  20.913  0.00  0.00    +0.000 A 
ATOM      7  C   UNL     1       4.080   2.474  20.022  0.00  0.00    +0.000 A 
ATOM      8  C   UNL     1       4.419   3.472  19.097  0.00  0.00    +0.000 A 
ATOM      9  C   UNL     1       3.674   4.668  19.089  0.00  0.00    +0.000 A 
ENDROOT
BRANCH   1  12
ATOM     10  C   UNL     1       5.856   6.304  17.408  0.00  0.00    +0.000 C 
ATOM     11  O   UNL     1       6.447   6.183  18.480  0.00  0.00    +0.000 OA
ATOM     12  N   UNL     1       4.477   6.195  17.250  0.00  0.00    +0.000 N 
ATOM     13  H   UNL     1       4.176   5.787  16.376  0.00  0.00    +0.000 HD
BRANCH  10  14
ATOM     14  C   UNL     1       6.593   6.551  16.090  0.00  0.00    +0.000 C 
BRANCH  14  15
ATOM     15  O   UNL     1       7.216   5.357  15.667  0.00  0.00    +0.000 OA
BRANCH  15  23
ATOM     16  C   UNL     1       8.814   6.141  13.057  0.00  0.00    +0.000 C 
ATOM     17  C   UNL     1       7.698   5.146  13.216  0.00  0.00    +0.000 A 
ATOM     18  C   UNL     1       7.323   4.468  12.034  0.00  0.00    +0.000 A 
ATOM     19  C   UNL     1       6.308   3.517  12.023  0.00  0.00    +0.000 A 
ATOM     20  C   UNL     1       5.639   3.219  13.198  0.00  0.00    +0.000 A 
ATOM     21  C   UNL     1       5.983   3.868  14.393  0.00  0.00    +0.000 A 
ATOM     22  C   UNL     1       5.222   3.514  15.646  0.00  0.00    +0.000 C 
ATOM     23  C   UNL     1       7.018   4.841  14.415  0.00  0.00    +0.000 A 
ENDBRANCH  15  23
ENDBRANCH  14  15
ENDBRANCH  10  14
ENDBRANCH   1  12
BRANCH   2  24
ATOM     24  C   UNL     1       2.284   8.037  18.544  0.00  0.00    +0.000 C 
ATOM     25  O   UNL     1       2.501   8.546  17.442  0.00  0.00    +0.000 OA
BRANCH  24  26
ATOM     26  C   UNL     1       1.494   8.831  19.526  0.00  0.00    +0.000 A 
ATOM     27  C   UNL     1       1.488   8.443  20.870  0.00  0.00    +0.000 A 
ATOM     28  C   UNL     1       0.740   9.159  21.811  0.00  0.00    +0.000 A 
ATOM     29  C   UNL     1      -0.012  10.259  21.396  0.00  0.00    +0.000 A 
ATOM     30 BR   UNL     1      -1.030  11.226  22.660  0.00  0.00    +0.000 Br
ATOM     31  C   UNL     1      -0.026  10.645  20.058  0.00  0.00    +0.000 A 
ATOM     32  C   UNL     1       0.719   9.932  19.122  0.00  0.00    +0.000 A 
ENDBRANCH  24  26
ENDBRANCH   2  24
TORSDOF 6
ENDMDL
