MODEL 1
REMARK VINA RESULT:      -7.7      0.000      0.000
REMARK  Name = 
REMARK  2 active torsions:
REMARK  status: ('A' for Active; 'I' for Inactive)
REMARK    1  A    between atoms: C_2  and  C_3
REMARK    2  A    between atoms: C_9  and  C_10
REMARK                            x       y       z     vdW  Elec       q    Type
REMARK                         _______ _______ _______ _____ _____    ______ ____
ROOT
ATOM      1  C   UNL     1       4.443   5.474  18.635  0.00  0.00    +0.000 A 
ATOM      2  C   UNL     1       5.054   4.209  18.805  0.00  0.00    +0.000 A 
ATOM      3  N   UNL     1       6.295   3.890  18.251  0.00  0.00    +0.000 N 
ATOM      4  N   UNL     1       4.465   3.183  19.442  0.00  0.00    +0.000 NA
ATOM      5  C   UNL     1       3.244   3.425  19.936  0.00  0.00    +0.000 A 
ATOM      6  C   UNL     1       2.565   4.640  19.843  0.00  0.00    +0.000 A 
ATOM      7  C   UNL     1       3.155   5.732  19.187  0.00  0.00    +0.000 A 
ATOM      8  C   UNL     1       1.202   4.485  20.459  0.00  0.00    +0.000 C 
ATOM      9  C   UNL     1       1.342   3.201  21.285  0.00  0.00    +0.000 C 
ATOM     10  C   UNL     1       2.411   2.360  20.591  0.00  0.00    +0.000 C 
ATOM     11  H   UNL     1       7.025   4.559  18.468  0.00  0.00    +0.000 HD
ATOM     12  H   UNL     1       6.531   2.947  18.555  0.00  0.00    +0.000 HD
ENDROOT
BRANCH   7  13
ATOM     13  C   UNL     1       2.466   7.058  19.079  0.00  0.00    +0.000 A 
ATOM     14  C   UNL     1       2.314   7.729  17.849  0.00  0.00    +0.000 A 
ATOM     15  C   UNL     1       1.629   8.947  17.744  0.00  0.00    +0.000 A 
ATOM     16  C   UNL     1       1.136   9.571  18.883  0.00  0.00    +0.000 A 
ATOM     17  C   UNL     1       1.305   8.962  20.117  0.00  0.00    +0.000 A 
ATOM     18  C   UNL     1       1.932   7.712  20.205  0.00  0.00    +0.000 A 
ENDBRANCH   7  13
BRANCH   1  20
ATOM     19  N   UNL     1       5.783   7.196  17.225  0.00  0.00    +0.000 NA
ATOM     20  C   UNL     1       5.170   6.455  17.874  0.00  0.00    +0.000 C 
ENDBRANCH   1  20
TORSDOF 2
ENDMDL
MODEL 2
REMARK VINA RESULT:      -7.7      0.023      1.128
REMARK  Name = 
REMARK  2 active torsions:
REMARK  status: ('A' for Active; 'I' for Inactive)
REMARK    1  A    between atoms: C_2  and  C_3
REMARK    2  A    between atoms: C_9  and  C_10
REMARK                            x       y       z     vdW  Elec       q    Type
REMARK                         _______ _______ _______ _____ _____    ______ ____
ROOT
ATOM      1  C   UNL     1       4.434   5.471  18.655  0.00  0.00    +0.000 A 
ATOM      2  C   UNL     1       5.049   4.208  18.826  0.00  0.00    +0.000 A 
ATOM      3  N   UNL     1       6.290   3.893  18.272  0.00  0.00    +0.000 N 
ATOM      4  N   UNL     1       4.463   3.180  19.464  0.00  0.00    +0.000 NA
ATOM      5  C   UNL     1       3.241   3.419  19.957  0.00  0.00    +0.000 A 
ATOM      6  C   UNL     1       2.558   4.631  19.864  0.00  0.00    +0.000 A 
ATOM      7  C   UNL     1       3.145   5.725  19.207  0.00  0.00    +0.000 A 
ATOM      8  C   UNL     1       1.196   4.472  20.479  0.00  0.00    +0.000 C 
ATOM      9  C   UNL     1       1.340   3.190  21.307  0.00  0.00    +0.000 C 
ATOM     10  C   UNL     1       2.412   2.351  20.613  0.00  0.00    +0.000 C 
ATOM     11  H   UNL     1       7.018   4.564  18.489  0.00  0.00    +0.000 HD
ATOM     12  H   UNL     1       6.530   2.951  18.578  0.00  0.00    +0.000 HD
ENDROOT
BRANCH   7  13
ATOM     13  C   UNL     1       2.452   7.049  19.098  0.00  0.00    +0.000 A 
ATOM     14  C   UNL     1       1.915   7.711  20.221  0.00  0.00    +0.000 A 
ATOM     15  C   UNL     1       1.308   8.971  20.123  0.00  0.00    +0.000 A 
ATOM     16  C   UNL     1       1.152   9.576  18.883  0.00  0.00    +0.000 A 
ATOM     17  C   UNL     1       1.630   8.934  17.749  0.00  0.00    +0.000 A 
ATOM     18  C   UNL     1       2.296   7.707  17.864  0.00  0.00    +0.000 A 
ENDBRANCH   7  13
BRANCH   1  20
ATOM     19  N   UNL     1       5.776   7.196  17.253  0.00  0.00    +0.000 NA
ATOM     20  C   UNL     1       5.157   6.454  17.894  0.00  0.00    +0.000 C 
ENDBRANCH   1  20
TORSDOF 2
ENDMDL
MODEL 3
REMARK VINA RESULT:      -7.6      1.506      1.575
REMARK  Name = 
REMARK  2 active torsions:
REMARK  status: ('A' for Active; 'I' for Inactive)
REMARK    1  A    between atoms: C_2  and  C_3
REMARK    2  A    between atoms: C_9  and  C_10
REMARK                            x       y       z     vdW  Elec       q    Type
REMARK                         _______ _______ _______ _____ _____    ______ ____
ROOT
ATOM      1  C   UNL     1       4.670   5.485  17.496  0.00  0.00    +0.000 A 
ATOM      2  C   UNL     1       5.239   4.234  17.161  0.00  0.00    +0.000 A 
ATOM      3  N   UNL     1       6.524   4.106  16.633  0.00  0.00    +0.000 N 
ATOM      4  N   UNL     1       4.570   3.071  17.247  0.00  0.00    +0.000 NA
ATOM      5  C   UNL     1       3.310   3.153  17.691  0.00  0.00    +0.000 A 
ATOM      6  C   UNL     1       2.665   4.331  18.067  0.00  0.00    +0.000 A 
ATOM      7  C   UNL     1       3.337   5.561  17.993  0.00  0.00    +0.000 A 
ATOM      8  C   UNL     1       1.243   4.011  18.438  0.00  0.00    +0.000 C 
ATOM      9  C   UNL     1       1.276   2.492  18.647  0.00  0.00    +0.000 C 
ATOM     10  C   UNL     1       2.396   1.962  17.755  0.00  0.00    +0.000 C 
ATOM     11  H   UNL     1       7.240   4.576  17.176  0.00  0.00    +0.000 HD
ATOM     12  H   UNL     1       6.713   3.111  16.525  0.00  0.00    +0.000 HD
ENDROOT
BRANCH   7  13
ATOM     13  C   UNL     1       2.685   6.847  18.402  0.00  0.00    +0.000 A 
ATOM     14  C   UNL     1       2.417   7.881  17.482  0.00  0.00    +0.000 A 
ATOM     15  C   UNL     1       1.765   9.063  17.859  0.00  0.00    +0.000 A 
ATOM     16  C   UNL     1       1.427   9.280  19.188  0.00  0.00    +0.000 A 
ATOM     17  C   UNL     1       1.714   8.303  20.130  0.00  0.00    +0.000 A 
ATOM     18  C   UNL     1       2.304   7.095  19.734  0.00  0.00    +0.000 A 
ENDBRANCH   7  13
BRANCH   1  20
ATOM     19  N   UNL     1       6.184   7.555  17.084  0.00  0.00    +0.000 NA
ATOM     20  C   UNL     1       5.488   6.652  17.291  0.00  0.00    +0.000 C 
ENDBRANCH   1  20
TORSDOF 2
ENDMDL
MODEL 4
REMARK VINA RESULT:      -7.6      1.504      1.920
REMARK  Name = 
REMARK  2 active torsions:
REMARK  status: ('A' for Active; 'I' for Inactive)
REMARK    1  A    between atoms: C_2  and  C_3
REMARK    2  A    between atoms: C_9  and  C_10
REMARK                            x       y       z     vdW  Elec       q    Type
REMARK                         _______ _______ _______ _____ _____    ______ ____
ROOT
ATOM      1  C   UNL     1       4.684   5.488  17.505  0.00  0.00    +0.000 A 
ATOM      2  C   UNL     1       5.260   4.240  17.172  0.00  0.00    +0.000 A 
ATOM      3  N   UNL     1       6.548   4.118  16.649  0.00  0.00    +0.000 N 
ATOM      4  N   UNL     1       4.595   3.074  17.251  0.00  0.00    +0.000 NA
ATOM      5  C   UNL     1       3.331   3.151  17.688  0.00  0.00    +0.000 A 
ATOM      6  C   UNL     1       2.680   4.325  18.064  0.00  0.00    +0.000 A 
ATOM      7  C   UNL     1       3.348   5.558  17.995  0.00  0.00    +0.000 A 
ATOM      8  C   UNL     1       1.258   3.999  18.427  0.00  0.00    +0.000 C 
ATOM      9  C   UNL     1       1.295   2.480  18.633  0.00  0.00    +0.000 C 
ATOM     10  C   UNL     1       2.421   1.956  17.745  0.00  0.00    +0.000 C 
ATOM     11  H   UNL     1       7.259   4.589  17.197  0.00  0.00    +0.000 HD
ATOM     12  H   UNL     1       6.740   3.123  16.541  0.00  0.00    +0.000 HD
ENDROOT
BRANCH   7  13
ATOM     13  C   UNL     1       2.690   6.840  18.404  0.00  0.00    +0.000 A 
ATOM     14  C   UNL     1       2.292   7.092  19.733  0.00  0.00    +0.000 A 
ATOM     15  C   UNL     1       1.718   8.310  20.121  0.00  0.00    +0.000 A 
ATOM     16  C   UNL     1       1.456   9.291  19.175  0.00  0.00    +0.000 A 
ATOM     17  C   UNL     1       1.794   9.063  17.849  0.00  0.00    +0.000 A 
ATOM     18  C   UNL     1       2.429   7.870  17.480  0.00  0.00    +0.000 A 
ENDBRANCH   7  13
BRANCH   1  20
ATOM     19  N   UNL     1       6.187   7.567  17.100  0.00  0.00    +0.000 NA
ATOM     20  C   UNL     1       5.499   6.658  17.308  0.00  0.00    +0.000 C 
ENDBRANCH   1  20
TORSDOF 2
ENDMDL
MODEL 5
REMARK VINA RESULT:      -7.5      2.129      5.153
REMARK  Name = 
REMARK  2 active torsions:
REMARK  status: ('A' for Active; 'I' for Inactive)
REMARK    1  A    between atoms: C_2  and  C_3
REMARK    2  A    between atoms: C_9  and  C_10
REMARK                            x       y       z     vdW  Elec       q    Type
REMARK                         _______ _______ _______ _____ _____    ______ ____
ROOT
ATOM      1  C   UNL     1       3.609   4.365  19.609  0.00  0.00    +0.000 A 
ATOM      2  C   UNL     1       2.620   4.768  20.538  0.00  0.00    +0.000 A 
ATOM      3  N   UNL     1       2.183   3.947  21.578  0.00  0.00    +0.000 N 
ATOM      4  N   UNL     1       1.960   5.936  20.455  0.00  0.00    +0.000 NA
ATOM      5  C   UNL     1       2.303   6.730  19.433  0.00  0.00    +0.000 A 
ATOM      6  C   UNL     1       3.278   6.437  18.479  0.00  0.00    +0.000 A 
ATOM      7  C   UNL     1       3.987   5.227  18.540  0.00  0.00    +0.000 A 
ATOM      8  C   UNL     1       3.315   7.546  17.464  0.00  0.00    +0.000 C 
ATOM      9  C   UNL     1       2.575   8.686  18.173  0.00  0.00    +0.000 C 
ATOM     10  C   UNL     1       1.598   8.024  19.142  0.00  0.00    +0.000 C 
ATOM     11  H   UNL     1       2.934   3.574  22.149  0.00  0.00    +0.000 HD
ATOM     12  H   UNL     1       1.511   4.481  22.126  0.00  0.00    +0.000 HD
ENDROOT
BRANCH   7  13
ATOM     13  C   UNL     1       5.052   4.882  17.544  0.00  0.00    +0.000 A 
ATOM     14  C   UNL     1       4.751   4.339  16.278  0.00  0.00    +0.000 A 
ATOM     15  C   UNL     1       5.747   4.060  15.331  0.00  0.00    +0.000 A 
ATOM     16  C   UNL     1       7.085   4.247  15.650  0.00  0.00    +0.000 A 
ATOM     17  C   UNL     1       7.422   4.738  16.903  0.00  0.00    +0.000 A 
ATOM     18  C   UNL     1       6.418   5.079  17.819  0.00  0.00    +0.000 A 
ENDBRANCH   7  13
BRANCH   1  20
ATOM     19  N   UNL     1       4.633   2.011  20.002  0.00  0.00    +0.000 NA
ATOM     20  C   UNL     1       4.183   3.058  19.790  0.00  0.00    +0.000 C 
ENDBRANCH   1  20
TORSDOF 2
ENDMDL
MODEL 6
REMARK VINA RESULT:      -7.5      2.127      5.217
REMARK  Name = 
REMARK  2 active torsions:
REMARK  status: ('A' for Active; 'I' for Inactive)
REMARK    1  A    between atoms: C_2  and  C_3
REMARK    2  A    between atoms: C_9  and  C_10
REMARK                            x       y       z     vdW  Elec       q    Type
REMARK                         _______ _______ _______ _____ _____    ______ ____
ROOT
ATOM      1  C   UNL     1       3.582   4.373  19.622  0.00  0.00    +0.000 A 
ATOM      2  C   UNL     1       2.589   4.776  20.545  0.00  0.00    +0.000 A 
ATOM      3  N   UNL     1       2.140   3.952  21.578  0.00  0.00    +0.000 N 
ATOM      4  N   UNL     1       1.934   5.947  20.463  0.00  0.00    +0.000 NA
ATOM      5  C   UNL     1       2.288   6.744  19.447  0.00  0.00    +0.000 A 
ATOM      6  C   UNL     1       3.269   6.452  18.499  0.00  0.00    +0.000 A 
ATOM      7  C   UNL     1       3.972   5.238  18.559  0.00  0.00    +0.000 A 
ATOM      8  C   UNL     1       3.318   7.565  17.489  0.00  0.00    +0.000 C 
ATOM      9  C   UNL     1       2.578   8.705  18.198  0.00  0.00    +0.000 C 
ATOM     10  C   UNL     1       1.591   8.043  19.157  0.00  0.00    +0.000 C 
ATOM     11  H   UNL     1       2.885   3.573  22.152  0.00  0.00    +0.000 HD
ATOM     12  H   UNL     1       1.466   4.487  22.124  0.00  0.00    +0.000 HD
ENDROOT
BRANCH   7  13
ATOM     13  C   UNL     1       5.043   4.893  17.570  0.00  0.00    +0.000 A 
ATOM     14  C   UNL     1       6.412   5.076  17.849  0.00  0.00    +0.000 A 
ATOM     15  C   UNL     1       7.414   4.708  16.939  0.00  0.00    +0.000 A 
ATOM     16  C   UNL     1       7.073   4.213  15.687  0.00  0.00    +0.000 A 
ATOM     17  C   UNL     1       5.733   4.060  15.360  0.00  0.00    +0.000 A 
ATOM     18  C   UNL     1       4.740   4.365  16.300  0.00  0.00    +0.000 A 
ENDBRANCH   7  13
BRANCH   1  20
ATOM     19  N   UNL     1       4.665   2.036  19.960  0.00  0.00    +0.000 NA
ATOM     20  C   UNL     1       4.149   3.062  19.800  0.00  0.00    +0.000 C 
ENDBRANCH   1  20
TORSDOF 2
ENDMDL
MODEL 7
REMARK VINA RESULT:      -7.4      1.859      3.799
REMARK  Name = 
REMARK  2 active torsions:
REMARK  status: ('A' for Active; 'I' for Inactive)
REMARK    1  A    between atoms: C_2  and  C_3
REMARK    2  A    between atoms: C_9  and  C_10
REMARK                            x       y       z     vdW  Elec       q    Type
REMARK                         _______ _______ _______ _____ _____    ______ ____
ROOT
ATOM      1  C   UNL     1       2.544   4.167  18.502  0.00  0.00    +0.000 A 
ATOM      2  C   UNL     1       3.107   2.973  17.993  0.00  0.00    +0.000 A 
ATOM      3  N   UNL     1       2.690   1.706  18.404  0.00  0.00    +0.000 N 
ATOM      4  N   UNL     1       4.140   2.951  17.133  0.00  0.00    +0.000 NA
ATOM      5  C   UNL     1       4.614   4.146  16.758  0.00  0.00    +0.000 A 
ATOM      6  C   UNL     1       4.117   5.378  17.183  0.00  0.00    +0.000 A 
ATOM      7  C   UNL     1       3.036   5.435  18.078  0.00  0.00    +0.000 A 
ATOM      8  C   UNL     1       4.961   6.474  16.594  0.00  0.00    +0.000 C 
ATOM      9  C   UNL     1       5.708   5.761  15.461  0.00  0.00    +0.000 C 
ATOM     10  C   UNL     1       5.823   4.297  15.879  0.00  0.00    +0.000 C 
ATOM     11  H   UNL     1       1.689   1.564  18.342  0.00  0.00    +0.000 HD
ATOM     12  H   UNL     1       3.212   1.022  17.860  0.00  0.00    +0.000 HD
ENDROOT
BRANCH   7  13
ATOM     13  C   UNL     1       2.463   6.737  18.546  0.00  0.00    +0.000 A 
ATOM     14  C   UNL     1       2.120   7.772  17.654  0.00  0.00    +0.000 A 
ATOM     15  C   UNL     1       1.540   8.972  18.091  0.00  0.00    +0.000 A 
ATOM     16  C   UNL     1       1.353   9.203  19.447  0.00  0.00    +0.000 A 
ATOM     17  C   UNL     1       1.719   8.224  20.359  0.00  0.00    +0.000 A 
ATOM     18  C   UNL     1       2.234   7.001  19.910  0.00  0.00    +0.000 A 
ENDBRANCH   7  13
BRANCH   1  20
ATOM     19  N   UNL     1       0.658   3.865  20.263  0.00  0.00    +0.000 NA
ATOM     20  C   UNL     1       1.483   4.031  19.465  0.00  0.00    +0.000 C 
ENDBRANCH   1  20
TORSDOF 2
ENDMDL
MODEL 8
REMARK VINA RESULT:      -7.4      1.864      3.957
REMARK  Name = 
REMARK  2 active torsions:
REMARK  status: ('A' for Active; 'I' for Inactive)
REMARK    1  A    between atoms: C_2  and  C_3
REMARK    2  A    between atoms: C_9  and  C_10
REMARK                            x       y       z     vdW  Elec       q    Type
REMARK                         _______ _______ _______ _____ _____    ______ ____
ROOT
ATOM      1  C   UNL     1       2.548   4.161  18.476  0.00  0.00    +0.000 A 
ATOM      2  C   UNL     1       3.116   2.975  17.956  0.00  0.00    +0.000 A 
ATOM      3  N   UNL     1       2.699   1.703  18.351  0.00  0.00    +0.000 N 
ATOM      4  N   UNL     1       4.155   2.964  17.103  0.00  0.00    +0.000 NA
ATOM      5  C   UNL     1       4.630   4.163  16.746  0.00  0.00    +0.000 A 
ATOM      6  C   UNL     1       4.128   5.390  17.181  0.00  0.00    +0.000 A 
ATOM      7  C   UNL     1       3.042   5.435  18.070  0.00  0.00    +0.000 A 
ATOM      8  C   UNL     1       4.975   6.494  16.610  0.00  0.00    +0.000 C 
ATOM      9  C   UNL     1       5.730   5.795  15.474  0.00  0.00    +0.000 C 
ATOM     10  C   UNL     1       5.845   4.326  15.876  0.00  0.00    +0.000 C 
ATOM     11  H   UNL     1       1.698   1.560  18.281  0.00  0.00    +0.000 HD
ATOM     12  H   UNL     1       3.226   1.025  17.802  0.00  0.00    +0.000 HD
ENDROOT
BRANCH   7  13
ATOM     13  C   UNL     1       2.463   6.731  18.549  0.00  0.00    +0.000 A 
ATOM     14  C   UNL     1       2.231   6.992  19.915  0.00  0.00    +0.000 A 
ATOM     15  C   UNL     1       1.733   8.223  20.364  0.00  0.00    +0.000 A 
ATOM     16  C   UNL     1       1.380   9.208  19.451  0.00  0.00    +0.000 A 
ATOM     17  C   UNL     1       1.554   8.971  18.096  0.00  0.00    +0.000 A 
ATOM     18  C   UNL     1       2.116   7.764  17.658  0.00  0.00    +0.000 A 
ENDBRANCH   7  13
BRANCH   1  20
ATOM     19  N   UNL     1       0.650   3.836  20.219  0.00  0.00    +0.000 NA
ATOM     20  C   UNL     1       1.482   4.014  19.430  0.00  0.00    +0.000 C 
ENDBRANCH   1  20
TORSDOF 2
ENDMDL
MODEL 9
REMARK VINA RESULT:      -6.9      1.709      3.765
REMARK  Name = 
REMARK  2 active torsions:
REMARK  status: ('A' for Active; 'I' for Inactive)
REMARK    1  A    between atoms: C_2  and  C_3
REMARK    2  A    between atoms: C_9  and  C_10
REMARK                            x       y       z     vdW  Elec       q    Type
REMARK                         _______ _______ _______ _____ _____    ______ ____
ROOT
ATOM      1  C   UNL     1       3.243   4.311  18.206  0.00  0.00    +0.000 A 
ATOM      2  C   UNL     1       4.068   3.240  17.790  0.00  0.00    +0.000 A 
ATOM      3  N   UNL     1       3.670   1.905  17.871  0.00  0.00    +0.000 N 
ATOM      4  N   UNL     1       5.330   3.404  17.357  0.00  0.00    +0.000 NA
ATOM      5  C   UNL     1       5.777   4.665  17.322  0.00  0.00    +0.000 A 
ATOM      6  C   UNL     1       5.039   5.791  17.688  0.00  0.00    +0.000 A 
ATOM      7  C   UNL     1       3.717   5.653  18.141  0.00  0.00    +0.000 A 
ATOM      8  C   UNL     1       5.915   7.007  17.574  0.00  0.00    +0.000 C 
ATOM      9  C   UNL     1       7.076   6.514  16.702  0.00  0.00    +0.000 C 
ATOM     10  C   UNL     1       7.192   5.012  16.954  0.00  0.00    +0.000 C 
ATOM     11  H   UNL     1       2.771   1.718  17.441  0.00  0.00    +0.000 HD
ATOM     12  H   UNL     1       4.416   1.339  17.469  0.00  0.00    +0.000 HD
ENDROOT
BRANCH   7  13
ATOM     13  C   UNL     1       2.885   6.837  18.528  0.00  0.00    +0.000 A 
ATOM     14  C   UNL     1       2.539   7.848  17.608  0.00  0.00    +0.000 A 
ATOM     15  C   UNL     1       1.722   8.930  17.962  0.00  0.00    +0.000 A 
ATOM     16  C   UNL     1       1.284   9.076  19.271  0.00  0.00    +0.000 A 
ATOM     17  C   UNL     1       1.640   8.124  20.216  0.00  0.00    +0.000 A 
ATOM     18  C   UNL     1       2.401   7.009  19.839  0.00  0.00    +0.000 A 
ENDBRANCH   7  13
BRANCH   1  20
ATOM     19  N   UNL     1       0.872   3.671  19.051  0.00  0.00    +0.000 NA
ATOM     20  C   UNL     1       1.937   3.975  18.706  0.00  0.00    +0.000 C 
ENDBRANCH   1  20
TORSDOF 2
ENDMDL
