MODEL 1
REMARK VINA RESULT:      -7.6      0.000      0.000
REMARK  Name = 
REMARK  9 active torsions:
REMARK  status: ('A' for Active; 'I' for Inactive)
REMARK    1  A    between atoms: C_4  and  O_5
REMARK    2  A    between atoms: N_9  and  C_10
REMARK    3  A    between atoms: C_10  and  C_11
REMARK    4  A    between atoms: C_15  and  C_16
REMARK    5  A    between atoms: C_16  and  O_17
REMARK    6  A    between atoms: O_17  and  C_18
REMARK    7  A    between atoms: C_18  and  P_19
REMARK    8  A    between atoms: P_19  and  O_21
REMARK    9  A    between atoms: P_19  and  O_22
REMARK                            x       y       z     vdW  Elec       q    Type
REMARK                         _______ _______ _______ _____ _____    ______ ____
ROOT
ATOM      1  C   UNL     1       4.189   3.894  17.367  0.00  0.00    +0.000 C 
ENDROOT
BRANCH   1   9
ATOM      2  N   UNL     1       8.305   5.258  20.465  0.00  0.00    +0.000 N 
ATOM      3  C   UNL     1       7.676   5.707  19.325  0.00  0.00    +0.000 A 
ATOM      4  N   UNL     1       8.186   6.816  18.766  0.00  0.00    +0.000 NA
ATOM      5  C   UNL     1       7.573   7.309  17.677  0.00  0.00    +0.000 A 
ATOM      6  C   UNL     1       6.445   6.696  17.148  0.00  0.00    +0.000 A 
ATOM      7  N   UNL     1       5.591   6.981  16.109  0.00  0.00    +0.000 NA
ATOM      8  C   UNL     1       4.702   6.015  16.120  0.00  0.00    +0.000 A 
ATOM      9  N   UNL     1       4.966   5.084  17.097  0.00  0.00    +0.000 N 
ATOM     10  C   UNL     1       6.055   5.534  17.798  0.00  0.00    +0.000 A 
ATOM     11  N   UNL     1       6.633   4.978  18.882  0.00  0.00    +0.000 NA
ATOM     12  H   UNL     1       9.256   5.599  20.511  0.00  0.00    +0.000 HD
ATOM     13  H   UNL     1       8.154   4.266  20.601  0.00  0.00    +0.000 HD
BRANCH   5  14
ATOM     14  O   UNL     1       8.132   8.446  17.164  0.00  0.00    +0.000 OA
ATOM     15  H   UNL     1       8.732   8.700  17.882  0.00  0.00    +0.000 HD
ENDBRANCH   5  14
ENDBRANCH   1   9
BRANCH   1  16
ATOM     16  C   UNL     1       3.437   4.009  18.674  0.00  0.00    +0.000 A 
ATOM     17  C   UNL     1       3.483   2.979  19.622  0.00  0.00    +0.000 A 
ATOM     18  C   UNL     1       2.846   3.128  20.860  0.00  0.00    +0.000 A 
ATOM     19  C   UNL     1       2.179   4.308  21.169  0.00  0.00    +0.000 A 
ATOM     20  C   UNL     1       2.124   5.350  20.238  0.00  0.00    +0.000 A 
ATOM     21  C   UNL     1       2.735   5.187  18.984  0.00  0.00    +0.000 A 
BRANCH  20  22
ATOM     22  C   UNL     1       1.529   6.681  20.642  0.00  0.00    +0.000 C 
BRANCH  22  23
ATOM     23  O   UNL     1       2.139   7.755  19.907  0.00  0.00    +0.000 OA
BRANCH  23  24
ATOM     24  C   UNL     1       1.181   8.777  19.610  0.00  0.00    +0.000 C 
BRANCH  24  25
ATOM     25  P   UNL     1       1.849   9.956  18.378  0.00  0.00    +0.000 P 
ATOM     26  O   UNL     1       2.262   8.813  17.443  0.00  0.00    +0.000 OA
BRANCH  25  27
ATOM     27  O   UNL     1       0.338  10.347  17.871  0.00  0.00    +0.000 OA
ATOM     28  H   UNL     1       0.375  10.747  16.983  0.00  0.00    +0.000 HD
ENDBRANCH  25  27
BRANCH  25  29
ATOM     29  O   UNL     1       2.481  11.069  17.215  0.00  0.00    +0.000 OA
ATOM     30  H   UNL     1       1.732  11.232  16.605  0.00  0.00    +0.000 HD
ENDBRANCH  25  29
ENDBRANCH  24  25
ENDBRANCH  23  24
ENDBRANCH  22  23
ENDBRANCH  20  22
ENDBRANCH   1  16
TORSDOF 9
ENDMDL
MODEL 2
REMARK VINA RESULT:      -7.5      3.845      6.663
REMARK  Name = 
REMARK  9 active torsions:
REMARK  status: ('A' for Active; 'I' for Inactive)
REMARK    1  A    between atoms: C_4  and  O_5
REMARK    2  A    between atoms: N_9  and  C_10
REMARK    3  A    between atoms: C_10  and  C_11
REMARK    4  A    between atoms: C_15  and  C_16
REMARK    5  A    between atoms: C_16  and  O_17
REMARK    6  A    between atoms: O_17  and  C_18
REMARK    7  A    between atoms: C_18  and  P_19
REMARK    8  A    between atoms: P_19  and  O_21
REMARK    9  A    between atoms: P_19  and  O_22
REMARK                            x       y       z     vdW  Elec       q    Type
REMARK                         _______ _______ _______ _____ _____    ______ ____
ROOT
ATOM      1  C   UNL     1       4.789   5.690  16.712  0.00  0.00    +0.000 C 
ENDROOT
BRANCH   1   9
ATOM      2  N   UNL     1       3.951   0.679  18.325  0.00  0.00    +0.000 N 
ATOM      3  C   UNL     1       3.405   1.930  18.509  0.00  0.00    +0.000 A 
ATOM      4  N   UNL     1       2.336   1.994  19.319  0.00  0.00    +0.000 NA
ATOM      5  C   UNL     1       1.748   3.190  19.490  0.00  0.00    +0.000 A 
ATOM      6  C   UNL     1       2.226   4.324  18.845  0.00  0.00    +0.000 A 
ATOM      7  N   UNL     1       1.822   5.636  18.779  0.00  0.00    +0.000 NA
ATOM      8  C   UNL     1       2.692   6.224  17.991  0.00  0.00    +0.000 A 
ATOM      9  N   UNL     1       3.677   5.358  17.574  0.00  0.00    +0.000 N 
ATOM     10  C   UNL     1       3.362   4.121  18.077  0.00  0.00    +0.000 A 
ATOM     11  N   UNL     1       4.009   2.955  17.877  0.00  0.00    +0.000 NA
ATOM     12  H   UNL     1       3.711   0.064  19.089  0.00  0.00    +0.000 HD
ATOM     13  H   UNL     1       4.927   0.741  18.059  0.00  0.00    +0.000 HD
BRANCH   5  14
ATOM     14  O   UNL     1       0.658   3.186  20.314  0.00  0.00    +0.000 OA
ATOM     15  H   UNL     1      -0.058   3.337  19.678  0.00  0.00    +0.000 HD
ENDBRANCH   5  14
ENDBRANCH   1   9
BRANCH   1  16
ATOM     16  C   UNL     1       5.987   6.155  17.510  0.00  0.00    +0.000 A 
ATOM     17  C   UNL     1       6.670   5.276  18.360  0.00  0.00    +0.000 A 
ATOM     18  C   UNL     1       7.822   5.696  19.036  0.00  0.00    +0.000 A 
ATOM     19  C   UNL     1       8.312   6.984  18.853  0.00  0.00    +0.000 A 
ATOM     20  C   UNL     1       7.647   7.878  18.006  0.00  0.00    +0.000 A 
ATOM     21  C   UNL     1       6.473   7.465  17.356  0.00  0.00    +0.000 A 
BRANCH  20  22
ATOM     22  C   UNL     1       8.273   9.220  17.698  0.00  0.00    +0.000 C 
BRANCH  22  23
ATOM     23  O   UNL     1       9.039   9.693  18.818  0.00  0.00    +0.000 OA
BRANCH  23  24
ATOM     24  C   UNL     1       9.161  11.120  18.787  0.00  0.00    +0.000 C 
BRANCH  24  25
ATOM     25  P   UNL     1      10.734  11.620  17.997  0.00  0.00    +0.000 P 
ATOM     26  O   UNL     1      10.074  12.847  17.358  0.00  0.00    +0.000 OA
BRANCH  25  27
ATOM     27  O   UNL     1      11.316  12.190  19.422  0.00  0.00    +0.000 OA
ATOM     28  H   UNL     1      10.725  11.933  20.153  0.00  0.00    +0.000 HD
ENDBRANCH  25  27
BRANCH  25  29
ATOM     29  O   UNL     1      12.221  12.093  17.250  0.00  0.00    +0.000 OA
ATOM     30  H   UNL     1      11.966  12.330  16.334  0.00  0.00    +0.000 HD
ENDBRANCH  25  29
ENDBRANCH  24  25
ENDBRANCH  23  24
ENDBRANCH  22  23
ENDBRANCH  20  22
ENDBRANCH   1  16
TORSDOF 9
ENDMDL
MODEL 3
REMARK VINA RESULT:      -7.5      1.699      2.205
REMARK  Name = 
REMARK  9 active torsions:
REMARK  status: ('A' for Active; 'I' for Inactive)
REMARK    1  A    between atoms: C_4  and  O_5
REMARK    2  A    between atoms: N_9  and  C_10
REMARK    3  A    between atoms: C_10  and  C_11
REMARK    4  A    between atoms: C_15  and  C_16
REMARK    5  A    between atoms: C_16  and  O_17
REMARK    6  A    between atoms: O_17  and  C_18
REMARK    7  A    between atoms: C_18  and  P_19
REMARK    8  A    between atoms: P_19  and  O_21
REMARK    9  A    between atoms: P_19  and  O_22
REMARK                            x       y       z     vdW  Elec       q    Type
REMARK                         _______ _______ _______ _____ _____    ______ ____
ROOT
ATOM      1  C   UNL     1       4.713   3.509  16.972  0.00  0.00    +0.000 C 
ENDROOT
BRANCH   1   9
ATOM      2  N   UNL     1       8.335   5.281  20.457  0.00  0.00    +0.000 N 
ATOM      3  C   UNL     1       7.758   5.681  19.273  0.00  0.00    +0.000 A 
ATOM      4  N   UNL     1       8.171   6.861  18.782  0.00  0.00    +0.000 NA
ATOM      5  C   UNL     1       7.600   7.307  17.651  0.00  0.00    +0.000 A 
ATOM      6  C   UNL     1       6.608   6.574  17.011  0.00  0.00    +0.000 A 
ATOM      7  N   UNL     1       5.821   6.782  15.903  0.00  0.00    +0.000 NA
ATOM      8  C   UNL     1       5.063   5.714  15.816  0.00  0.00    +0.000 A 
ATOM      9  N   UNL     1       5.355   4.793  16.796  0.00  0.00    +0.000 N 
ATOM     10  C   UNL     1       6.313   5.355  17.601  0.00  0.00    +0.000 A 
ATOM     11  N   UNL     1       6.858   4.843  18.723  0.00  0.00    +0.000 NA
ATOM     12  H   UNL     1       9.227   5.735  20.596  0.00  0.00    +0.000 HD
ATOM     13  H   UNL     1       8.298   4.274  20.561  0.00  0.00    +0.000 HD
BRANCH   5  14
ATOM     14  O   UNL     1       8.054   8.518  17.212  0.00  0.00    +0.000 OA
ATOM     15  H   UNL     1       8.352   8.919  18.043  0.00  0.00    +0.000 HD
ENDBRANCH   5  14
ENDBRANCH   1   9
BRANCH   1  16
ATOM     16  C   UNL     1       3.447   3.632  17.790  0.00  0.00    +0.000 A 
ATOM     17  C   UNL     1       2.518   2.584  17.838  0.00  0.00    +0.000 A 
ATOM     18  C   UNL     1       1.387   2.678  18.658  0.00  0.00    +0.000 A 
ATOM     19  C   UNL     1       1.185   3.804  19.448  0.00  0.00    +0.000 A 
ATOM     20  C   UNL     1       2.100   4.861  19.416  0.00  0.00    +0.000 A 
ATOM     21  C   UNL     1       3.217   4.780  18.569  0.00  0.00    +0.000 A 
BRANCH  20  22
ATOM     22  C   UNL     1       1.949   6.009  20.390  0.00  0.00    +0.000 C 
BRANCH  22  23
ATOM     23  O   UNL     1       1.581   7.215  19.702  0.00  0.00    +0.000 OA
BRANCH  23  24
ATOM     24  C   UNL     1       1.836   8.365  20.516  0.00  0.00    +0.000 C 
BRANCH  24  25
ATOM     25  P   UNL     1       0.470   8.634  21.706  0.00  0.00    +0.000 P 
ATOM     26  O   UNL     1       1.391   9.411  22.654  0.00  0.00    +0.000 OA
BRANCH  25  27
ATOM     27  O   UNL     1      -0.183   9.802  20.755  0.00  0.00    +0.000 OA
ATOM     28  H   UNL     1       0.160   9.726  19.846  0.00  0.00    +0.000 HD
ENDBRANCH  25  27
BRANCH  25  29
ATOM     29  O   UNL     1      -0.820   8.888  22.829  0.00  0.00    +0.000 OA
ATOM     30  H   UNL     1      -0.735   8.148  23.466  0.00  0.00    +0.000 HD
ENDBRANCH  25  29
ENDBRANCH  24  25
ENDBRANCH  23  24
ENDBRANCH  22  23
ENDBRANCH  20  22
ENDBRANCH   1  16
TORSDOF 9
ENDMDL
MODEL 4
REMARK VINA RESULT:      -7.4      0.952      1.025
REMARK  Name = 
REMARK  9 active torsions:
REMARK  status: ('A' for Active; 'I' for Inactive)
REMARK    1  A    between atoms: C_4  and  O_5
REMARK    2  A    between atoms: N_9  and  C_10
REMARK    3  A    between atoms: C_10  and  C_11
REMARK    4  A    between atoms: C_15  and  C_16
REMARK    5  A    between atoms: C_16  and  O_17
REMARK    6  A    between atoms: O_17  and  C_18
REMARK    7  A    between atoms: C_18  and  P_19
REMARK    8  A    between atoms: P_19  and  O_21
REMARK    9  A    between atoms: P_19  and  O_22
REMARK                            x       y       z     vdW  Elec       q    Type
REMARK                         _______ _______ _______ _____ _____    ______ ____
ROOT
ATOM      1  C   UNL     1       4.349   3.361  17.734  0.00  0.00    +0.000 C 
ENDROOT
BRANCH   1   9
ATOM      2  N   UNL     1       8.470   5.252  20.536  0.00  0.00    +0.000 N 
ATOM      3  C   UNL     1       7.755   5.574  19.404  0.00  0.00    +0.000 A 
ATOM      4  N   UNL     1       8.143   6.684  18.756  0.00  0.00    +0.000 NA
ATOM      5  C   UNL     1       7.441   7.056  17.672  0.00  0.00    +0.000 A 
ATOM      6  C   UNL     1       6.346   6.320  17.238  0.00  0.00    +0.000 A 
ATOM      7  N   UNL     1       5.426   6.468  16.228  0.00  0.00    +0.000 NA
ATOM      8  C   UNL     1       4.624   5.435  16.340  0.00  0.00    +0.000 A 
ATOM      9  N   UNL     1       5.009   4.591  17.356  0.00  0.00    +0.000 N 
ATOM     10  C   UNL     1       6.087   5.173  17.973  0.00  0.00    +0.000 A 
ATOM     11  N   UNL     1       6.759   4.736  19.058  0.00  0.00    +0.000 NA
ATOM     12  H   UNL     1       9.390   5.672  20.514  0.00  0.00    +0.000 HD
ATOM     13  H   UNL     1       8.410   4.261  20.738  0.00  0.00    +0.000 HD
BRANCH   5  14
ATOM     14  O   UNL     1       7.878   8.201  17.066  0.00  0.00    +0.000 OA
ATOM     15  H   UNL     1       7.762   7.973  16.131  0.00  0.00    +0.000 HD
ENDBRANCH   5  14
ENDBRANCH   1   9
BRANCH   1  16
ATOM     16  C   UNL     1       3.112   3.630  18.561  0.00  0.00    +0.000 A 
ATOM     17  C   UNL     1       2.189   2.610  18.825  0.00  0.00    +0.000 A 
ATOM     18  C   UNL     1       1.087   2.849  19.654  0.00  0.00    +0.000 A 
ATOM     19  C   UNL     1       0.908   4.097  20.240  0.00  0.00    +0.000 A 
ATOM     20  C   UNL     1       1.819   5.130  19.992  0.00  0.00    +0.000 A 
ATOM     21  C   UNL     1       2.906   4.897  19.134  0.00  0.00    +0.000 A 
BRANCH  20  22
ATOM     22  C   UNL     1       1.698   6.431  20.754  0.00  0.00    +0.000 C 
BRANCH  22  23
ATOM     23  O   UNL     1       1.611   7.544  19.849  0.00  0.00    +0.000 OA
BRANCH  23  24
ATOM     24  C   UNL     1       1.299   8.751  20.554  0.00  0.00    +0.000 C 
BRANCH  24  25
ATOM     25  P   UNL     1       0.921  10.107  19.384  0.00  0.00    +0.000 P 
ATOM     26  O   UNL     1       1.313   9.239  18.183  0.00  0.00    +0.000 OA
BRANCH  25  27
ATOM     27  O   UNL     1      -0.692   9.849  19.542  0.00  0.00    +0.000 OA
ATOM     28  H   UNL     1      -0.928   8.971  19.190  0.00  0.00    +0.000 HD
ENDBRANCH  25  27
BRANCH  25  29
ATOM     29  O   UNL     1       0.565  11.388  18.278  0.00  0.00    +0.000 OA
ATOM     30  H   UNL     1       1.434  11.808  18.106  0.00  0.00    +0.000 HD
ENDBRANCH  25  29
ENDBRANCH  24  25
ENDBRANCH  23  24
ENDBRANCH  22  23
ENDBRANCH  20  22
ENDBRANCH   1  16
TORSDOF 9
ENDMDL
MODEL 5
REMARK VINA RESULT:      -7.4      1.719      2.104
REMARK  Name = 
REMARK  9 active torsions:
REMARK  status: ('A' for Active; 'I' for Inactive)
REMARK    1  A    between atoms: C_4  and  O_5
REMARK    2  A    between atoms: N_9  and  C_10
REMARK    3  A    between atoms: C_10  and  C_11
REMARK    4  A    between atoms: C_15  and  C_16
REMARK    5  A    between atoms: C_16  and  O_17
REMARK    6  A    between atoms: O_17  and  C_18
REMARK    7  A    between atoms: C_18  and  P_19
REMARK    8  A    between atoms: P_19  and  O_21
REMARK    9  A    between atoms: P_19  and  O_22
REMARK                            x       y       z     vdW  Elec       q    Type
REMARK                         _______ _______ _______ _____ _____    ______ ____
ROOT
ATOM      1  C   UNL     1       4.471   3.376  17.463  0.00  0.00    +0.000 C 
ENDROOT
BRANCH   1   9
ATOM      2  N   UNL     1       8.433   5.244  20.499  0.00  0.00    +0.000 N 
ATOM      3  C   UNL     1       7.749   5.600  19.357  0.00  0.00    +0.000 A 
ATOM      4  N   UNL     1       8.128   6.748  18.774  0.00  0.00    +0.000 NA
ATOM      5  C   UNL     1       7.456   7.151  17.683  0.00  0.00    +0.000 A 
ATOM      6  C   UNL     1       6.398   6.407  17.176  0.00  0.00    +0.000 A 
ATOM      7  N   UNL     1       5.511   6.576  16.140  0.00  0.00    +0.000 NA
ATOM      8  C   UNL     1       4.735   5.518  16.176  0.00  0.00    +0.000 A 
ATOM      9  N   UNL     1       5.108   4.639  17.166  0.00  0.00    +0.000 N 
ATOM     10  C   UNL     1       6.146   5.221  17.849  0.00  0.00    +0.000 A 
ATOM     11  N   UNL     1       6.791   4.752  18.937  0.00  0.00    +0.000 NA
ATOM     12  H   UNL     1       9.340   5.690  20.530  0.00  0.00    +0.000 HD
ATOM     13  H   UNL     1       8.394   4.244  20.653  0.00  0.00    +0.000 HD
BRANCH   5  14
ATOM     14  O   UNL     1       7.880   8.334  17.146  0.00  0.00    +0.000 OA
ATOM     15  H   UNL     1       8.840   8.201  17.136  0.00  0.00    +0.000 HD
ENDBRANCH   5  14
ENDBRANCH   1   9
BRANCH   1  16
ATOM     16  C   UNL     1       3.622   3.465  18.711  0.00  0.00    +0.000 A 
ATOM     17  C   UNL     1       3.834   2.595  19.788  0.00  0.00    +0.000 A 
ATOM     18  C   UNL     1       3.093   2.735  20.968  0.00  0.00    +0.000 A 
ATOM     19  C   UNL     1       2.154   3.752  21.090  0.00  0.00    +0.000 A 
ATOM     20  C   UNL     1       1.927   4.634  20.027  0.00  0.00    +0.000 A 
ATOM     21  C   UNL     1       2.648   4.471  18.833  0.00  0.00    +0.000 A 
BRANCH  20  22
ATOM     22  C   UNL     1       1.017   5.825  20.227  0.00  0.00    +0.000 C 
BRANCH  22  23
ATOM     23  O   UNL     1       1.576   6.738  21.185  0.00  0.00    +0.000 OA
BRANCH  23  24
ATOM     24  C   UNL     1       1.438   8.092  20.740  0.00  0.00    +0.000 C 
BRANCH  24  25
ATOM     25  P   UNL     1       0.756   9.147  22.072  0.00  0.00    +0.000 P 
ATOM     26  O   UNL     1       0.474  10.287  21.086  0.00  0.00    +0.000 OA
BRANCH  25  27
ATOM     27  O   UNL     1      -0.645   8.292  22.088  0.00  0.00    +0.000 OA
ATOM     28  H   UNL     1      -1.324   8.768  22.601  0.00  0.00    +0.000 HD
ENDBRANCH  25  27
BRANCH  25  29
ATOM     29  O   UNL     1       0.112  10.143  23.331  0.00  0.00    +0.000 OA
ATOM     30  H   UNL     1      -0.235  10.931  22.862  0.00  0.00    +0.000 HD
ENDBRANCH  25  29
ENDBRANCH  24  25
ENDBRANCH  23  24
ENDBRANCH  22  23
ENDBRANCH  20  22
ENDBRANCH   1  16
TORSDOF 9
ENDMDL
MODEL 6
REMARK VINA RESULT:      -7.4      2.935      4.849
REMARK  Name = 
REMARK  9 active torsions:
REMARK  status: ('A' for Active; 'I' for Inactive)
REMARK    1  A    between atoms: C_4  and  O_5
REMARK    2  A    between atoms: N_9  and  C_10
REMARK    3  A    between atoms: C_10  and  C_11
REMARK    4  A    between atoms: C_15  and  C_16
REMARK    5  A    between atoms: C_16  and  O_17
REMARK    6  A    between atoms: O_17  and  C_18
REMARK    7  A    between atoms: C_18  and  P_19
REMARK    8  A    between atoms: P_19  and  O_21
REMARK    9  A    between atoms: P_19  and  O_22
REMARK                            x       y       z     vdW  Elec       q    Type
REMARK                         _______ _______ _______ _____ _____    ______ ____
ROOT
ATOM      1  C   UNL     1       3.403   6.624  17.648  0.00  0.00    +0.000 C 
ENDROOT
BRANCH   1   9
ATOM      2  N   UNL     1       0.982   1.958  18.530  0.00  0.00    +0.000 N 
ATOM      3  C   UNL     1       2.221   2.532  18.716  0.00  0.00    +0.000 A 
ATOM      4  N   UNL     1       3.153   1.754  19.288  0.00  0.00    +0.000 NA
ATOM      5  C   UNL     1       4.361   2.291  19.526  0.00  0.00    +0.000 A 
ATOM      6  C   UNL     1       4.636   3.613  19.196  0.00  0.00    +0.000 A 
ATOM      7  N   UNL     1       5.723   4.439  19.357  0.00  0.00    +0.000 NA
ATOM      8  C   UNL     1       5.360   5.589  18.838  0.00  0.00    +0.000 A 
ATOM      9  N   UNL     1       4.093   5.535  18.303  0.00  0.00    +0.000 N 
ATOM     10  C   UNL     1       3.597   4.284  18.570  0.00  0.00    +0.000 A 
ATOM     11  N   UNL     1       2.371   3.800  18.288  0.00  0.00    +0.000 NA
ATOM     12  H   UNL     1       1.051   0.950  18.510  0.00  0.00    +0.000 HD
ATOM     13  H   UNL     1       0.478   2.411  17.778  0.00  0.00    +0.000 HD
BRANCH   5  14
ATOM     14  O   UNL     1       5.260   1.453  20.123  0.00  0.00    +0.000 OA
ATOM     15  H   UNL     1       5.575   2.006  20.854  0.00  0.00    +0.000 HD
ENDBRANCH   5  14
ENDBRANCH   1   9
BRANCH   1  16
ATOM     16  C   UNL     1       2.528   7.386  18.617  0.00  0.00    +0.000 A 
ATOM     17  C   UNL     1       2.283   6.893  19.905  0.00  0.00    +0.000 A 
ATOM     18  C   UNL     1       1.534   7.643  20.820  0.00  0.00    +0.000 A 
ATOM     19  C   UNL     1       1.043   8.894  20.466  0.00  0.00    +0.000 A 
ATOM     20  C   UNL     1       1.277   9.407  19.186  0.00  0.00    +0.000 A 
ATOM     21  C   UNL     1       2.000   8.639  18.259  0.00  0.00    +0.000 A 
BRANCH  20  22
ATOM     22  C   UNL     1       0.870  10.828  18.865  0.00  0.00    +0.000 C 
BRANCH  22  23
ATOM     23  O   UNL     1       0.422  11.508  20.049  0.00  0.00    +0.000 OA
BRANCH  23  24
ATOM     24  C   UNL     1      -0.951  11.897  19.924  0.00  0.00    +0.000 C 
BRANCH  24  25
ATOM     25  P   UNL     1      -1.493  11.814  18.177  0.00  0.00    +0.000 P 
ATOM     26  O   UNL     1      -2.970  11.856  18.587  0.00  0.00    +0.000 OA
BRANCH  25  27
ATOM     27  O   UNL     1      -1.111  13.393  17.940  0.00  0.00    +0.000 OA
ATOM     28  H   UNL     1      -0.958  13.563  16.993  0.00  0.00    +0.000 HD
ENDBRANCH  25  27
BRANCH  25  29
ATOM     29  O   UNL     1      -2.005  11.735  16.527  0.00  0.00    +0.000 OA
ATOM     30  H   UNL     1      -1.178  11.841  16.012  0.00  0.00    +0.000 HD
ENDBRANCH  25  29
ENDBRANCH  24  25
ENDBRANCH  23  24
ENDBRANCH  22  23
ENDBRANCH  20  22
ENDBRANCH   1  16
TORSDOF 9
ENDMDL
MODEL 7
REMARK VINA RESULT:      -7.3      3.044      5.002
REMARK  Name = 
REMARK  9 active torsions:
REMARK  status: ('A' for Active; 'I' for Inactive)
REMARK    1  A    between atoms: C_4  and  O_5
REMARK    2  A    between atoms: N_9  and  C_10
REMARK    3  A    between atoms: C_10  and  C_11
REMARK    4  A    between atoms: C_15  and  C_16
REMARK    5  A    between atoms: C_16  and  O_17
REMARK    6  A    between atoms: O_17  and  C_18
REMARK    7  A    between atoms: C_18  and  P_19
REMARK    8  A    between atoms: P_19  and  O_21
REMARK    9  A    between atoms: P_19  and  O_22
REMARK                            x       y       z     vdW  Elec       q    Type
REMARK                         _______ _______ _______ _____ _____    ______ ____
ROOT
ATOM      1  C   UNL     1       3.298   6.605  17.608  0.00  0.00    +0.000 C 
ENDROOT
BRANCH   1   9
ATOM      2  N   UNL     1       1.015   1.892  18.599  0.00  0.00    +0.000 N 
ATOM      3  C   UNL     1       2.233   2.509  18.779  0.00  0.00    +0.000 A 
ATOM      4  N   UNL     1       3.184   1.776  19.380  0.00  0.00    +0.000 NA
ATOM      5  C   UNL     1       4.373   2.357  19.613  0.00  0.00    +0.000 A 
ATOM      6  C   UNL     1       4.610   3.677  19.249  0.00  0.00    +0.000 A 
ATOM      7  N   UNL     1       5.669   4.540  19.395  0.00  0.00    +0.000 NA
ATOM      8  C   UNL     1       5.275   5.664  18.842  0.00  0.00    +0.000 A 
ATOM      9  N   UNL     1       4.016   5.557  18.298  0.00  0.00    +0.000 N 
ATOM     10  C   UNL     1       3.557   4.299  18.595  0.00  0.00    +0.000 A 
ATOM     11  N   UNL     1       2.348   3.770  18.318  0.00  0.00    +0.000 NA
ATOM     12  H   UNL     1       1.115   0.886  18.607  0.00  0.00    +0.000 HD
ATOM     13  H   UNL     1       0.503   2.309  17.831  0.00  0.00    +0.000 HD
BRANCH   5  14
ATOM     14  O   UNL     1       5.292   1.564  20.239  0.00  0.00    +0.000 OA
ATOM     15  H   UNL     1       6.025   1.590  19.605  0.00  0.00    +0.000 HD
ENDBRANCH   5  14
ENDBRANCH   1   9
BRANCH   1  16
ATOM     16  C   UNL     1       2.461   7.424  18.565  0.00  0.00    +0.000 A 
ATOM     17  C   UNL     1       2.271   7.010  19.889  0.00  0.00    +0.000 A 
ATOM     18  C   UNL     1       1.558   7.813  20.787  0.00  0.00    +0.000 A 
ATOM     19  C   UNL     1       1.047   9.039  20.378  0.00  0.00    +0.000 A 
ATOM     20  C   UNL     1       1.227   9.473  19.060  0.00  0.00    +0.000 A 
ATOM     21  C   UNL     1       1.914   8.652  18.153  0.00  0.00    +0.000 A 
BRANCH  20  22
ATOM     22  C   UNL     1       0.801  10.872  18.671  0.00  0.00    +0.000 C 
BRANCH  22  23
ATOM     23  O   UNL     1      -0.625  11.015  18.769  0.00  0.00    +0.000 OA
BRANCH  23  24
ATOM     24  C   UNL     1      -1.283  10.290  17.723  0.00  0.00    +0.000 C 
BRANCH  24  25
ATOM     25  P   UNL     1      -2.810  11.152  17.197  0.00  0.00    +0.000 P 
ATOM     26  O   UNL     1      -2.562  10.788  15.729  0.00  0.00    +0.000 OA
BRANCH  25  27
ATOM     27  O   UNL     1      -3.745   9.922  17.750  0.00  0.00    +0.000 OA
ATOM     28  H   UNL     1      -4.270  10.217  18.516  0.00  0.00    +0.000 HD
ENDBRANCH  25  27
BRANCH  25  29
ATOM     29  O   UNL     1      -4.252  11.967  16.699  0.00  0.00    +0.000 OA
ATOM     30  H   UNL     1      -4.820  11.961  17.498  0.00  0.00    +0.000 HD
ENDBRANCH  25  29
ENDBRANCH  24  25
ENDBRANCH  23  24
ENDBRANCH  22  23
ENDBRANCH  20  22
ENDBRANCH   1  16
TORSDOF 9
ENDMDL
MODEL 8
REMARK VINA RESULT:      -7.3      3.654      6.361
REMARK  Name = 
REMARK  9 active torsions:
REMARK  status: ('A' for Active; 'I' for Inactive)
REMARK    1  A    between atoms: C_4  and  O_5
REMARK    2  A    between atoms: N_9  and  C_10
REMARK    3  A    between atoms: C_10  and  C_11
REMARK    4  A    between atoms: C_15  and  C_16
REMARK    5  A    between atoms: C_16  and  O_17
REMARK    6  A    between atoms: O_17  and  C_18
REMARK    7  A    between atoms: C_18  and  P_19
REMARK    8  A    between atoms: P_19  and  O_21
REMARK    9  A    between atoms: P_19  and  O_22
REMARK                            x       y       z     vdW  Elec       q    Type
REMARK                         _______ _______ _______ _____ _____    ______ ____
ROOT
ATOM      1  C   UNL     1       4.867   5.624  16.690  0.00  0.00    +0.000 C 
ENDROOT
BRANCH   1   9
ATOM      2  N   UNL     1       3.879   0.681  18.422  0.00  0.00    +0.000 N 
ATOM      3  C   UNL     1       3.371   1.952  18.577  0.00  0.00    +0.000 A 
ATOM      4  N   UNL     1       2.306   2.069  19.386  0.00  0.00    +0.000 NA
ATOM      5  C   UNL     1       1.755   3.286  19.529  0.00  0.00    +0.000 A 
ATOM      6  C   UNL     1       2.266   4.388  18.857  0.00  0.00    +0.000 A 
ATOM      7  N   UNL     1       1.903   5.710  18.760  0.00  0.00    +0.000 NA
ATOM      8  C   UNL     1       2.789   6.252  17.957  0.00  0.00    +0.000 A 
ATOM      9  N   UNL     1       3.746   5.347  17.561  0.00  0.00    +0.000 N 
ATOM     10  C   UNL     1       3.395   4.133  18.093  0.00  0.00    +0.000 A 
ATOM     11  N   UNL     1       4.005   2.942  17.920  0.00  0.00    +0.000 NA
ATOM     12  H   UNL     1       3.620   0.092  19.201  0.00  0.00    +0.000 HD
ATOM     13  H   UNL     1       4.855   0.707  18.154  0.00  0.00    +0.000 HD
BRANCH   5  14
ATOM     14  O   UNL     1       0.666   3.335  20.354  0.00  0.00    +0.000 OA
ATOM     15  H   UNL     1       1.007   3.877  21.081  0.00  0.00    +0.000 HD
ENDBRANCH   5  14
ENDBRANCH   1   9
BRANCH   1  16
ATOM     16  C   UNL     1       6.053   6.150  17.466  0.00  0.00    +0.000 A 
ATOM     17  C   UNL     1       6.789   5.310  18.311  0.00  0.00    +0.000 A 
ATOM     18  C   UNL     1       7.930   5.787  18.967  0.00  0.00    +0.000 A 
ATOM     19  C   UNL     1       8.357   7.096  18.769  0.00  0.00    +0.000 A 
ATOM     20  C   UNL     1       7.638   7.951  17.927  0.00  0.00    +0.000 A 
ATOM     21  C   UNL     1       6.475   7.480  17.296  0.00  0.00    +0.000 A 
BRANCH  20  22
ATOM     22  C   UNL     1       8.196   9.319  17.601  0.00  0.00    +0.000 C 
BRANCH  22  23
ATOM     23  O   UNL     1       8.740   9.940  18.778  0.00  0.00    +0.000 OA
BRANCH  23  24
ATOM     24  C   UNL     1       9.754  10.890  18.431  0.00  0.00    +0.000 C 
BRANCH  24  25
ATOM     25  P   UNL     1       9.006  12.477  17.909  0.00  0.00    +0.000 P 
ATOM     26  O   UNL     1       8.916  12.963  19.360  0.00  0.00    +0.000 OA
BRANCH  25  27
ATOM     27  O   UNL     1      10.460  13.042  17.399  0.00  0.00    +0.000 OA
ATOM     28  H   UNL     1      10.441  13.201  16.438  0.00  0.00    +0.000 HD
ENDBRANCH  25  27
BRANCH  25  29
ATOM     29  O   UNL     1       8.299  13.976  17.415  0.00  0.00    +0.000 OA
ATOM     30  H   UNL     1       8.253  13.912  16.438  0.00  0.00    +0.000 HD
ENDBRANCH  25  29
ENDBRANCH  24  25
ENDBRANCH  23  24
ENDBRANCH  22  23
ENDBRANCH  20  22
ENDBRANCH   1  16
TORSDOF 9
ENDMDL
MODEL 9
REMARK VINA RESULT:      -7.2      1.238      1.522
REMARK  Name = 
REMARK  9 active torsions:
REMARK  status: ('A' for Active; 'I' for Inactive)
REMARK    1  A    between atoms: C_4  and  O_5
REMARK    2  A    between atoms: N_9  and  C_10
REMARK    3  A    between atoms: C_10  and  C_11
REMARK    4  A    between atoms: C_15  and  C_16
REMARK    5  A    between atoms: C_16  and  O_17
REMARK    6  A    between atoms: O_17  and  C_18
REMARK    7  A    between atoms: C_18  and  P_19
REMARK    8  A    between atoms: P_19  and  O_21
REMARK    9  A    between atoms: P_19  and  O_22
REMARK                            x       y       z     vdW  Elec       q    Type
REMARK                         _______ _______ _______ _____ _____    ______ ____
ROOT
ATOM      1  C   UNL     1       4.344   3.490  17.590  0.00  0.00    +0.000 C 
ENDROOT
BRANCH   1   9
ATOM      2  N   UNL     1       8.464   5.227  20.490  0.00  0.00    +0.000 N 
ATOM      3  C   UNL     1       7.749   5.610  19.377  0.00  0.00    +0.000 A 
ATOM      4  N   UNL     1       8.136   6.753  18.789  0.00  0.00    +0.000 NA
ATOM      5  C   UNL     1       7.435   7.183  17.727  0.00  0.00    +0.000 A 
ATOM      6  C   UNL     1       6.340   6.471  17.254  0.00  0.00    +0.000 A 
ATOM      7  N   UNL     1       5.419   6.673  16.254  0.00  0.00    +0.000 NA
ATOM      8  C   UNL     1       4.617   5.636  16.310  0.00  0.00    +0.000 A 
ATOM      9  N   UNL     1       5.003   4.738  17.279  0.00  0.00    +0.000 N 
ATOM     10  C   UNL     1       6.081   5.287  17.927  0.00  0.00    +0.000 A 
ATOM     11  N   UNL     1       6.753   4.791  18.986  0.00  0.00    +0.000 NA
ATOM     12  H   UNL     1       9.383   5.648  20.490  0.00  0.00    +0.000 HD
ATOM     13  H   UNL     1       8.404   4.227  20.638  0.00  0.00    +0.000 HD
BRANCH   5  14
ATOM     14  O   UNL     1       7.870   8.359  17.184  0.00  0.00    +0.000 OA
ATOM     15  H   UNL     1       7.502   8.300  16.289  0.00  0.00    +0.000 HD
ENDBRANCH   5  14
ENDBRANCH   1   9
BRANCH   1  16
ATOM     16  C   UNL     1       3.531   3.595  18.860  0.00  0.00    +0.000 A 
ATOM     17  C   UNL     1       3.702   2.675  19.902  0.00  0.00    +0.000 A 
ATOM     18  C   UNL     1       3.000   2.826  21.104  0.00  0.00    +0.000 A 
ATOM     19  C   UNL     1       2.140   3.903  21.283  0.00  0.00    +0.000 A 
ATOM     20  C   UNL     1       1.955   4.836  20.256  0.00  0.00    +0.000 A 
ATOM     21  C   UNL     1       2.635   4.664  19.040  0.00  0.00    +0.000 A 
BRANCH  20  22
ATOM     22  C   UNL     1       1.138   6.082  20.518  0.00  0.00    +0.000 C 
BRANCH  22  23
ATOM     23  O   UNL     1       1.948   7.260  20.376  0.00  0.00    +0.000 OA
BRANCH  23  24
ATOM     24  C   UNL     1       1.526   8.282  21.286  0.00  0.00    +0.000 C 
BRANCH  24  25
ATOM     25  P   UNL     1       0.752   9.675  20.385  0.00  0.00    +0.000 P 
ATOM     26  O   UNL     1      -0.651   9.236  20.820  0.00  0.00    +0.000 OA
BRANCH  25  27
ATOM     27  O   UNL     1       1.207  10.737  21.551  0.00  0.00    +0.000 OA
ATOM     28  H   UNL     1       1.725  10.279  22.238  0.00  0.00    +0.000 HD
ENDBRANCH  25  27
BRANCH  25  29
ATOM     29  O   UNL     1       0.021  10.991  19.533  0.00  0.00    +0.000 OA
ATOM     30  H   UNL     1       0.288  11.785  20.041  0.00  0.00    +0.000 HD
ENDBRANCH  25  29
ENDBRANCH  24  25
ENDBRANCH  23  24
ENDBRANCH  22  23
ENDBRANCH  20  22
ENDBRANCH   1  16
TORSDOF 9
ENDMDL
