MODEL 1
REMARK VINA RESULT:      -8.2      0.000      0.000
REMARK  Name = 
REMARK  6 active torsions:
REMARK  status: ('A' for Active; 'I' for Inactive)
REMARK    1  A    between atoms: C_1  and  C_2
REMARK    2  A    between atoms: C_2  and  O_3
REMARK    3  A    between atoms: O_3  and  C_4
REMARK    4  A    between atoms: C_6  and  C_7
REMARK    5  A    between atoms: C_10  and  C_11
REMARK    6  A    between atoms: C_17  and  C_18
REMARK                            x       y       z     vdW  Elec       q    Type
REMARK                         _______ _______ _______ _____ _____    ______ ____
ROOT
ATOM      1  C   UNL     1       3.586   3.796  17.679  0.00  0.00    +0.000 A 
ATOM      2  C   UNL     1       4.765   3.978  16.960  0.00  0.00    +0.000 A 
ATOM      3  C   UNL     1       5.247   5.259  16.715  0.00  0.00    +0.000 A 
ATOM      4  C   UNL     1       4.542   6.370  17.178  0.00  0.00    +0.000 A 
ATOM      5  C   UNL     1       3.347   6.223  17.904  0.00  0.00    +0.000 A 
ATOM      6  C   UNL     1       2.890   4.914  18.149  0.00  0.00    +0.000 A 
ENDROOT
BRANCH   5   7
ATOM      7  C   UNL     1       2.611   7.409  18.390  0.00  0.00    +0.000 A 
ATOM      8  C   UNL     1       2.354   8.509  17.561  0.00  0.00    +0.000 A 
ATOM      9  C   UNL     1       1.639   9.609  18.031  0.00  0.00    +0.000 A 
ATOM     10  C   UNL     1       1.159   9.625  19.348  0.00  0.00    +0.000 A 
ATOM     11  C   UNL     1       0.426  10.701  19.855  0.00  0.00    +0.000 A 
ATOM     12  C   UNL     1      -0.021  10.670  21.172  0.00  0.00    +0.000 A 
ATOM     13  C   UNL     1       0.281   9.563  21.953  0.00  0.00    +0.000 A 
ATOM     14  C   UNL     1      -0.154   9.481  23.384  0.00  0.00    +0.000 C 
ATOM     15  N   UNL     1       0.983   8.508  21.479  0.00  0.00    +0.000 NA
ATOM     16  C   UNL     1       1.410   8.542  20.206  0.00  0.00    +0.000 A 
ATOM     17  C   UNL     1       2.127   7.466  19.712  0.00  0.00    +0.000 A 
ENDBRANCH   5   7
BRANCH   3  18
ATOM     18  C   UNL     1       6.474   5.432  15.996  0.00  0.00    +0.000 C 
ATOM     19  N   UNL     1       7.468   5.577  15.425  0.00  0.00    +0.000 NA
ENDBRANCH   3  18
BRANCH   1  20
ATOM     20  O   UNL     1       3.026   2.581  17.976  0.00  0.00    +0.000 OA
BRANCH  20  22
ATOM     21  C   UNL     1       1.237   2.162  19.520  0.00  0.00    +0.000 C 
ATOM     22  C   UNL     1       2.730   2.359  19.357  0.00  0.00    +0.000 C 
ENDBRANCH  20  22
ENDBRANCH   1  20
TORSDOF 4
ENDMDL
MODEL 2
REMARK VINA RESULT:      -8.1      2.057      3.098
REMARK  Name = 
REMARK  6 active torsions:
REMARK  status: ('A' for Active; 'I' for Inactive)
REMARK    1  A    between atoms: C_1  and  C_2
REMARK    2  A    between atoms: C_2  and  O_3
REMARK    3  A    between atoms: O_3  and  C_4
REMARK    4  A    between atoms: C_6  and  C_7
REMARK    5  A    between atoms: C_10  and  C_11
REMARK    6  A    between atoms: C_17  and  C_18
REMARK                            x       y       z     vdW  Elec       q    Type
REMARK                         _______ _______ _______ _____ _____    ______ ____
ROOT
ATOM      1  C   UNL     1       5.464   5.594  16.847  0.00  0.00    +0.000 A 
ATOM      2  C   UNL     1       5.480   4.444  17.631  0.00  0.00    +0.000 A 
ATOM      3  C   UNL     1       4.598   4.309  18.699  0.00  0.00    +0.000 A 
ATOM      4  C   UNL     1       3.700   5.334  18.995  0.00  0.00    +0.000 A 
ATOM      5  C   UNL     1       3.658   6.510  18.225  0.00  0.00    +0.000 A 
ATOM      6  C   UNL     1       4.554   6.614  17.144  0.00  0.00    +0.000 A 
ENDROOT
BRANCH   5   7
ATOM      7  C   UNL     1       2.701   7.588  18.549  0.00  0.00    +0.000 A 
ATOM      8  C   UNL     1       2.263   8.501  17.581  0.00  0.00    +0.000 A 
ATOM      9  C   UNL     1       1.343   9.499  17.900  0.00  0.00    +0.000 A 
ATOM     10  C   UNL     1       0.836   9.596  19.204  0.00  0.00    +0.000 A 
ATOM     11  C   UNL     1      -0.099  10.571  19.563  0.00  0.00    +0.000 A 
ATOM     12  C   UNL     1      -0.565  10.628  20.872  0.00  0.00    +0.000 A 
ATOM     13  C   UNL     1      -0.081   9.710  21.793  0.00  0.00    +0.000 A 
ATOM     14  C   UNL     1      -0.528   9.735  23.223  0.00  0.00    +0.000 C 
ATOM     15  N   UNL     1       0.819   8.754  21.464  0.00  0.00    +0.000 NA
ATOM     16  C   UNL     1       1.263   8.701  20.198  0.00  0.00    +0.000 A 
ATOM     17  C   UNL     1       2.182   7.725  19.852  0.00  0.00    +0.000 A 
ENDBRANCH   5   7
BRANCH   3  18
ATOM     18  C   UNL     1       4.608   3.110  19.482  0.00  0.00    +0.000 C 
ATOM     19  N   UNL     1       4.607   2.138  20.109  0.00  0.00    +0.000 NA
ENDBRANCH   3  18
BRANCH   1  20
ATOM     20  O   UNL     1       6.286   5.827  15.776  0.00  0.00    +0.000 OA
BRANCH  20  22
ATOM     21  C   UNL     1       5.835   4.182  14.089  0.00  0.00    +0.000 C 
ATOM     22  C   UNL     1       6.814   4.662  15.139  0.00  0.00    +0.000 C 
ENDBRANCH  20  22
ENDBRANCH   1  20
TORSDOF 4
ENDMDL
MODEL 3
REMARK VINA RESULT:      -8.1      1.073      1.089
REMARK  Name = 
REMARK  6 active torsions:
REMARK  status: ('A' for Active; 'I' for Inactive)
REMARK    1  A    between atoms: C_1  and  C_2
REMARK    2  A    between atoms: C_2  and  O_3
REMARK    3  A    between atoms: O_3  and  C_4
REMARK    4  A    between atoms: C_6  and  C_7
REMARK    5  A    between atoms: C_10  and  C_11
REMARK    6  A    between atoms: C_17  and  C_18
REMARK                            x       y       z     vdW  Elec       q    Type
REMARK                         _______ _______ _______ _____ _____    ______ ____
ROOT
ATOM      1  C   UNL     1       3.504   3.701  19.087  0.00  0.00    +0.000 A 
ATOM      2  C   UNL     1       4.695   3.690  18.365  0.00  0.00    +0.000 A 
ATOM      3  C   UNL     1       5.184   4.863  17.801  0.00  0.00    +0.000 A 
ATOM      4  C   UNL     1       4.476   6.056  17.946  0.00  0.00    +0.000 A 
ATOM      5  C   UNL     1       3.269   6.102  18.666  0.00  0.00    +0.000 A 
ATOM      6  C   UNL     1       2.804   4.901  19.237  0.00  0.00    +0.000 A 
ENDROOT
BRANCH   5   7
ATOM      7  C   UNL     1       2.528   7.372  18.814  0.00  0.00    +0.000 A 
ATOM      8  C   UNL     1       2.417   8.288  17.759  0.00  0.00    +0.000 A 
ATOM      9  C   UNL     1       1.697   9.472  17.910  0.00  0.00    +0.000 A 
ATOM     10  C   UNL     1       1.064   9.759  19.128  0.00  0.00    +0.000 A 
ATOM     11  C   UNL     1       0.320  10.926  19.317  0.00  0.00    +0.000 A 
ATOM     12  C   UNL     1      -0.283  11.166  20.548  0.00  0.00    +0.000 A 
ATOM     13  C   UNL     1      -0.122  10.233  21.563  0.00  0.00    +0.000 A 
ATOM     14  C   UNL     1      -0.727  10.445  22.916  0.00  0.00    +0.000 C 
ATOM     15  N   UNL     1       0.589   9.093  21.397  0.00  0.00    +0.000 NA
ATOM     16  C   UNL     1       1.166   8.865  20.206  0.00  0.00    +0.000 A 
ATOM     17  C   UNL     1       1.893   7.701  20.028  0.00  0.00    +0.000 A 
ENDBRANCH   5   7
BRANCH   3  18
ATOM     18  C   UNL     1       6.423   4.844  17.082  0.00  0.00    +0.000 C 
ATOM     19  N   UNL     1       7.421   4.837  16.498  0.00  0.00    +0.000 NA
ENDBRANCH   3  18
BRANCH   1  20
ATOM     20  O   UNL     1       2.936   2.605  19.682  0.00  0.00    +0.000 OA
BRANCH  20  22
ATOM     21  C   UNL     1       1.402   2.661  21.527  0.00  0.00    +0.000 C 
ATOM     22  C   UNL     1       2.858   2.649  21.109  0.00  0.00    +0.000 C 
ENDBRANCH  20  22
ENDBRANCH   1  20
TORSDOF 4
ENDMDL
MODEL 4
REMARK VINA RESULT:      -7.9      1.323      2.234
REMARK  Name = 
REMARK  6 active torsions:
REMARK  status: ('A' for Active; 'I' for Inactive)
REMARK    1  A    between atoms: C_1  and  C_2
REMARK    2  A    between atoms: C_2  and  O_3
REMARK    3  A    between atoms: O_3  and  C_4
REMARK    4  A    between atoms: C_6  and  C_7
REMARK    5  A    between atoms: C_10  and  C_11
REMARK    6  A    between atoms: C_17  and  C_18
REMARK                            x       y       z     vdW  Elec       q    Type
REMARK                         _______ _______ _______ _____ _____    ______ ____
ROOT
ATOM      1  C   UNL     1       3.072   4.174  17.248  0.00  0.00    +0.000 A 
ATOM      2  C   UNL     1       4.349   4.464  16.772  0.00  0.00    +0.000 A 
ATOM      3  C   UNL     1       4.932   5.699  17.035  0.00  0.00    +0.000 A 
ATOM      4  C   UNL     1       4.235   6.659  17.768  0.00  0.00    +0.000 A 
ATOM      5  C   UNL     1       2.943   6.401  18.260  0.00  0.00    +0.000 A 
ATOM      6  C   UNL     1       2.382   5.138  17.989  0.00  0.00    +0.000 A 
ENDROOT
BRANCH   5   7
ATOM      7  C   UNL     1       2.214   7.426  19.036  0.00  0.00    +0.000 A 
ATOM      8  C   UNL     1       1.867   7.226  20.379  0.00  0.00    +0.000 A 
ATOM      9  C   UNL     1       1.198   8.213  21.101  0.00  0.00    +0.000 A 
ATOM     10  C   UNL     1       0.868   9.430  20.488  0.00  0.00    +0.000 A 
ATOM     11  C   UNL     1       0.212  10.452  21.180  0.00  0.00    +0.000 A 
ATOM     12  C   UNL     1      -0.099  11.638  20.523  0.00  0.00    +0.000 A 
ATOM     13  C   UNL     1       0.252  11.772  19.186  0.00  0.00    +0.000 A 
ATOM     14  C   UNL     1      -0.075  13.016  18.419  0.00  0.00    +0.000 C 
ATOM     15  N   UNL     1       0.894  10.797  18.502  0.00  0.00    +0.000 NA
ATOM     16  C   UNL     1       1.194   9.656  19.141  0.00  0.00    +0.000 A 
ATOM     17  C   UNL     1       1.853   8.655  18.449  0.00  0.00    +0.000 A 
ENDBRANCH   5   7
BRANCH   3  18
ATOM     18  C   UNL     1       6.256   5.975  16.562  0.00  0.00    +0.000 C 
ATOM     19  N   UNL     1       7.321   6.206  16.175  0.00  0.00    +0.000 NA
ENDBRANCH   3  18
BRANCH   1  20
ATOM     20  O   UNL     1       2.409   2.993  17.046  0.00  0.00    +0.000 OA
BRANCH  20  22
ATOM     21  C   UNL     1       3.477   1.430  18.521  0.00  0.00    +0.000 C 
ATOM     22  C   UNL     1       2.205   2.193  18.213  0.00  0.00    +0.000 C 
ENDBRANCH  20  22
ENDBRANCH   1  20
TORSDOF 4
ENDMDL
MODEL 5
REMARK VINA RESULT:      -7.9      2.049      3.111
REMARK  Name = 
REMARK  6 active torsions:
REMARK  status: ('A' for Active; 'I' for Inactive)
REMARK    1  A    between atoms: C_1  and  C_2
REMARK    2  A    between atoms: C_2  and  O_3
REMARK    3  A    between atoms: O_3  and  C_4
REMARK    4  A    between atoms: C_6  and  C_7
REMARK    5  A    between atoms: C_10  and  C_11
REMARK    6  A    between atoms: C_17  and  C_18
REMARK                            x       y       z     vdW  Elec       q    Type
REMARK                         _______ _______ _______ _____ _____    ______ ____
ROOT
ATOM      1  C   UNL     1       5.202   5.442  17.303  0.00  0.00    +0.000 A 
ATOM      2  C   UNL     1       4.582   4.198  17.393  0.00  0.00    +0.000 A 
ATOM      3  C   UNL     1       3.268   4.100  17.839  0.00  0.00    +0.000 A 
ATOM      4  C   UNL     1       2.569   5.248  18.210  0.00  0.00    +0.000 A 
ATOM      5  C   UNL     1       3.166   6.519  18.134  0.00  0.00    +0.000 A 
ATOM      6  C   UNL     1       4.493   6.590  17.667  0.00  0.00    +0.000 A 
ENDROOT
BRANCH   5   7
ATOM      7  C   UNL     1       2.414   7.729  18.529  0.00  0.00    +0.000 A 
ATOM      8  C   UNL     1       2.223   8.799  17.645  0.00  0.00    +0.000 A 
ATOM      9  C   UNL     1       1.493   9.923  18.028  0.00  0.00    +0.000 A 
ATOM     10  C   UNL     1       0.930   9.992  19.311  0.00  0.00    +0.000 A 
ATOM     11  C   UNL     1       0.179  11.093  19.731  0.00  0.00    +0.000 A 
ATOM     12  C   UNL     1      -0.351  11.115  21.017  0.00  0.00    +0.000 A 
ATOM     13  C   UNL     1      -0.112  10.035  21.855  0.00  0.00    +0.000 A 
ATOM     14  C   UNL     1      -0.637  10.010  23.258  0.00  0.00    +0.000 C 
ATOM     15  N   UNL     1       0.607   8.957  21.465  0.00  0.00    +0.000 NA
ATOM     16  C   UNL     1       1.114   8.939  20.222  0.00  0.00    +0.000 A 
ATOM     17  C   UNL     1       1.848   7.839  19.814  0.00  0.00    +0.000 A 
ENDBRANCH   5   7
BRANCH   3  18
ATOM     18  C   UNL     1       2.633   2.817  17.903  0.00  0.00    +0.000 C 
ATOM     19  N   UNL     1       2.118   1.783  17.944  0.00  0.00    +0.000 NA
ENDBRANCH   3  18
BRANCH   1  20
ATOM     20  O   UNL     1       6.488   5.649  16.877  0.00  0.00    +0.000 OA
BRANCH  20  22
ATOM     21  C   UNL     1       7.796   5.709  18.888  0.00  0.00    +0.000 C 
ATOM     22  C   UNL     1       7.500   4.954  17.609  0.00  0.00    +0.000 C 
ENDBRANCH  20  22
ENDBRANCH   1  20
TORSDOF 4
ENDMDL
MODEL 6
REMARK VINA RESULT:      -7.8      2.522      3.729
REMARK  Name = 
REMARK  6 active torsions:
REMARK  status: ('A' for Active; 'I' for Inactive)
REMARK    1  A    between atoms: C_1  and  C_2
REMARK    2  A    between atoms: C_2  and  O_3
REMARK    3  A    between atoms: O_3  and  C_4
REMARK    4  A    between atoms: C_6  and  C_7
REMARK    5  A    between atoms: C_10  and  C_11
REMARK    6  A    between atoms: C_17  and  C_18
REMARK                            x       y       z     vdW  Elec       q    Type
REMARK                         _______ _______ _______ _____ _____    ______ ____
ROOT
ATOM      1  C   UNL     1       4.196   4.345  18.818  0.00  0.00    +0.000 A 
ATOM      2  C   UNL     1       3.608   3.515  19.769  0.00  0.00    +0.000 A 
ATOM      3  C   UNL     1       2.552   3.978  20.548  0.00  0.00    +0.000 A 
ATOM      4  C   UNL     1       2.084   5.281  20.385  0.00  0.00    +0.000 A 
ATOM      5  C   UNL     1       2.656   6.147  19.436  0.00  0.00    +0.000 A 
ATOM      6  C   UNL     1       3.715   5.648  18.654  0.00  0.00    +0.000 A 
ENDROOT
BRANCH   5   7
ATOM      7  C   UNL     1       2.150   7.526  19.273  0.00  0.00    +0.000 A 
ATOM      8  C   UNL     1       2.280   8.221  18.063  0.00  0.00    +0.000 A 
ATOM      9  C   UNL     1       1.778   9.514  17.922  0.00  0.00    +0.000 A 
ATOM     10  C   UNL     1       1.125  10.135  18.996  0.00  0.00    +0.000 A 
ATOM     11  C   UNL     1       0.593  11.424  18.892  0.00  0.00    +0.000 A 
ATOM     12  C   UNL     1      -0.040  11.997  19.990  0.00  0.00    +0.000 A 
ATOM     13  C   UNL     1      -0.122  11.269  21.169  0.00  0.00    +0.000 A 
ATOM     14  C   UNL     1      -0.771  11.841  22.391  0.00  0.00    +0.000 C 
ATOM     15  N   UNL     1       0.380  10.018  21.287  0.00  0.00    +0.000 NA
ATOM     16  C   UNL     1       0.987   9.467  20.223  0.00  0.00    +0.000 A 
ATOM     17  C   UNL     1       1.501   8.187  20.335  0.00  0.00    +0.000 A 
ENDBRANCH   5   7
BRANCH   3  18
ATOM     18  C   UNL     1       1.939   3.106  21.505  0.00  0.00    +0.000 C 
ATOM     19  N   UNL     1       1.436   2.403  22.273  0.00  0.00    +0.000 NA
ENDBRANCH   3  18
BRANCH   1  20
ATOM     20  O   UNL     1       5.237   3.990  18.002  0.00  0.00    +0.000 OA
BRANCH  20  22
ATOM     21  C   UNL     1       7.118   4.568  16.627  0.00  0.00    +0.000 C 
ATOM     22  C   UNL     1       6.193   5.020  17.738  0.00  0.00    +0.000 C 
ENDBRANCH  20  22
ENDBRANCH   1  20
TORSDOF 4
ENDMDL
MODEL 7
REMARK VINA RESULT:      -7.8      2.325      3.917
REMARK  Name = 
REMARK  6 active torsions:
REMARK  status: ('A' for Active; 'I' for Inactive)
REMARK    1  A    between atoms: C_1  and  C_2
REMARK    2  A    between atoms: C_2  and  O_3
REMARK    3  A    between atoms: O_3  and  C_4
REMARK    4  A    between atoms: C_6  and  C_7
REMARK    5  A    between atoms: C_10  and  C_11
REMARK    6  A    between atoms: C_17  and  C_18
REMARK                            x       y       z     vdW  Elec       q    Type
REMARK                         _______ _______ _______ _____ _____    ______ ____
ROOT
ATOM      1  C   UNL     1       4.787   6.181  16.880  0.00  0.00    +0.000 A 
ATOM      2  C   UNL     1       4.392   4.845  16.901  0.00  0.00    +0.000 A 
ATOM      3  C   UNL     1       3.261   4.459  17.614  0.00  0.00    +0.000 A 
ATOM      4  C   UNL     1       2.525   5.408  18.322  0.00  0.00    +0.000 A 
ATOM      5  C   UNL     1       2.897   6.764  18.325  0.00  0.00    +0.000 A 
ATOM      6  C   UNL     1       4.039   7.129  17.585  0.00  0.00    +0.000 A 
ENDROOT
BRANCH   5   7
ATOM      7  C   UNL     1       2.108   7.760  19.079  0.00  0.00    +0.000 A 
ATOM      8  C   UNL     1       1.770   7.568  20.425  0.00  0.00    +0.000 A 
ATOM      9  C   UNL     1       1.042   8.528  21.125  0.00  0.00    +0.000 A 
ATOM     10  C   UNL     1       0.642   9.711  20.487  0.00  0.00    +0.000 A 
ATOM     11  C   UNL     1      -0.075  10.706  21.157  0.00  0.00    +0.000 A 
ATOM     12  C   UNL     1      -0.453  11.859  20.475  0.00  0.00    +0.000 A 
ATOM     13  C   UNL     1      -0.108  11.985  19.136  0.00  0.00    +0.000 A 
ATOM     14  C   UNL     1      -0.506  13.192  18.343  0.00  0.00    +0.000 C 
ATOM     15  N   UNL     1       0.592  11.036  18.473  0.00  0.00    +0.000 NA
ATOM     16  C   UNL     1       0.958   9.928  19.136  0.00  0.00    +0.000 A 
ATOM     17  C   UNL     1       1.676   8.953  18.466  0.00  0.00    +0.000 A 
ENDBRANCH   5   7
BRANCH   3  18
ATOM     18  C   UNL     1       2.851   3.087  17.606  0.00  0.00    +0.000 C 
ATOM     19  N   UNL     1       2.523   1.978  17.610  0.00  0.00    +0.000 NA
ENDBRANCH   3  18
BRANCH   1  20
ATOM     20  O   UNL     1       5.880   6.666  16.212  0.00  0.00    +0.000 OA
BRANCH  20  22
ATOM     21  C   UNL     1       7.623   7.551  17.604  0.00  0.00    +0.000 C 
ATOM     22  C   UNL     1       7.147   6.360  16.797  0.00  0.00    +0.000 C 
ENDBRANCH  20  22
ENDBRANCH   1  20
TORSDOF 4
ENDMDL
MODEL 8
REMARK VINA RESULT:      -7.7      1.605      1.726
REMARK  Name = 
REMARK  6 active torsions:
REMARK  status: ('A' for Active; 'I' for Inactive)
REMARK    1  A    between atoms: C_1  and  C_2
REMARK    2  A    between atoms: C_2  and  O_3
REMARK    3  A    between atoms: O_3  and  C_4
REMARK    4  A    between atoms: C_6  and  C_7
REMARK    5  A    between atoms: C_10  and  C_11
REMARK    6  A    between atoms: C_17  and  C_18
REMARK                            x       y       z     vdW  Elec       q    Type
REMARK                         _______ _______ _______ _____ _____    ______ ____
ROOT
ATOM      1  C   UNL     1       3.112   3.835  19.991  0.00  0.00    +0.000 A 
ATOM      2  C   UNL     1       4.401   3.712  19.477  0.00  0.00    +0.000 A 
ATOM      3  C   UNL     1       5.024   4.801  18.877  0.00  0.00    +0.000 A 
ATOM      4  C   UNL     1       4.355   6.020  18.777  0.00  0.00    +0.000 A 
ATOM      5  C   UNL     1       3.052   6.179  19.283  0.00  0.00    +0.000 A 
ATOM      6  C   UNL     1       2.450   5.063  19.896  0.00  0.00    +0.000 A 
ENDROOT
BRANCH   5   7
ATOM      7  C   UNL     1       2.354   7.477  19.172  0.00  0.00    +0.000 A 
ATOM      8  C   UNL     1       2.335   8.204  17.974  0.00  0.00    +0.000 A 
ATOM      9  C   UNL     1       1.654   9.417  17.883  0.00  0.00    +0.000 A 
ATOM     10  C   UNL     1       0.968   9.923  18.996  0.00  0.00    +0.000 A 
ATOM     11  C   UNL     1       0.259  11.127  18.943  0.00  0.00    +0.000 A 
ATOM     12  C   UNL     1      -0.399  11.588  20.078  0.00  0.00    +0.000 A 
ATOM     13  C   UNL     1      -0.329  10.835  21.242  0.00  0.00    +0.000 A 
ATOM     14  C   UNL     1      -0.998  11.291  22.503  0.00  0.00    +0.000 C 
ATOM     15  N   UNL     1       0.345   9.664  21.312  0.00  0.00    +0.000 NA
ATOM     16  C   UNL     1       0.976   9.222  20.212  0.00  0.00    +0.000 A 
ATOM     17  C   UNL     1       1.667   8.023  20.274  0.00  0.00    +0.000 A 
ENDBRANCH   5   7
BRANCH   3  18
ATOM     18  C   UNL     1       6.359   4.668  18.375  0.00  0.00    +0.000 C 
ATOM     19  N   UNL     1       7.435   4.570  17.963  0.00  0.00    +0.000 NA
ENDBRANCH   3  18
BRANCH   1  20
ATOM     20  O   UNL     1       2.410   2.829  20.600  0.00  0.00    +0.000 OA
BRANCH  20  22
ATOM     21  C   UNL     1       0.922   2.295  18.795  0.00  0.00    +0.000 C 
ATOM     22  C   UNL     1       1.030   2.734  20.240  0.00  0.00    +0.000 C 
ENDBRANCH  20  22
ENDBRANCH   1  20
TORSDOF 4
ENDMDL
MODEL 9
REMARK VINA RESULT:      -7.6      2.673      7.516
REMARK  Name = 
REMARK  6 active torsions:
REMARK  status: ('A' for Active; 'I' for Inactive)
REMARK    1  A    between atoms: C_1  and  C_2
REMARK    2  A    between atoms: C_2  and  O_3
REMARK    3  A    between atoms: O_3  and  C_4
REMARK    4  A    between atoms: C_6  and  C_7
REMARK    5  A    between atoms: C_10  and  C_11
REMARK    6  A    between atoms: C_17  and  C_18
REMARK                            x       y       z     vdW  Elec       q    Type
REMARK                         _______ _______ _______ _____ _____    ______ ____
ROOT
ATOM      1  C   UNL     1       2.075   6.949  20.058  0.00  0.00    +0.000 A 
ATOM      2  C   UNL     1       1.773   5.820  20.815  0.00  0.00    +0.000 A 
ATOM      3  C   UNL     1       2.431   4.618  20.576  0.00  0.00    +0.000 A 
ATOM      4  C   UNL     1       3.389   4.536  19.566  0.00  0.00    +0.000 A 
ATOM      5  C   UNL     1       3.717   5.656  18.780  0.00  0.00    +0.000 A 
ATOM      6  C   UNL     1       3.043   6.863  19.053  0.00  0.00    +0.000 A 
ENDROOT
BRANCH   5   7
ATOM      7  C   UNL     1       4.734   5.556  17.714  0.00  0.00    +0.000 A 
ATOM      8  C   UNL     1       6.011   6.117  17.858  0.00  0.00    +0.000 A 
ATOM      9  C   UNL     1       6.965   5.995  16.849  0.00  0.00    +0.000 A 
ATOM     10  C   UNL     1       6.658   5.297  15.672  0.00  0.00    +0.000 A 
ATOM     11  C   UNL     1       7.590   5.138  14.642  0.00  0.00    +0.000 A 
ATOM     12  C   UNL     1       7.232   4.443  13.492  0.00  0.00    +0.000 A 
ATOM     13  C   UNL     1       5.947   3.927  13.396  0.00  0.00    +0.000 A 
ATOM     14  C   UNL     1       5.496   3.189  12.174  0.00  0.00    +0.000 C 
ATOM     15  N   UNL     1       5.033   4.065  14.385  0.00  0.00    +0.000 NA
ATOM     16  C   UNL     1       5.384   4.733  15.495  0.00  0.00    +0.000 A 
ATOM     17  C   UNL     1       4.456   4.877  16.511  0.00  0.00    +0.000 A 
ENDBRANCH   5   7
BRANCH   3  18
ATOM     18  C   UNL     1       2.130   3.470  21.379  0.00  0.00    +0.000 C 
ATOM     19  N   UNL     1       1.882   2.540  22.018  0.00  0.00    +0.000 NA
ENDBRANCH   3  18
BRANCH   1  20
ATOM     20  O   UNL     1       1.489   8.178  20.212  0.00  0.00    +0.000 OA
BRANCH  20  22
ATOM     21  C   UNL     1      -0.357   8.721  21.646  0.00  0.00    +0.000 C 
ATOM     22  C   UNL     1       1.143   8.533  21.552  0.00  0.00    +0.000 C 
ENDBRANCH  20  22
ENDBRANCH   1  20
TORSDOF 4
ENDMDL
