MODEL 1
REMARK VINA RESULT:      -6.1      0.000      0.000
REMARK  Name = 
REMARK  9 active torsions:
REMARK  status: ('A' for Active; 'I' for Inactive)
REMARK    1  A    between atoms: C_1  and  N_2
REMARK    2  A    between atoms: C_3  and  O_4
REMARK    3  A    between atoms: C_5  and  C_6
REMARK    4  A    between atoms: C_6  and  C_7
REMARK    5  A    between atoms: C_6  and  C_17
REMARK    6  A    between atoms: C_8  and  O_9
REMARK    7  A    between atoms: C_11  and  C_12
REMARK    8  A    between atoms: C_11  and  C_13
REMARK    9  A    between atoms: N_25  and  C_26
REMARK                            x       y       z     vdW  Elec       q    Type
REMARK                         _______ _______ _______ _____ _____    ______ ____
ROOT
ATOM      1  C   UNL     1      -1.390  12.646  21.024  0.00  0.00    +0.000 C 
ENDROOT
BRANCH   1   5
ATOM      2  C   UNL     1      -5.713  12.456  18.490  0.00  0.00    +0.000 C 
ATOM      3  N   UNL     1      -4.306  12.106  18.623  0.00  0.00    +0.000 N 
ATOM      4  C   UNL     1      -3.488  12.669  19.578  0.00  0.00    +0.000 A 
ATOM      5  C   UNL     1      -2.265  12.189  19.850  0.00  0.00    +0.000 A 
ATOM      6  C   UNL     1      -1.821  11.021  19.047  0.00  0.00    +0.000 A 
ATOM      7  O   UNL     1      -0.860  10.344  19.402  0.00  0.00    +0.000 OA
ATOM      8  N   UNL     1      -2.508  10.792  17.876  0.00  0.00    +0.000 N 
ATOM      9  C   UNL     1      -1.970   9.842  16.927  0.00  0.00    +0.000 C 
ATOM     10  C   UNL     1      -3.829  11.177  17.710  0.00  0.00    +0.000 A 
ATOM     11  O   UNL     1      -4.540  10.695  16.823  0.00  0.00    +0.000 OA
BRANCH   4  12
ATOM     12  O   UNL     1      -3.989  13.753  20.255  0.00  0.00    +0.000 OA
ATOM     13  H   UNL     1      -3.944  14.522  19.660  0.00  0.00    +0.000 HD
ENDBRANCH   4  12
ENDBRANCH   1   5
BRANCH   1  14
ATOM     14  C   UNL     1      -0.329  13.615  20.464  0.00  0.00    +0.000 C 
ATOM     15  C   UNL     1      -0.507  14.805  19.847  0.00  0.00    +0.000 C 
ATOM     16  C   UNL     1       0.582  15.585  19.152  0.00  0.00    +0.000 C 
ATOM     17  C   UNL     1       2.013  15.233  19.579  0.00  0.00    +0.000 C 
ATOM     18  C   UNL     1       2.998  15.761  18.520  0.00  0.00    +0.000 C 
ATOM     19  C   UNL     1       2.342  15.893  20.932  0.00  0.00    +0.000 C 
ATOM     20  C   UNL     1       2.150  13.715  19.674  0.00  0.00    +0.000 C 
ATOM     21  C   UNL     1       1.084  13.095  20.548  0.00  0.00    +0.000 C 
ATOM     22  O   UNL     1       1.364  12.121  21.248  0.00  0.00    +0.000 OA
BRANCH  15  23
ATOM     23  O   UNL     1      -1.732  15.420  19.697  0.00  0.00    +0.000 OA
ATOM     24  H   UNL     1      -2.120  15.621  20.572  0.00  0.00    +0.000 HD
ENDBRANCH  15  23
ENDBRANCH   1  14
BRANCH   1  25
ATOM     25  C   UNL     1      -2.102  13.099  22.319  0.00  0.00    +0.000 A 
ATOM     26  C   UNL     1      -1.970  14.379  22.887  0.00  0.00    +0.000 A 
ATOM     27  C   UNL     1      -2.643  14.733  24.060  0.00  0.00    +0.000 A 
ATOM     28  C   UNL     1      -3.501  13.829  24.673  0.00  0.00    +0.000 A 
ATOM     29  C   UNL     1      -3.672  12.564  24.123  0.00  0.00    +0.000 A 
ATOM     30  C   UNL     1      -2.979  12.201  22.962  0.00  0.00    +0.000 A 
ENDBRANCH   1  25
TORSDOF 5
ENDMDL
MODEL 2
REMARK VINA RESULT:      -6.0      2.906      6.068
REMARK  Name = 
REMARK  9 active torsions:
REMARK  status: ('A' for Active; 'I' for Inactive)
REMARK    1  A    between atoms: C_1  and  N_2
REMARK    2  A    between atoms: C_3  and  O_4
REMARK    3  A    between atoms: C_5  and  C_6
REMARK    4  A    between atoms: C_6  and  C_7
REMARK    5  A    between atoms: C_6  and  C_17
REMARK    6  A    between atoms: C_8  and  O_9
REMARK    7  A    between atoms: C_11  and  C_12
REMARK    8  A    between atoms: C_11  and  C_13
REMARK    9  A    between atoms: N_25  and  C_26
REMARK                            x       y       z     vdW  Elec       q    Type
REMARK                         _______ _______ _______ _____ _____    ______ ____
ROOT
ATOM      1  C   UNL     1      -0.376  12.065  18.662  0.00  0.00    +0.000 C 
ENDROOT
BRANCH   1   5
ATOM      2  C   UNL     1       2.152   7.735  18.605  0.00  0.00    +0.000 C 
ATOM      3  N   UNL     1       1.477   8.798  19.335  0.00  0.00    +0.000 N 
ATOM      4  C   UNL     1       1.074   9.971  18.735  0.00  0.00    +0.000 A 
ATOM      5  C   UNL     1       0.258  10.846  19.343  0.00  0.00    +0.000 A 
ATOM      6  C   UNL     1      -0.177  10.495  20.719  0.00  0.00    +0.000 A 
ATOM      7  O   UNL     1      -1.128  11.071  21.242  0.00  0.00    +0.000 OA
ATOM      8  N   UNL     1       0.575   9.544  21.371  0.00  0.00    +0.000 N 
ATOM      9  C   UNL     1       0.369   9.345  22.789  0.00  0.00    +0.000 C 
ATOM     10  C   UNL     1       1.277   8.564  20.688  0.00  0.00    +0.000 A 
ATOM     11  O   UNL     1       1.668   7.536  21.247  0.00  0.00    +0.000 OA
BRANCH   4  12
ATOM     12  O   UNL     1       1.544  10.205  17.467  0.00  0.00    +0.000 OA
ATOM     13  H   UNL     1       0.833  10.636  16.961  0.00  0.00    +0.000 HD
ENDBRANCH   4  12
ENDBRANCH   1   5
BRANCH   1  14
ATOM     14  C   UNL     1      -1.899  11.828  18.606  0.00  0.00    +0.000 C 
ATOM     15  C   UNL     1      -2.877  12.424  19.323  0.00  0.00    +0.000 C 
ATOM     16  C   UNL     1      -4.320  11.981  19.344  0.00  0.00    +0.000 C 
ATOM     17  C   UNL     1      -4.759  11.127  18.148  0.00  0.00    +0.000 C 
ATOM     18  C   UNL     1      -6.070  10.402  18.501  0.00  0.00    +0.000 C 
ATOM     19  C   UNL     1      -5.005  12.020  16.917  0.00  0.00    +0.000 C 
ATOM     20  C   UNL     1      -3.680  10.086  17.850  0.00  0.00    +0.000 C 
ATOM     21  C   UNL     1      -2.312  10.708  17.685  0.00  0.00    +0.000 C 
ATOM     22  O   UNL     1      -1.527  10.235  16.863  0.00  0.00    +0.000 OA
BRANCH  15  23
ATOM     23  O   UNL     1      -2.666  13.467  20.200  0.00  0.00    +0.000 OA
ATOM     24  H   UNL     1      -3.258  13.384  20.974  0.00  0.00    +0.000 HD
ENDBRANCH  15  23
ENDBRANCH   1  14
BRANCH   1  25
ATOM     25  C   UNL     1       0.073  13.467  19.134  0.00  0.00    +0.000 A 
ATOM     26  C   UNL     1       0.825  13.705  20.300  0.00  0.00    +0.000 A 
ATOM     27  C   UNL     1       1.205  14.997  20.675  0.00  0.00    +0.000 A 
ATOM     28  C   UNL     1       0.879  16.082  19.872  0.00  0.00    +0.000 A 
ATOM     29  C   UNL     1       0.156  15.877  18.701  0.00  0.00    +0.000 A 
ATOM     30  C   UNL     1      -0.244  14.586  18.338  0.00  0.00    +0.000 A 
ENDBRANCH   1  25
TORSDOF 5
ENDMDL
MODEL 3
REMARK VINA RESULT:      -5.9      1.288      1.528
REMARK  Name = 
REMARK  9 active torsions:
REMARK  status: ('A' for Active; 'I' for Inactive)
REMARK    1  A    between atoms: C_1  and  N_2
REMARK    2  A    between atoms: C_3  and  O_4
REMARK    3  A    between atoms: C_5  and  C_6
REMARK    4  A    between atoms: C_6  and  C_7
REMARK    5  A    between atoms: C_6  and  C_17
REMARK    6  A    between atoms: C_8  and  O_9
REMARK    7  A    between atoms: C_11  and  C_12
REMARK    8  A    between atoms: C_11  and  C_13
REMARK    9  A    between atoms: N_25  and  C_26
REMARK                            x       y       z     vdW  Elec       q    Type
REMARK                         _______ _______ _______ _____ _____    ______ ____
ROOT
ATOM      1  C   UNL     1      -0.574  12.941  21.205  0.00  0.00    +0.000 C 
ENDROOT
BRANCH   1   5
ATOM      2  C   UNL     1      -3.877  11.090  17.917  0.00  0.00    +0.000 C 
ATOM      3  N   UNL     1      -2.516  11.196  18.423  0.00  0.00    +0.000 N 
ATOM      4  C   UNL     1      -2.148  12.118  19.379  0.00  0.00    +0.000 A 
ATOM      5  C   UNL     1      -0.962  12.068  20.006  0.00  0.00    +0.000 A 
ATOM      6  C   UNL     1      -0.047  10.971  19.600  0.00  0.00    +0.000 A 
ATOM      7  O   UNL     1       0.920  10.672  20.296  0.00  0.00    +0.000 OA
ATOM      8  N   UNL     1      -0.318  10.368  18.393  0.00  0.00    +0.000 N 
ATOM      9  C   UNL     1       0.671   9.481  17.820  0.00  0.00    +0.000 C 
ATOM     10  C   UNL     1      -1.599  10.316  17.867  0.00  0.00    +0.000 A 
ATOM     11  O   UNL     1      -1.905   9.513  16.981  0.00  0.00    +0.000 OA
BRANCH   4  12
ATOM     12  O   UNL     1      -3.062  13.098  19.670  0.00  0.00    +0.000 OA
ATOM     13  H   UNL     1      -3.512  12.849  20.498  0.00  0.00    +0.000 HD
ENDBRANCH   4  12
ENDBRANCH   1   5
BRANCH   1  14
ATOM     14  C   UNL     1       0.150  14.189  20.658  0.00  0.00    +0.000 C 
ATOM     15  C   UNL     1      -0.366  15.244  19.988  0.00  0.00    +0.000 C 
ATOM     16  C   UNL     1       0.452  16.318  19.314  0.00  0.00    +0.000 C 
ATOM     17  C   UNL     1       1.894  16.456  19.819  0.00  0.00    +0.000 C 
ATOM     18  C   UNL     1       2.715  17.249  18.787  0.00  0.00    +0.000 C 
ATOM     19  C   UNL     1       1.919  17.215  21.159  0.00  0.00    +0.000 C 
ATOM     20  C   UNL     1       2.505  15.064  19.978  0.00  0.00    +0.000 C 
ATOM     21  C   UNL     1       1.647  14.153  20.825  0.00  0.00    +0.000 C 
ATOM     22  O   UNL     1       2.186  13.337  21.574  0.00  0.00    +0.000 OA
BRANCH  15  23
ATOM     23  O   UNL     1      -1.714  15.428  19.759  0.00  0.00    +0.000 OA
ATOM     24  H   UNL     1      -2.098  14.633  19.339  0.00  0.00    +0.000 HD
ENDBRANCH  15  23
ENDBRANCH   1  14
BRANCH   1  25
ATOM     25  C   UNL     1      -1.650  13.204  22.283  0.00  0.00    +0.000 A 
ATOM     26  C   UNL     1      -2.011  14.483  22.744  0.00  0.00    +0.000 A 
ATOM     27  C   UNL     1      -2.997  14.658  23.720  0.00  0.00    +0.000 A 
ATOM     28  C   UNL     1      -3.677  13.561  24.232  0.00  0.00    +0.000 A 
ATOM     29  C   UNL     1      -3.359  12.285  23.780  0.00  0.00    +0.000 A 
ATOM     30  C   UNL     1      -2.356  12.107  22.819  0.00  0.00    +0.000 A 
ENDBRANCH   1  25
TORSDOF 5
ENDMDL
MODEL 4
REMARK VINA RESULT:      -5.9      0.193      2.019
REMARK  Name = 
REMARK  9 active torsions:
REMARK  status: ('A' for Active; 'I' for Inactive)
REMARK    1  A    between atoms: C_1  and  N_2
REMARK    2  A    between atoms: C_3  and  O_4
REMARK    3  A    between atoms: C_5  and  C_6
REMARK    4  A    between atoms: C_6  and  C_7
REMARK    5  A    between atoms: C_6  and  C_17
REMARK    6  A    between atoms: C_8  and  O_9
REMARK    7  A    between atoms: C_11  and  C_12
REMARK    8  A    between atoms: C_11  and  C_13
REMARK    9  A    between atoms: N_25  and  C_26
REMARK                            x       y       z     vdW  Elec       q    Type
REMARK                         _______ _______ _______ _____ _____    ______ ____
ROOT
ATOM      1  C   UNL     1      -1.342  12.519  21.122  0.00  0.00    +0.000 C 
ENDROOT
BRANCH   1   5
ATOM      2  C   UNL     1      -2.094   9.984  16.862  0.00  0.00    +0.000 C 
ATOM      3  N   UNL     1      -2.604  10.777  17.971  0.00  0.00    +0.000 N 
ATOM      4  C   UNL     1      -1.841  11.085  19.076  0.00  0.00    +0.000 A 
ATOM      5  C   UNL     1      -2.226  11.996  19.984  0.00  0.00    +0.000 A 
ATOM      6  C   UNL     1      -3.540  12.646  19.748  0.00  0.00    +0.000 A 
ATOM      7  O   UNL     1      -3.848  13.673  20.347  0.00  0.00    +0.000 OA
ATOM      8  N   UNL     1      -4.390  12.003  18.877  0.00  0.00    +0.000 N 
ATOM      9  C   UNL     1      -5.768  12.435  18.801  0.00  0.00    +0.000 C 
ATOM     10  C   UNL     1      -3.922  11.192  17.855  0.00  0.00    +0.000 A 
ATOM     11  O   UNL     1      -4.629  10.889  16.890  0.00  0.00    +0.000 OA
BRANCH   4  12
ATOM     12  O   UNL     1      -0.649  10.417  19.206  0.00  0.00    +0.000 OA
ATOM     13  H   UNL     1      -0.557   9.822  18.440  0.00  0.00    +0.000 HD
ENDBRANCH   4  12
ENDBRANCH   1   5
BRANCH   1  14
ATOM     14  C   UNL     1      -0.296  13.467  20.501  0.00  0.00    +0.000 C 
ATOM     15  C   UNL     1      -0.486  14.654  19.883  0.00  0.00    +0.000 C 
ATOM     16  C   UNL     1       0.578  15.411  19.127  0.00  0.00    +0.000 C 
ATOM     17  C   UNL     1       2.023  15.041  19.486  0.00  0.00    +0.000 C 
ATOM     18  C   UNL     1       2.962  15.543  18.375  0.00  0.00    +0.000 C 
ATOM     19  C   UNL     1       2.430  15.706  20.814  0.00  0.00    +0.000 C 
ATOM     20  C   UNL     1       2.141  13.521  19.588  0.00  0.00    +0.000 C 
ATOM     21  C   UNL     1       1.111  12.925  20.519  0.00  0.00    +0.000 C 
ATOM     22  O   UNL     1       1.411  11.953  21.213  0.00  0.00    +0.000 OA
BRANCH  15  23
ATOM     23  O   UNL     1      -1.708  15.288  19.788  0.00  0.00    +0.000 OA
ATOM     24  H   UNL     1      -1.696  15.939  19.059  0.00  0.00    +0.000 HD
ENDBRANCH  15  23
ENDBRANCH   1  14
BRANCH   1  25
ATOM     25  C   UNL     1      -2.045  13.032  22.400  0.00  0.00    +0.000 A 
ATOM     26  C   UNL     1      -1.837  14.308  22.957  0.00  0.00    +0.000 A 
ATOM     27  C   UNL     1      -2.505  14.718  24.115  0.00  0.00    +0.000 A 
ATOM     28  C   UNL     1      -3.430  13.879  24.723  0.00  0.00    +0.000 A 
ATOM     29  C   UNL     1      -3.674  12.621  24.183  0.00  0.00    +0.000 A 
ATOM     30  C   UNL     1      -2.989  12.201  23.037  0.00  0.00    +0.000 A 
ENDBRANCH   1  25
TORSDOF 5
ENDMDL
MODEL 5
REMARK VINA RESULT:      -5.8      2.883      5.825
REMARK  Name = 
REMARK  9 active torsions:
REMARK  status: ('A' for Active; 'I' for Inactive)
REMARK    1  A    between atoms: C_1  and  N_2
REMARK    2  A    between atoms: C_3  and  O_4
REMARK    3  A    between atoms: C_5  and  C_6
REMARK    4  A    between atoms: C_6  and  C_7
REMARK    5  A    between atoms: C_6  and  C_17
REMARK    6  A    between atoms: C_8  and  O_9
REMARK    7  A    between atoms: C_11  and  C_12
REMARK    8  A    between atoms: C_11  and  C_13
REMARK    9  A    between atoms: N_25  and  C_26
REMARK                            x       y       z     vdW  Elec       q    Type
REMARK                         _______ _______ _______ _____ _____    ______ ____
ROOT
ATOM      1  C   UNL     1      -0.581  11.968  18.795  0.00  0.00    +0.000 C 
ENDROOT
BRANCH   1   5
ATOM      2  C   UNL     1       0.113   9.458  23.081  0.00  0.00    +0.000 C 
ATOM      3  N   UNL     1       0.278   9.573  21.639  0.00  0.00    +0.000 N 
ATOM      4  C   UNL     1      -0.364  10.537  20.892  0.00  0.00    +0.000 A 
ATOM      5  C   UNL     1      -0.042  10.789  19.614  0.00  0.00    +0.000 A 
ATOM      6  C   UNL     1       1.037   9.952  19.029  0.00  0.00    +0.000 A 
ATOM      7  O   UNL     1       1.591  10.284  17.984  0.00  0.00    +0.000 OA
ATOM      8  N   UNL     1       1.325   8.781  19.692  0.00  0.00    +0.000 N 
ATOM      9  C   UNL     1       2.172   7.804  19.043  0.00  0.00    +0.000 C 
ATOM     10  C   UNL     1       1.113   8.633  21.053  0.00  0.00    +0.000 A 
ATOM     11  O   UNL     1       1.662   7.739  21.703  0.00  0.00    +0.000 OA
BRANCH   4  12
ATOM     12  O   UNL     1      -1.355  11.245  21.525  0.00  0.00    +0.000 OA
ATOM     13  H   UNL     1      -0.928  11.903  22.103  0.00  0.00    +0.000 HD
ENDBRANCH   4  12
ENDBRANCH   1   5
BRANCH   1  14
ATOM     14  C   UNL     1      -2.112  11.810  18.703  0.00  0.00    +0.000 C 
ATOM     15  C   UNL     1      -3.075  12.455  19.399  0.00  0.00    +0.000 C 
ATOM     16  C   UNL     1      -4.539  12.087  19.386  0.00  0.00    +0.000 C 
ATOM     17  C   UNL     1      -4.994  11.260  18.177  0.00  0.00    +0.000 C 
ATOM     18  C   UNL     1      -6.349  10.603  18.497  0.00  0.00    +0.000 C 
ATOM     19  C   UNL     1      -5.164  12.167  16.944  0.00  0.00    +0.000 C 
ATOM     20  C   UNL     1      -3.963  10.165  17.901  0.00  0.00    +0.000 C 
ATOM     21  C   UNL     1      -2.562  10.716  17.770  0.00  0.00    +0.000 C 
ATOM     22  O   UNL     1      -1.783  10.205  16.964  0.00  0.00    +0.000 OA
BRANCH  15  23
ATOM     23  O   UNL     1      -2.830  13.484  20.285  0.00  0.00    +0.000 OA
ATOM     24  H   UNL     1      -1.951  13.876  20.114  0.00  0.00    +0.000 HD
ENDBRANCH  15  23
ENDBRANCH   1  14
BRANCH   1  25
ATOM     25  C   UNL     1      -0.067  13.383  19.148  0.00  0.00    +0.000 A 
ATOM     26  C   UNL     1      -0.376  14.541  18.412  0.00  0.00    +0.000 A 
ATOM     27  C   UNL     1       0.116  15.797  18.783  0.00  0.00    +0.000 A 
ATOM     28  C   UNL     1       0.896  15.933  19.923  0.00  0.00    +0.000 A 
ATOM     29  C   UNL     1       1.199  14.810  20.686  0.00  0.00    +0.000 A 
ATOM     30  C   UNL     1       0.726  13.550  20.302  0.00  0.00    +0.000 A 
ENDBRANCH   1  25
TORSDOF 5
ENDMDL
MODEL 6
REMARK VINA RESULT:      -5.8      2.100      2.622
REMARK  Name = 
REMARK  9 active torsions:
REMARK  status: ('A' for Active; 'I' for Inactive)
REMARK    1  A    between atoms: C_1  and  N_2
REMARK    2  A    between atoms: C_3  and  O_4
REMARK    3  A    between atoms: C_5  and  C_6
REMARK    4  A    between atoms: C_6  and  C_7
REMARK    5  A    between atoms: C_6  and  C_17
REMARK    6  A    between atoms: C_8  and  O_9
REMARK    7  A    between atoms: C_11  and  C_12
REMARK    8  A    between atoms: C_11  and  C_13
REMARK    9  A    between atoms: N_25  and  C_26
REMARK                            x       y       z     vdW  Elec       q    Type
REMARK                         _______ _______ _______ _____ _____    ______ ____
ROOT
ATOM      1  C   UNL     1      -0.459  11.090  19.372  0.00  0.00    +0.000 C 
ENDROOT
BRANCH   1   5
ATOM      2  C   UNL     1      -5.322  12.311  19.360  0.00  0.00    +0.000 C 
ATOM      3  N   UNL     1      -4.111  11.927  18.650  0.00  0.00    +0.000 N 
ATOM      4  C   UNL     1      -2.874  11.894  19.257  0.00  0.00    +0.000 A 
ATOM      5  C   UNL     1      -1.804  11.329  18.676  0.00  0.00    +0.000 A 
ATOM      6  C   UNL     1      -2.016  10.753  17.323  0.00  0.00    +0.000 A 
ATOM      7  O   UNL     1      -1.195   9.979  16.836  0.00  0.00    +0.000 OA
ATOM      8  N   UNL     1      -3.136  11.182  16.648  0.00  0.00    +0.000 N 
ATOM      9  C   UNL     1      -3.265  10.867  15.242  0.00  0.00    +0.000 C 
ATOM     10  C   UNL     1      -4.275  11.612  17.310  0.00  0.00    +0.000 A 
ATOM     11  O   UNL     1      -5.370  11.676  16.743  0.00  0.00    +0.000 OA
BRANCH   4  12
ATOM     12  O   UNL     1      -2.784  12.466  20.501  0.00  0.00    +0.000 OA
ATOM     13  H   UNL     1      -3.688  12.678  20.796  0.00  0.00    +0.000 HD
ENDBRANCH   4  12
ENDBRANCH   1   5
BRANCH   1  14
ATOM     14  C   UNL     1       0.421  12.333  19.125  0.00  0.00    +0.000 C 
ATOM     15  C   UNL     1       0.145  13.632  19.379  0.00  0.00    +0.000 C 
ATOM     16  C   UNL     1       0.985  14.796  18.914  0.00  0.00    +0.000 C 
ATOM     17  C   UNL     1       2.437  14.453  18.555  0.00  0.00    +0.000 C 
ATOM     18  C   UNL     1       3.030  15.594  17.709  0.00  0.00    +0.000 C 
ATOM     19  C   UNL     1       3.280  14.297  19.834  0.00  0.00    +0.000 C 
ATOM     20  C   UNL     1       2.460  13.163  17.736  0.00  0.00    +0.000 C 
ATOM     21  C   UNL     1       1.718  12.036  18.417  0.00  0.00    +0.000 C 
ATOM     22  O   UNL     1       2.138  10.883  18.311  0.00  0.00    +0.000 OA
BRANCH  15  23
ATOM     23  O   UNL     1      -0.993  14.068  20.025  0.00  0.00    +0.000 OA
ATOM     24  H   UNL     1      -0.837  14.943  20.433  0.00  0.00    +0.000 HD
ENDBRANCH  15  23
ENDBRANCH   1  14
BRANCH   1  25
ATOM     25  C   UNL     1      -0.484  10.559  20.823  0.00  0.00    +0.000 A 
ATOM     26  C   UNL     1      -0.753  11.355  21.952  0.00  0.00    +0.000 A 
ATOM     27  C   UNL     1      -0.765  10.817  23.242  0.00  0.00    +0.000 A 
ATOM     28  C   UNL     1      -0.551   9.458  23.435  0.00  0.00    +0.000 A 
ATOM     29  C   UNL     1      -0.306   8.640  22.337  0.00  0.00    +0.000 A 
ATOM     30  C   UNL     1      -0.270   9.183  21.047  0.00  0.00    +0.000 A 
ENDBRANCH   1  25
TORSDOF 5
ENDMDL
MODEL 7
REMARK VINA RESULT:      -5.7      1.456      1.995
REMARK  Name = 
REMARK  9 active torsions:
REMARK  status: ('A' for Active; 'I' for Inactive)
REMARK    1  A    between atoms: C_1  and  N_2
REMARK    2  A    between atoms: C_3  and  O_4
REMARK    3  A    between atoms: C_5  and  C_6
REMARK    4  A    between atoms: C_6  and  C_7
REMARK    5  A    between atoms: C_6  and  C_17
REMARK    6  A    between atoms: C_8  and  O_9
REMARK    7  A    between atoms: C_11  and  C_12
REMARK    8  A    between atoms: C_11  and  C_13
REMARK    9  A    between atoms: N_25  and  C_26
REMARK                            x       y       z     vdW  Elec       q    Type
REMARK                         _______ _______ _______ _____ _____    ______ ____
ROOT
ATOM      1  C   UNL     1      -0.000  13.157  21.000  0.00  0.00    +0.000 C 
ENDROOT
BRANCH   1   5
ATOM      2  C   UNL     1      -3.678  11.444  18.053  0.00  0.00    +0.000 C 
ATOM      3  N   UNL     1      -2.285  11.436  18.475  0.00  0.00    +0.000 N 
ATOM      4  C   UNL     1      -1.763  12.380  19.332  0.00  0.00    +0.000 A 
ATOM      5  C   UNL     1      -0.553  12.245  19.897  0.00  0.00    +0.000 A 
ATOM      6  C   UNL     1       0.214  11.028  19.531  0.00  0.00    +0.000 A 
ATOM      7  O   UNL     1       1.186  10.675  20.196  0.00  0.00    +0.000 OA
ATOM      8  N   UNL     1      -0.194  10.371  18.393  0.00  0.00    +0.000 N 
ATOM      9  C   UNL     1       0.658   9.341  17.839  0.00  0.00    +0.000 C 
ATOM     10  C   UNL     1      -1.503  10.422  17.942  0.00  0.00    +0.000 A 
ATOM     11  O   UNL     1      -1.947   9.594  17.141  0.00  0.00    +0.000 OA
BRANCH   4  12
ATOM     12  O   UNL     1      -2.549  13.474  19.593  0.00  0.00    +0.000 OA
ATOM     13  H   UNL     1      -2.449  13.693  20.537  0.00  0.00    +0.000 HD
ENDBRANCH   4  12
ENDBRANCH   1   5
BRANCH   1  14
ATOM     14  C   UNL     1       0.888  14.221  20.323  0.00  0.00    +0.000 C 
ATOM     15  C   UNL     1       0.538  15.178  19.435  0.00  0.00    +0.000 C 
ATOM     16  C   UNL     1       1.513  16.042  18.673  0.00  0.00    +0.000 C 
ATOM     17  C   UNL     1       2.914  16.147  19.290  0.00  0.00    +0.000 C 
ATOM     18  C   UNL     1       3.895  16.671  18.225  0.00  0.00    +0.000 C 
ATOM     19  C   UNL     1       2.902  17.129  20.476  0.00  0.00    +0.000 C 
ATOM     20  C   UNL     1       3.368  14.760  19.744  0.00  0.00    +0.000 C 
ATOM     21  C   UNL     1       2.355  14.090  20.644  0.00  0.00    +0.000 C 
ATOM     22  O   UNL     1       2.745  13.380  21.571  0.00  0.00    +0.000 OA
BRANCH  15  23
ATOM     23  O   UNL     1      -0.760  15.431  19.043  0.00  0.00    +0.000 OA
ATOM     24  H   UNL     1      -0.876  15.214  18.097  0.00  0.00    +0.000 HD
ENDBRANCH  15  23
ENDBRANCH   1  14
BRANCH   1  25
ATOM     25  C   UNL     1      -0.991  13.681  22.064  0.00  0.00    +0.000 A 
ATOM     26  C   UNL     1      -1.888  12.866  22.779  0.00  0.00    +0.000 A 
ATOM     27  C   UNL     1      -2.760  13.398  23.733  0.00  0.00    +0.000 A 
ATOM     28  C   UNL     1      -2.730  14.754  24.028  0.00  0.00    +0.000 A 
ATOM     29  C   UNL     1      -1.839  15.583  23.355  0.00  0.00    +0.000 A 
ATOM     30  C   UNL     1      -0.982  15.055  22.383  0.00  0.00    +0.000 A 
ENDBRANCH   1  25
TORSDOF 5
ENDMDL
MODEL 8
REMARK VINA RESULT:      -5.6      2.316      4.416
REMARK  Name = 
REMARK  9 active torsions:
REMARK  status: ('A' for Active; 'I' for Inactive)
REMARK    1  A    between atoms: C_1  and  N_2
REMARK    2  A    between atoms: C_3  and  O_4
REMARK    3  A    between atoms: C_5  and  C_6
REMARK    4  A    between atoms: C_6  and  C_7
REMARK    5  A    between atoms: C_6  and  C_17
REMARK    6  A    between atoms: C_8  and  O_9
REMARK    7  A    between atoms: C_11  and  C_12
REMARK    8  A    between atoms: C_11  and  C_13
REMARK    9  A    between atoms: N_25  and  C_26
REMARK                            x       y       z     vdW  Elec       q    Type
REMARK                         _______ _______ _______ _____ _____    ______ ____
ROOT
ATOM      1  C   UNL     1      -0.447  11.631  19.623  0.00  0.00    +0.000 C 
ENDROOT
BRANCH   1   5
ATOM      2  C   UNL     1      -3.196  12.515  23.723  0.00  0.00    +0.000 C 
ATOM      3  N   UNL     1      -3.054  12.488  22.274  0.00  0.00    +0.000 N 
ATOM      4  C   UNL     1      -1.840  12.294  21.650  0.00  0.00    +0.000 A 
ATOM      5  C   UNL     1      -1.740  12.044  20.336  0.00  0.00    +0.000 A 
ATOM      6  C   UNL     1      -3.014  12.007  19.573  0.00  0.00    +0.000 A 
ATOM      7  O   UNL     1      -3.058  11.515  18.448  0.00  0.00    +0.000 OA
ATOM      8  N   UNL     1      -4.101  12.598  20.175  0.00  0.00    +0.000 N 
ATOM      9  C   UNL     1      -5.294  12.827  19.389  0.00  0.00    +0.000 C 
ATOM     10  C   UNL     1      -4.221  12.690  21.552  0.00  0.00    +0.000 A 
ATOM     11  O   UNL     1      -5.307  12.906  22.097  0.00  0.00    +0.000 OA
BRANCH   4  12
ATOM     12  O   UNL     1      -0.724  12.362  22.445  0.00  0.00    +0.000 OA
ATOM     13  H   UNL     1      -1.021  12.442  23.369  0.00  0.00    +0.000 HD
ENDBRANCH   4  12
ENDBRANCH   1   5
BRANCH   1  14
ATOM     14  C   UNL     1       0.492  12.855  19.617  0.00  0.00    +0.000 C 
ATOM     15  C   UNL     1       1.507  13.150  20.460  0.00  0.00    +0.000 C 
ATOM     16  C   UNL     1       2.236  14.470  20.499  0.00  0.00    +0.000 C 
ATOM     17  C   UNL     1       2.128  15.314  19.222  0.00  0.00    +0.000 C 
ATOM     18  C   UNL     1       2.528  16.766  19.542  0.00  0.00    +0.000 C 
ATOM     19  C   UNL     1       3.080  14.768  18.140  0.00  0.00    +0.000 C 
ATOM     20  C   UNL     1       0.683  15.293  18.727  0.00  0.00    +0.000 C 
ATOM     21  C   UNL     1       0.148  13.888  18.575  0.00  0.00    +0.000 C 
ATOM     22  O   UNL     1      -0.629  13.631  17.654  0.00  0.00    +0.000 OA
BRANCH  15  23
ATOM     23  O   UNL     1       1.949  12.309  21.460  0.00  0.00    +0.000 OA
ATOM     24  H   UNL     1       2.389  11.526  21.074  0.00  0.00    +0.000 HD
ENDBRANCH  15  23
ENDBRANCH   1  14
BRANCH   1  25
ATOM     25  C   UNL     1       0.199  10.286  20.026  0.00  0.00    +0.000 A 
ATOM     26  C   UNL     1      -0.140   9.563  21.184  0.00  0.00    +0.000 A 
ATOM     27  C   UNL     1       0.477   8.347  21.496  0.00  0.00    +0.000 A 
ATOM     28  C   UNL     1       1.420   7.801  20.635  0.00  0.00    +0.000 A 
ATOM     29  C   UNL     1       1.760   8.481  19.470  0.00  0.00    +0.000 A 
ATOM     30  C   UNL     1       1.159   9.709  19.170  0.00  0.00    +0.000 A 
ENDBRANCH   1  25
TORSDOF 5
ENDMDL
MODEL 9
REMARK VINA RESULT:      -5.6      2.839      6.582
REMARK  Name = 
REMARK  9 active torsions:
REMARK  status: ('A' for Active; 'I' for Inactive)
REMARK    1  A    between atoms: C_1  and  N_2
REMARK    2  A    between atoms: C_3  and  O_4
REMARK    3  A    between atoms: C_5  and  C_6
REMARK    4  A    between atoms: C_6  and  C_7
REMARK    5  A    between atoms: C_6  and  C_17
REMARK    6  A    between atoms: C_8  and  O_9
REMARK    7  A    between atoms: C_11  and  C_12
REMARK    8  A    between atoms: C_11  and  C_13
REMARK    9  A    between atoms: N_25  and  C_26
REMARK                            x       y       z     vdW  Elec       q    Type
REMARK                         _______ _______ _______ _____ _____    ______ ____
ROOT
ATOM      1  C   UNL     1      -1.943  12.991  21.363  0.00  0.00    +0.000 C 
ENDROOT
BRANCH   1   5
ATOM      2  C   UNL     1       0.849  16.430  19.013  0.00  0.00    +0.000 C 
ATOM      3  N   UNL     1       0.214  15.924  20.221  0.00  0.00    +0.000 N 
ATOM      4  C   UNL     1      -0.688  14.882  20.205  0.00  0.00    +0.000 A 
ATOM      5  C   UNL     1      -1.098  14.270  21.327  0.00  0.00    +0.000 A 
ATOM      6  C   UNL     1      -0.542  14.790  22.602  0.00  0.00    +0.000 A 
ATOM      7  O   UNL     1      -0.628  14.134  23.637  0.00  0.00    +0.000 OA
ATOM      8  N   UNL     1       0.009  16.051  22.557  0.00  0.00    +0.000 N 
ATOM      9  C   UNL     1       0.329  16.717  23.801  0.00  0.00    +0.000 C 
ATOM     10  C   UNL     1       0.560  16.572  21.397  0.00  0.00    +0.000 A 
ATOM     11  O   UNL     1       1.334  17.533  21.421  0.00  0.00    +0.000 OA
BRANCH   4  12
ATOM     12  O   UNL     1      -1.149  14.488  18.974  0.00  0.00    +0.000 OA
ATOM     13  H   UNL     1      -1.156  15.270  18.394  0.00  0.00    +0.000 HD
ENDBRANCH   4  12
ENDBRANCH   1   5
BRANCH   1  14
ATOM     14  C   UNL     1      -3.365  13.385  21.813  0.00  0.00    +0.000 C 
ATOM     15  C   UNL     1      -4.205  14.295  21.272  0.00  0.00    +0.000 C 
ATOM     16  C   UNL     1      -5.495  14.758  21.903  0.00  0.00    +0.000 C 
ATOM     17  C   UNL     1      -6.086  13.808  22.954  0.00  0.00    +0.000 C 
ATOM     18  C   UNL     1      -7.117  14.575  23.802  0.00  0.00    +0.000 C 
ATOM     19  C   UNL     1      -6.794  12.626  22.265  0.00  0.00    +0.000 C 
ATOM     20  C   UNL     1      -4.965  13.308  23.864  0.00  0.00    +0.000 C 
ATOM     21  C   UNL     1      -3.814  12.714  23.086  0.00  0.00    +0.000 C 
ATOM     22  O   UNL     1      -3.207  11.746  23.545  0.00  0.00    +0.000 OA
BRANCH  15  23
ATOM     23  O   UNL     1      -3.946  14.989  20.107  0.00  0.00    +0.000 OA
ATOM     24  H   UNL     1      -4.214  14.458  19.330  0.00  0.00    +0.000 HD
ENDBRANCH  15  23
ENDBRANCH   1  14
BRANCH   1  25
ATOM     25  C   UNL     1      -1.859  12.039  20.148  0.00  0.00    +0.000 A 
ATOM     26  C   UNL     1      -2.864  11.912  19.172  0.00  0.00    +0.000 A 
ATOM     27  C   UNL     1      -2.729  11.034  18.092  0.00  0.00    +0.000 A 
ATOM     28  C   UNL     1      -1.567  10.291  17.936  0.00  0.00    +0.000 A 
ATOM     29  C   UNL     1      -0.545  10.411  18.871  0.00  0.00    +0.000 A 
ATOM     30  C   UNL     1      -0.689  11.272  19.965  0.00  0.00    +0.000 A 
ENDBRANCH   1  25
TORSDOF 5
ENDMDL
