MODEL 1
REMARK VINA RESULT:      -7.4      0.000      0.000
REMARK  Name = 
REMARK  10 active torsions:
REMARK  status: ('A' for Active; 'I' for Inactive)
REMARK    1  A    between atoms: C_1  and  O_2
REMARK    2  A    between atoms: O_2  and  C_3
REMARK    3  A    between atoms: C_5  and  O_6
REMARK    4  A    between atoms: C_7  and  C_8
REMARK    5  A    between atoms: C_8  and  C_9
REMARK    6  A    between atoms: C_8  and  C_16
REMARK    7  A    between atoms: C_9  and  C_10
REMARK    8  A    between atoms: C_10  and  N_11
REMARK    9  A    between atoms: C_25  and  O_26
REMARK   10  A    between atoms: O_26  and  C_27
REMARK                            x       y       z     vdW  Elec       q    Type
REMARK                         _______ _______ _______ _____ _____    ______ ____
ROOT
ATOM      1  C   UNL     1       5.585   4.153  17.456  0.00  0.00    +0.000 C 
ENDROOT
BRANCH   1   2
ATOM      2  C   UNL     1       6.571   5.267  17.838  0.00  0.00    +0.000 A 
ATOM      3  C   UNL     1       7.421   5.117  18.966  0.00  0.00    +0.000 A 
ATOM      4  C   UNL     1       8.244   6.169  19.402  0.00  0.00    +0.000 A 
ATOM      5  C   UNL     1       8.186   7.358  18.710  0.00  0.00    +0.000 A 
ATOM      6  C   UNL     1       7.398   7.511  17.609  0.00  0.00    +0.000 A 
ATOM      7  C   UNL     1       6.605   6.490  17.140  0.00  0.00    +0.000 A 
ATOM      8  O   UNL     1       7.464   8.759  17.070  0.00  0.00    +0.000 OA
ATOM      9  C   UNL     1       8.356   9.396  18.003  0.00  0.00    +0.000 C 
ATOM     10  O   UNL     1       8.865   8.504  19.019  0.00  0.00    +0.000 OA
ENDBRANCH   1   2
BRANCH   1  14
ATOM     11  C   UNL     1       2.124   3.952  20.177  0.00  0.00    +0.000 A 
ATOM     12  C   UNL     1       3.146   3.018  20.250  0.00  0.00    +0.000 A 
ATOM     13  C   UNL     1       4.243   3.109  19.388  0.00  0.00    +0.000 A 
ATOM     14  C   UNL     1       4.363   4.119  18.415  0.00  0.00    +0.000 A 
ATOM     15  C   UNL     1       3.330   5.081  18.372  0.00  0.00    +0.000 A 
ATOM     16  C   UNL     1       2.217   4.974  19.237  0.00  0.00    +0.000 A 
BRANCH  11  18
ATOM     17  C   UNL     1       1.229   2.641  21.948  0.00  0.00    +0.000 C 
ATOM     18  O   UNL     1       1.112   3.756  21.074  0.00  0.00    +0.000 OA
ENDBRANCH  11  18
BRANCH  13  19
ATOM     19  O   UNL     1       5.230   2.179  19.541  0.00  0.00    +0.000 OA
ATOM     20  H   UNL     1       5.556   2.204  20.455  0.00  0.00    +0.000 HD
ENDBRANCH  13  19
BRANCH  15  21
ATOM     21  O   UNL     1       3.440   6.100  17.452  0.00  0.00    +0.000 OA
ATOM     22  C   UNL     1       3.110   7.407  17.929  0.00  0.00    +0.000 C 
ENDBRANCH  15  21
ENDBRANCH   1  14
BRANCH   1  23
ATOM     23  C   UNL     1       5.102   4.188  15.971  0.00  0.00    +0.000 C 
BRANCH  23  24
ATOM     24  C   UNL     1       6.094   3.656  14.916  0.00  0.00    +0.000 C 
BRANCH  24  25
ATOM     25  N   UNL     1       5.891   4.306  13.604  0.00  0.00    +0.000 NA
ATOM     26  C   UNL     1       4.957   3.607  12.714  0.00  0.00    +0.000 C 
ATOM     27  C   UNL     1       5.811   2.657  11.901  0.00  0.00    +0.000 C 
ATOM     28  C   UNL     1       7.102   3.424  11.703  0.00  0.00    +0.000 C 
ATOM     29  C   UNL     1       7.145   4.437  12.843  0.00  0.00    +0.000 C 
ENDBRANCH  24  25
ENDBRANCH  23  24
ENDBRANCH   1  23
TORSDOF 8
ENDMDL
MODEL 2
REMARK VINA RESULT:      -7.2      2.692      6.468
REMARK  Name = 
REMARK  10 active torsions:
REMARK  status: ('A' for Active; 'I' for Inactive)
REMARK    1  A    between atoms: C_1  and  O_2
REMARK    2  A    between atoms: O_2  and  C_3
REMARK    3  A    between atoms: C_5  and  O_6
REMARK    4  A    between atoms: C_7  and  C_8
REMARK    5  A    between atoms: C_8  and  C_9
REMARK    6  A    between atoms: C_8  and  C_16
REMARK    7  A    between atoms: C_9  and  C_10
REMARK    8  A    between atoms: C_10  and  N_11
REMARK    9  A    between atoms: C_25  and  O_26
REMARK   10  A    between atoms: O_26  and  C_27
REMARK                            x       y       z     vdW  Elec       q    Type
REMARK                         _______ _______ _______ _____ _____    ______ ____
ROOT
ATOM      1  C   UNL     1       3.754   4.809  18.426  0.00  0.00    +0.000 C 
ENDROOT
BRANCH   1   2
ATOM      2  C   UNL     1       3.132   6.164  18.795  0.00  0.00    +0.000 A 
ATOM      3  C   UNL     1       2.575   6.371  20.085  0.00  0.00    +0.000 A 
ATOM      4  C   UNL     1       1.897   7.560  20.403  0.00  0.00    +0.000 A 
ATOM      5  C   UNL     1       1.774   8.511  19.415  0.00  0.00    +0.000 A 
ATOM      6  C   UNL     1       2.325   8.342  18.181  0.00  0.00    +0.000 A 
ATOM      7  C   UNL     1       3.021   7.203  17.850  0.00  0.00    +0.000 A 
ATOM      8  O   UNL     1       2.086   9.383  17.338  0.00  0.00    +0.000 OA
ATOM      9  C   UNL     1       1.264  10.213  18.179  0.00  0.00    +0.000 C 
ATOM     10  O   UNL     1       1.102   9.698  19.519  0.00  0.00    +0.000 OA
ENDBRANCH   1   2
BRANCH   1  14
ATOM     11  C   UNL     1       6.995   5.182  15.463  0.00  0.00    +0.000 A 
ATOM     12  C   UNL     1       5.779   4.608  15.124  0.00  0.00    +0.000 A 
ATOM     13  C   UNL     1       4.758   4.514  16.075  0.00  0.00    +0.000 A 
ATOM     14  C   UNL     1       4.906   4.971  17.397  0.00  0.00    +0.000 A 
ATOM     15  C   UNL     1       6.139   5.582  17.720  0.00  0.00    +0.000 A 
ATOM     16  C   UNL     1       7.172   5.661  16.757  0.00  0.00    +0.000 A 
BRANCH  11  18
ATOM     17  C   UNL     1       7.442   4.877  13.147  0.00  0.00    +0.000 C 
ATOM     18  O   UNL     1       7.907   5.218  14.446  0.00  0.00    +0.000 OA
ENDBRANCH  11  18
BRANCH  13  19
ATOM     19  O   UNL     1       3.576   3.972  15.662  0.00  0.00    +0.000 OA
ATOM     20  H   UNL     1       3.740   3.369  14.919  0.00  0.00    +0.000 HD
ENDBRANCH  13  19
BRANCH  15  21
ATOM     21  O   UNL     1       6.298   6.071  18.997  0.00  0.00    +0.000 OA
ATOM     22  C   UNL     1       7.547   5.774  19.626  0.00  0.00    +0.000 C 
ENDBRANCH  15  21
ENDBRANCH   1  14
BRANCH   1  23
ATOM     23  C   UNL     1       4.236   3.957  19.643  0.00  0.00    +0.000 C 
BRANCH  23  24
ATOM     24  C   UNL     1       4.112   2.425  19.498  0.00  0.00    +0.000 C 
BRANCH  24  25
ATOM     25  N   UNL     1       2.916   1.910  20.197  0.00  0.00    +0.000 NA
ATOM     26  C   UNL     1       1.746   1.707  19.337  0.00  0.00    +0.000 C 
ATOM     27  C   UNL     1       0.980   3.012  19.384  0.00  0.00    +0.000 C 
ATOM     28  C   UNL     1       1.189   3.493  20.805  0.00  0.00    +0.000 C 
ATOM     29  C   UNL     1       2.468   2.807  21.277  0.00  0.00    +0.000 C 
ENDBRANCH  24  25
ENDBRANCH  23  24
ENDBRANCH   1  23
TORSDOF 8
ENDMDL
MODEL 3
REMARK VINA RESULT:      -7.1      1.041      1.063
REMARK  Name = 
REMARK  10 active torsions:
REMARK  status: ('A' for Active; 'I' for Inactive)
REMARK    1  A    between atoms: C_1  and  O_2
REMARK    2  A    between atoms: O_2  and  C_3
REMARK    3  A    between atoms: C_5  and  O_6
REMARK    4  A    between atoms: C_7  and  C_8
REMARK    5  A    between atoms: C_8  and  C_9
REMARK    6  A    between atoms: C_8  and  C_16
REMARK    7  A    between atoms: C_9  and  C_10
REMARK    8  A    between atoms: C_10  and  N_11
REMARK    9  A    between atoms: C_25  and  O_26
REMARK   10  A    between atoms: O_26  and  C_27
REMARK                            x       y       z     vdW  Elec       q    Type
REMARK                         _______ _______ _______ _____ _____    ______ ____
ROOT
ATOM      1  C   UNL     1       5.598   4.012  16.587  0.00  0.00    +0.000 C 
ENDROOT
BRANCH   1   2
ATOM      2  C   UNL     1       6.543   5.035  17.236  0.00  0.00    +0.000 A 
ATOM      3  C   UNL     1       7.201   4.730  18.457  0.00  0.00    +0.000 A 
ATOM      4  C   UNL     1       7.974   5.694  19.127  0.00  0.00    +0.000 A 
ATOM      5  C   UNL     1       8.058   6.949  18.569  0.00  0.00    +0.000 A 
ATOM      6  C   UNL     1       7.457   7.251  17.384  0.00  0.00    +0.000 A 
ATOM      7  C   UNL     1       6.720   6.321  16.689  0.00  0.00    +0.000 A 
ATOM      8  O   UNL     1       7.642   8.544  17.002  0.00  0.00    +0.000 OA
ATOM      9  C   UNL     1       8.394   9.040  18.124  0.00  0.00    +0.000 C 
ATOM     10  O   UNL     1       8.712   8.026  19.102  0.00  0.00    +0.000 OA
ENDBRANCH   1   2
BRANCH   1  14
ATOM     11  C   UNL     1       1.751   3.654  18.707  0.00  0.00    +0.000 A 
ATOM     12  C   UNL     1       2.530   2.537  18.446  0.00  0.00    +0.000 A 
ATOM     13  C   UNL     1       3.754   2.674  17.785  0.00  0.00    +0.000 A 
ATOM     14  C   UNL     1       4.248   3.918  17.350  0.00  0.00    +0.000 A 
ATOM     15  C   UNL     1       3.460   5.051  17.651  0.00  0.00    +0.000 A 
ATOM     16  C   UNL     1       2.215   4.903  18.306  0.00  0.00    +0.000 A 
BRANCH  11  18
ATOM     17  C   UNL     1       0.674   3.012  20.728  0.00  0.00    +0.000 C 
ATOM     18  O   UNL     1       0.581   3.388  19.360  0.00  0.00    +0.000 OA
ENDBRANCH  11  18
BRANCH  13  19
ATOM     19  O   UNL     1       4.486   1.538  17.594  0.00  0.00    +0.000 OA
ATOM     20  H   UNL     1       4.887   1.559  16.711  0.00  0.00    +0.000 HD
ENDBRANCH  13  19
BRANCH  15  21
ATOM     21  O   UNL     1       3.936   6.285  17.267  0.00  0.00    +0.000 OA
ATOM     22  C   UNL     1       3.253   7.413  17.817  0.00  0.00    +0.000 C 
ENDBRANCH  15  21
ENDBRANCH   1  14
BRANCH   1  23
ATOM     23  C   UNL     1       5.340   4.234  15.063  0.00  0.00    +0.000 C 
BRANCH  23  24
ATOM     24  C   UNL     1       6.513   3.905  14.115  0.00  0.00    +0.000 C 
BRANCH  24  25
ATOM     25  N   UNL     1       6.133   4.090  12.699  0.00  0.00    +0.000 NA
ATOM     26  C   UNL     1       5.048   3.217  12.238  0.00  0.00    +0.000 C 
ATOM     27  C   UNL     1       5.730   1.977  11.699  0.00  0.00    +0.000 C 
ATOM     28  C   UNL     1       7.003   2.516  11.079  0.00  0.00    +0.000 C 
ATOM     29  C   UNL     1       7.259   3.847  11.780  0.00  0.00    +0.000 C 
ENDBRANCH  24  25
ENDBRANCH  23  24
ENDBRANCH   1  23
TORSDOF 8
ENDMDL
MODEL 4
REMARK VINA RESULT:      -6.9      1.172      5.322
REMARK  Name = 
REMARK  10 active torsions:
REMARK  status: ('A' for Active; 'I' for Inactive)
REMARK    1  A    between atoms: C_1  and  O_2
REMARK    2  A    between atoms: O_2  and  C_3
REMARK    3  A    between atoms: C_5  and  O_6
REMARK    4  A    between atoms: C_7  and  C_8
REMARK    5  A    between atoms: C_8  and  C_9
REMARK    6  A    between atoms: C_8  and  C_16
REMARK    7  A    between atoms: C_9  and  C_10
REMARK    8  A    between atoms: C_10  and  N_11
REMARK    9  A    between atoms: C_25  and  O_26
REMARK   10  A    between atoms: O_26  and  C_27
REMARK                            x       y       z     vdW  Elec       q    Type
REMARK                         _______ _______ _______ _____ _____    ______ ____
ROOT
ATOM      1  C   UNL     1       4.934   4.459  16.742  0.00  0.00    +0.000 C 
ENDROOT
BRANCH   1   2
ATOM      2  C   UNL     1       4.196   3.790  17.911  0.00  0.00    +0.000 A 
ATOM      3  C   UNL     1       3.800   2.429  17.825  0.00  0.00    +0.000 A 
ATOM      4  C   UNL     1       3.021   1.832  18.831  0.00  0.00    +0.000 A 
ATOM      5  C   UNL     1       2.639   2.617  19.896  0.00  0.00    +0.000 A 
ATOM      6  C   UNL     1       3.034   3.916  20.010  0.00  0.00    +0.000 A 
ATOM      7  C   UNL     1       3.821   4.519  19.057  0.00  0.00    +0.000 A 
ATOM      8  O   UNL     1       2.546   4.531  21.122  0.00  0.00    +0.000 OA
ATOM      9  C   UNL     1       1.746   3.469  21.673  0.00  0.00    +0.000 C 
ATOM     10  O   UNL     1       1.838   2.231  20.935  0.00  0.00    +0.000 OA
ENDBRANCH   1   2
BRANCH   1  14
ATOM     11  C   UNL     1       7.734   7.517  18.236  0.00  0.00    +0.000 A 
ATOM     12  C   UNL     1       7.977   6.167  18.436  0.00  0.00    +0.000 A 
ATOM     13  C   UNL     1       7.084   5.212  17.940  0.00  0.00    +0.000 A 
ATOM     14  C   UNL     1       5.913   5.557  17.240  0.00  0.00    +0.000 A 
ATOM     15  C   UNL     1       5.694   6.935  17.016  0.00  0.00    +0.000 A 
ATOM     16  C   UNL     1       6.594   7.896  17.533  0.00  0.00    +0.000 A 
BRANCH  11  18
ATOM     17  C   UNL     1       8.661   9.705  18.343  0.00  0.00    +0.000 C 
ATOM     18  O   UNL     1       8.681   8.348  18.765  0.00  0.00    +0.000 OA
ENDBRANCH  11  18
BRANCH  13  19
ATOM     19  O   UNL     1       7.405   3.901  18.141  0.00  0.00    +0.000 OA
ATOM     20  H   UNL     1       6.608   3.356  18.043  0.00  0.00    +0.000 HD
ENDBRANCH  13  19
BRANCH  15  21
ATOM     21  O   UNL     1       4.575   7.299  16.302  0.00  0.00    +0.000 OA
ATOM     22  C   UNL     1       3.450   7.716  17.079  0.00  0.00    +0.000 C 
ENDBRANCH  15  21
ENDBRANCH   1  14
BRANCH   1  23
ATOM     23  C   UNL     1       5.675   3.473  15.785  0.00  0.00    +0.000 C 
BRANCH  23  24
ATOM     24  C   UNL     1       6.796   4.077  14.913  0.00  0.00    +0.000 C 
BRANCH  24  25
ATOM     25  N   UNL     1       6.261   4.638  13.655  0.00  0.00    +0.000 NA
ATOM     26  C   UNL     1       5.205   3.835  13.028  0.00  0.00    +0.000 C 
ATOM     27  C   UNL     1       5.922   2.894  12.083  0.00  0.00    +0.000 C 
ATOM     28  C   UNL     1       7.080   3.724  11.568  0.00  0.00    +0.000 C 
ATOM     29  C   UNL     1       7.303   4.801  12.626  0.00  0.00    +0.000 C 
ENDBRANCH  24  25
ENDBRANCH  23  24
ENDBRANCH   1  23
TORSDOF 8
ENDMDL
MODEL 5
REMARK VINA RESULT:      -6.9      6.256      8.829
REMARK  Name = 
REMARK  10 active torsions:
REMARK  status: ('A' for Active; 'I' for Inactive)
REMARK    1  A    between atoms: C_1  and  O_2
REMARK    2  A    between atoms: O_2  and  C_3
REMARK    3  A    between atoms: C_5  and  O_6
REMARK    4  A    between atoms: C_7  and  C_8
REMARK    5  A    between atoms: C_8  and  C_9
REMARK    6  A    between atoms: C_8  and  C_16
REMARK    7  A    between atoms: C_9  and  C_10
REMARK    8  A    between atoms: C_10  and  N_11
REMARK    9  A    between atoms: C_25  and  O_26
REMARK   10  A    between atoms: O_26  and  C_27
REMARK                            x       y       z     vdW  Elec       q    Type
REMARK                         _______ _______ _______ _____ _____    ______ ____
ROOT
ATOM      1  C   UNL     1       0.299  11.095  18.913  0.00  0.00    +0.000 C 
ENDROOT
BRANCH   1   2
ATOM      2  C   UNL     1       1.195  12.283  19.292  0.00  0.00    +0.000 A 
ATOM      3  C   UNL     1       2.150  12.786  18.368  0.00  0.00    +0.000 A 
ATOM      4  C   UNL     1       3.058  13.793  18.736  0.00  0.00    +0.000 A 
ATOM      5  C   UNL     1       3.004  14.264  20.028  0.00  0.00    +0.000 A 
ATOM      6  C   UNL     1       2.077  13.814  20.920  0.00  0.00    +0.000 A 
ATOM      7  C   UNL     1       1.155  12.852  20.580  0.00  0.00    +0.000 A 
ATOM      8  O   UNL     1       2.190  14.388  22.149  0.00  0.00    +0.000 OA
ATOM      9  C   UNL     1       3.344  15.222  21.939  0.00  0.00    +0.000 C 
ATOM     10  O   UNL     1       3.840  15.195  20.582  0.00  0.00    +0.000 OA
ENDBRANCH   1   2
BRANCH   1  14
ATOM     11  C   UNL     1       2.110   7.223  19.987  0.00  0.00    +0.000 A 
ATOM     12  C   UNL     1       2.300   7.777  18.730  0.00  0.00    +0.000 A 
ATOM     13  C   UNL     1       1.729   9.014  18.415  0.00  0.00    +0.000 A 
ATOM     14  C   UNL     1       0.941   9.742  19.326  0.00  0.00    +0.000 A 
ATOM     15  C   UNL     1       0.782   9.181  20.612  0.00  0.00    +0.000 A 
ATOM     16  C   UNL     1       1.350   7.923  20.919  0.00  0.00    +0.000 A 
BRANCH  11  18
ATOM     17  C   UNL     1       1.882   4.868  20.228  0.00  0.00    +0.000 C 
ATOM     18  O   UNL     1       2.720   6.015  20.172  0.00  0.00    +0.000 OA
ENDBRANCH  11  18
BRANCH  13  19
ATOM     19  O   UNL     1       1.988   9.516  17.173  0.00  0.00    +0.000 OA
ATOM     20  H   UNL     1       1.847  10.477  17.179  0.00  0.00    +0.000 HD
ENDBRANCH  13  19
BRANCH  15  21
ATOM     21  O   UNL     1       0.045   9.890  21.535  0.00  0.00    +0.000 OA
ATOM     22  C   UNL     1       0.126   9.426  22.884  0.00  0.00    +0.000 C 
ENDBRANCH  15  21
ENDBRANCH   1  14
BRANCH   1  23
ATOM     23  C   UNL     1      -1.165  11.181  19.450  0.00  0.00    +0.000 C 
BRANCH  23  24
ATOM     24  C   UNL     1      -2.184  11.907  18.546  0.00  0.00    +0.000 C 
BRANCH  24  25
ATOM     25  N   UNL     1      -3.289  11.010  18.148  0.00  0.00    +0.000 NA
ATOM     26  C   UNL     1      -2.863   9.697  17.652  0.00  0.00    +0.000 C 
ATOM     27  C   UNL     1      -2.708   9.862  16.155  0.00  0.00    +0.000 C 
ATOM     28  C   UNL     1      -3.812  10.834  15.791  0.00  0.00    +0.000 C 
ATOM     29  C   UNL     1      -4.123  11.589  17.080  0.00  0.00    +0.000 C 
ENDBRANCH  24  25
ENDBRANCH  23  24
ENDBRANCH   1  23
TORSDOF 8
ENDMDL
MODEL 6
REMARK VINA RESULT:      -6.8      1.064      1.344
REMARK  Name = 
REMARK  10 active torsions:
REMARK  status: ('A' for Active; 'I' for Inactive)
REMARK    1  A    between atoms: C_1  and  O_2
REMARK    2  A    between atoms: O_2  and  C_3
REMARK    3  A    between atoms: C_5  and  O_6
REMARK    4  A    between atoms: C_7  and  C_8
REMARK    5  A    between atoms: C_8  and  C_9
REMARK    6  A    between atoms: C_8  and  C_16
REMARK    7  A    between atoms: C_9  and  C_10
REMARK    8  A    between atoms: C_10  and  N_11
REMARK    9  A    between atoms: C_25  and  O_26
REMARK   10  A    between atoms: O_26  and  C_27
REMARK                            x       y       z     vdW  Elec       q    Type
REMARK                         _______ _______ _______ _____ _____    ______ ____
ROOT
ATOM      1  C   UNL     1       5.352   4.645  16.435  0.00  0.00    +0.000 C 
ENDROOT
BRANCH   1   2
ATOM      2  C   UNL     1       6.391   5.529  17.140  0.00  0.00    +0.000 A 
ATOM      3  C   UNL     1       7.060   5.063  18.303  0.00  0.00    +0.000 A 
ATOM      4  C   UNL     1       7.925   5.899  19.030  0.00  0.00    +0.000 A 
ATOM      5  C   UNL     1       8.088   7.192  18.588  0.00  0.00    +0.000 A 
ATOM      6  C   UNL     1       7.476   7.649  17.458  0.00  0.00    +0.000 A 
ATOM      7  C   UNL     1       6.649   6.845  16.709  0.00  0.00    +0.000 A 
ATOM      8  O   UNL     1       7.747   8.955  17.191  0.00  0.00    +0.000 OA
ATOM      9  C   UNL     1       8.569   9.286  18.326  0.00  0.00    +0.000 C 
ATOM     10  O   UNL     1       8.838   8.163  19.193  0.00  0.00    +0.000 OA
ENDBRANCH   1   2
BRANCH   1  14
ATOM     11  C   UNL     1       1.798   3.875  18.925  0.00  0.00    +0.000 A 
ATOM     12  C   UNL     1       2.582   2.832  18.457  0.00  0.00    +0.000 A 
ATOM     13  C   UNL     1       3.714   3.098  17.681  0.00  0.00    +0.000 A 
ATOM     14  C   UNL     1       4.106   4.404  17.331  0.00  0.00    +0.000 A 
ATOM     15  C   UNL     1       3.316   5.459  17.841  0.00  0.00    +0.000 A 
ATOM     16  C   UNL     1       2.164   5.180  18.613  0.00  0.00    +0.000 A 
BRANCH  11  18
ATOM     17  C   UNL     1       0.986   3.028  20.994  0.00  0.00    +0.000 C 
ATOM     18  O   UNL     1       0.724   3.484  19.674  0.00  0.00    +0.000 OA
ENDBRANCH  11  18
BRANCH  13  19
ATOM     19  O   UNL     1       4.461   2.026  17.286  0.00  0.00    +0.000 OA
ATOM     20  H   UNL     1       4.948   1.676  18.048  0.00  0.00    +0.000 HD
ENDBRANCH  13  19
BRANCH  15  21
ATOM     21  O   UNL     1       3.696   6.748  17.543  0.00  0.00    +0.000 OA
ATOM     22  C   UNL     1       2.802   7.776  17.974  0.00  0.00    +0.000 C 
ENDBRANCH  15  21
ENDBRANCH   1  14
BRANCH   1  23
ATOM     23  C   UNL     1       4.911   5.150  15.025  0.00  0.00    +0.000 C 
BRANCH  23  24
ATOM     24  C   UNL     1       4.973   4.119  13.878  0.00  0.00    +0.000 C 
BRANCH  24  25
ATOM     25  N   UNL     1       6.361   3.686  13.614  0.00  0.00    +0.000 NA
ATOM     26  C   UNL     1       7.368   4.744  13.748  0.00  0.00    +0.000 C 
ATOM     27  C   UNL     1       7.495   5.356  12.369  0.00  0.00    +0.000 C 
ATOM     28  C   UNL     1       7.305   4.175  11.440  0.00  0.00    +0.000 C 
ATOM     29  C   UNL     1       6.530   3.144  12.255  0.00  0.00    +0.000 C 
ENDBRANCH  24  25
ENDBRANCH  23  24
ENDBRANCH   1  23
TORSDOF 8
ENDMDL
MODEL 7
REMARK VINA RESULT:      -6.8      1.257      5.444
REMARK  Name = 
REMARK  10 active torsions:
REMARK  status: ('A' for Active; 'I' for Inactive)
REMARK    1  A    between atoms: C_1  and  O_2
REMARK    2  A    between atoms: O_2  and  C_3
REMARK    3  A    between atoms: C_5  and  O_6
REMARK    4  A    between atoms: C_7  and  C_8
REMARK    5  A    between atoms: C_8  and  C_9
REMARK    6  A    between atoms: C_8  and  C_16
REMARK    7  A    between atoms: C_9  and  C_10
REMARK    8  A    between atoms: C_10  and  N_11
REMARK    9  A    between atoms: C_25  and  O_26
REMARK   10  A    between atoms: O_26  and  C_27
REMARK                            x       y       z     vdW  Elec       q    Type
REMARK                         _______ _______ _______ _____ _____    ______ ____
ROOT
ATOM      1  C   UNL     1       4.474   4.609  16.746  0.00  0.00    +0.000 C 
ENDROOT
BRANCH   1   2
ATOM      2  C   UNL     1       3.864   3.867  17.944  0.00  0.00    +0.000 A 
ATOM      3  C   UNL     1       3.628   2.468  17.878  0.00  0.00    +0.000 A 
ATOM      4  C   UNL     1       2.964   1.792  18.916  0.00  0.00    +0.000 A 
ATOM      5  C   UNL     1       2.532   2.535  19.991  0.00  0.00    +0.000 A 
ATOM      6  C   UNL     1       2.774   3.873  20.085  0.00  0.00    +0.000 A 
ATOM      7  C   UNL     1       3.449   4.556  19.101  0.00  0.00    +0.000 A 
ATOM      8  O   UNL     1       2.258   4.435  21.213  0.00  0.00    +0.000 OA
ATOM      9  C   UNL     1       1.611   3.291  21.798  0.00  0.00    +0.000 C 
ATOM     10  O   UNL     1       1.821   2.066  21.062  0.00  0.00    +0.000 OA
ENDBRANCH   1   2
BRANCH   1  14
ATOM     11  C   UNL     1       7.559   7.450  18.098  0.00  0.00    +0.000 A 
ATOM     12  C   UNL     1       7.783   6.083  18.134  0.00  0.00    +0.000 A 
ATOM     13  C   UNL     1       6.797   5.199  17.685  0.00  0.00    +0.000 A 
ATOM     14  C   UNL     1       5.550   5.634  17.197  0.00  0.00    +0.000 A 
ATOM     15  C   UNL     1       5.348   7.031  17.137  0.00  0.00    +0.000 A 
ATOM     16  C   UNL     1       6.345   7.918  17.606  0.00  0.00    +0.000 A 
BRANCH  11  18
ATOM     17  C   UNL     1       8.570   9.597  18.265  0.00  0.00    +0.000 C 
ATOM     18  O   UNL     1       8.600   8.206  18.560  0.00  0.00    +0.000 OA
ENDBRANCH  11  18
BRANCH  13  19
ATOM     19  O   UNL     1       7.099   3.868  17.714  0.00  0.00    +0.000 OA
ATOM     20  H   UNL     1       7.523   3.617  16.878  0.00  0.00    +0.000 HD
ENDBRANCH  13  19
BRANCH  15  21
ATOM     21  O   UNL     1       4.151   7.485  16.631  0.00  0.00    +0.000 OA
ATOM     22  C   UNL     1       3.178   7.884  17.598  0.00  0.00    +0.000 C 
ENDBRANCH  15  21
ENDBRANCH   1  14
BRANCH   1  23
ATOM     23  C   UNL     1       5.048   3.684  15.627  0.00  0.00    +0.000 C 
BRANCH  23  24
ATOM     24  C   UNL     1       5.382   4.363  14.281  0.00  0.00    +0.000 C 
BRANCH  24  25
ATOM     25  N   UNL     1       6.657   3.864  13.725  0.00  0.00    +0.000 NA
ATOM     26  C   UNL     1       7.775   4.810  13.815  0.00  0.00    +0.000 C 
ATOM     27  C   UNL     1       7.738   5.601  12.525  0.00  0.00    +0.000 C 
ATOM     28  C   UNL     1       7.281   4.584  11.500  0.00  0.00    +0.000 C 
ATOM     29  C   UNL     1       6.546   3.512  12.299  0.00  0.00    +0.000 C 
ENDBRANCH  24  25
ENDBRANCH  23  24
ENDBRANCH   1  23
TORSDOF 8
ENDMDL
MODEL 8
REMARK VINA RESULT:      -6.8      2.635      6.619
REMARK  Name = 
REMARK  10 active torsions:
REMARK  status: ('A' for Active; 'I' for Inactive)
REMARK    1  A    between atoms: C_1  and  O_2
REMARK    2  A    between atoms: O_2  and  C_3
REMARK    3  A    between atoms: C_5  and  O_6
REMARK    4  A    between atoms: C_7  and  C_8
REMARK    5  A    between atoms: C_8  and  C_9
REMARK    6  A    between atoms: C_8  and  C_16
REMARK    7  A    between atoms: C_9  and  C_10
REMARK    8  A    between atoms: C_10  and  N_11
REMARK    9  A    between atoms: C_25  and  O_26
REMARK   10  A    between atoms: O_26  and  C_27
REMARK                            x       y       z     vdW  Elec       q    Type
REMARK                         _______ _______ _______ _____ _____    ______ ____
ROOT
ATOM      1  C   UNL     1       3.715   4.840  18.425  0.00  0.00    +0.000 C 
ENDROOT
BRANCH   1   2
ATOM      2  C   UNL     1       2.977   6.172  18.626  0.00  0.00    +0.000 A 
ATOM      3  C   UNL     1       2.971   7.152  17.597  0.00  0.00    +0.000 A 
ATOM      4  C   UNL     1       2.405   8.421  17.804  0.00  0.00    +0.000 A 
ATOM      5  C   UNL     1       1.871   8.690  19.044  0.00  0.00    +0.000 A 
ATOM      6  C   UNL     1       1.841   7.754  20.034  0.00  0.00    +0.000 A 
ATOM      7  C   UNL     1       2.360   6.493  19.851  0.00  0.00    +0.000 A 
ATOM      8  O   UNL     1       1.287   8.210  21.189  0.00  0.00    +0.000 OA
ATOM      9  C   UNL     1       1.015   9.575  20.824  0.00  0.00    +0.000 C 
ATOM     10  O   UNL     1       1.331   9.881  19.448  0.00  0.00    +0.000 OA
ENDBRANCH   1   2
BRANCH   1  14
ATOM     11  C   UNL     1       6.988   5.149  15.490  0.00  0.00    +0.000 A 
ATOM     12  C   UNL     1       5.773   4.576  15.148  0.00  0.00    +0.000 A 
ATOM     13  C   UNL     1       4.742   4.502  16.089  0.00  0.00    +0.000 A 
ATOM     14  C   UNL     1       4.878   4.980  17.406  0.00  0.00    +0.000 A 
ATOM     15  C   UNL     1       6.110   5.590  17.732  0.00  0.00    +0.000 A 
ATOM     16  C   UNL     1       7.153   5.648  16.779  0.00  0.00    +0.000 A 
BRANCH  11  18
ATOM     17  C   UNL     1       7.435   4.919  13.166  0.00  0.00    +0.000 C 
ATOM     18  O   UNL     1       7.910   5.164  14.483  0.00  0.00    +0.000 OA
ENDBRANCH  11  18
BRANCH  13  19
ATOM     19  O   UNL     1       3.561   3.959  15.673  0.00  0.00    +0.000 OA
ATOM     20  H   UNL     1       3.227   4.461  14.912  0.00  0.00    +0.000 HD
ENDBRANCH  13  19
BRANCH  15  21
ATOM     21  O   UNL     1       6.259   6.099  19.002  0.00  0.00    +0.000 OA
ATOM     22  C   UNL     1       7.503   5.815  19.645  0.00  0.00    +0.000 C 
ENDBRANCH  15  21
ENDBRANCH   1  14
BRANCH   1  23
ATOM     23  C   UNL     1       4.228   4.172  19.739  0.00  0.00    +0.000 C 
BRANCH  23  24
ATOM     24  C   UNL     1       4.233   2.629  19.766  0.00  0.00    +0.000 C 
BRANCH  24  25
ATOM     25  N   UNL     1       3.038   2.095  20.452  0.00  0.00    +0.000 NA
ATOM     26  C   UNL     1       1.960   1.663  19.555  0.00  0.00    +0.000 C 
ATOM     27  C   UNL     1       1.079   2.881  19.371  0.00  0.00    +0.000 C 
ATOM     28  C   UNL     1       1.135   3.565  20.721  0.00  0.00    +0.000 C 
ATOM     29  C   UNL     1       2.429   3.078  21.365  0.00  0.00    +0.000 C 
ENDBRANCH  24  25
ENDBRANCH  23  24
ENDBRANCH   1  23
TORSDOF 8
ENDMDL
MODEL 9
REMARK VINA RESULT:      -6.7      2.944      5.940
REMARK  Name = 
REMARK  10 active torsions:
REMARK  status: ('A' for Active; 'I' for Inactive)
REMARK    1  A    between atoms: C_1  and  O_2
REMARK    2  A    between atoms: O_2  and  C_3
REMARK    3  A    between atoms: C_5  and  O_6
REMARK    4  A    between atoms: C_7  and  C_8
REMARK    5  A    between atoms: C_8  and  C_9
REMARK    6  A    between atoms: C_8  and  C_16
REMARK    7  A    between atoms: C_9  and  C_10
REMARK    8  A    between atoms: C_10  and  N_11
REMARK    9  A    between atoms: C_25  and  O_26
REMARK   10  A    between atoms: O_26  and  C_27
REMARK                            x       y       z     vdW  Elec       q    Type
REMARK                         _______ _______ _______ _____ _____    ______ ____
ROOT
ATOM      1  C   UNL     1       3.037   6.772  17.608  0.00  0.00    +0.000 C 
ENDROOT
BRANCH   1   2
ATOM      2  C   UNL     1       2.807   5.262  17.771  0.00  0.00    +0.000 A 
ATOM      3  C   UNL     1       1.498   4.720  17.674  0.00  0.00    +0.000 A 
ATOM      4  C   UNL     1       1.251   3.362  17.937  0.00  0.00    +0.000 A 
ATOM      5  C   UNL     1       2.319   2.576  18.309  0.00  0.00    +0.000 A 
ATOM      6  C   UNL     1       3.586   3.072  18.380  0.00  0.00    +0.000 A 
ATOM      7  C   UNL     1       3.864   4.389  18.098  0.00  0.00    +0.000 A 
ATOM      8  O   UNL     1       4.503   2.149  18.778  0.00  0.00    +0.000 OA
ATOM      9  C   UNL     1       3.646   1.015  19.003  0.00  0.00    +0.000 C 
ATOM     10  O   UNL     1       2.264   1.255  18.659  0.00  0.00    +0.000 OA
ENDBRANCH   1   2
BRANCH   1  14
ATOM     11  C   UNL     1       1.029   9.156  20.723  0.00  0.00    +0.000 A 
ATOM     12  C   UNL     1       1.102   9.607  19.414  0.00  0.00    +0.000 A 
ATOM     13  C   UNL     1       1.729   8.828  18.438  0.00  0.00    +0.000 A 
ATOM     14  C   UNL     1       2.318   7.581  18.722  0.00  0.00    +0.000 A 
ATOM     15  C   UNL     1       2.210   7.120  20.052  0.00  0.00    +0.000 A 
ATOM     16  C   UNL     1       1.586   7.921  21.038  0.00  0.00    +0.000 A 
BRANCH  11  18
ATOM     17  C   UNL     1       0.109   9.519  22.886  0.00  0.00    +0.000 C 
ATOM     18  O   UNL     1       0.389  10.006  21.580  0.00  0.00    +0.000 OA
ENDBRANCH  11  18
BRANCH  13  19
ATOM     19  O   UNL     1       1.731   9.316  17.163  0.00  0.00    +0.000 OA
ATOM     20  H   UNL     1       1.278   8.687  16.578  0.00  0.00    +0.000 HD
ENDBRANCH  13  19
BRANCH  15  21
ATOM     21  O   UNL     1       2.746   5.888  20.351  0.00  0.00    +0.000 OA
ATOM     22  C   UNL     1       1.946   5.047  21.185  0.00  0.00    +0.000 C 
ENDBRANCH  15  21
ENDBRANCH   1  14
BRANCH   1  23
ATOM     23  C   UNL     1       4.535   7.200  17.513  0.00  0.00    +0.000 C 
BRANCH  23  24
ATOM     24  C   UNL     1       5.283   6.796  16.224  0.00  0.00    +0.000 C 
BRANCH  24  25
ATOM     25  N   UNL     1       6.742   6.717  16.446  0.00  0.00    +0.000 NA
ATOM     26  C   UNL     1       7.347   5.432  16.080  0.00  0.00    +0.000 C 
ATOM     27  C   UNL     1       7.299   4.592  17.339  0.00  0.00    +0.000 C 
ATOM     28  C   UNL     1       7.524   5.600  18.446  0.00  0.00    +0.000 C 
ATOM     29  C   UNL     1       7.107   6.944  17.855  0.00  0.00    +0.000 C 
ENDBRANCH  24  25
ENDBRANCH  23  24
ENDBRANCH   1  23
TORSDOF 8
ENDMDL
