MODEL 1
REMARK VINA RESULT:      -6.6      0.000      0.000
REMARK  Name = 
REMARK  5 active torsions:
REMARK  status: ('A' for Active; 'I' for Inactive)
REMARK    1  A    between atoms: C_2  and  O_3
REMARK    2  A    between atoms: C_2  and  C_4
REMARK    3  A    between atoms: C_4  and  N_5
REMARK    4  A    between atoms: N_12  and  C_13
REMARK    5  A    between atoms: C_13  and  C_14
REMARK                            x       y       z     vdW  Elec       q    Type
REMARK                         _______ _______ _______ _____ _____    ______ ____
ROOT
ATOM      1  N   UNL     1      10.174  14.656  18.804  0.00  0.00    +0.000 N 
ATOM      2  C   UNL     1       9.305  15.667  18.385  0.00  0.00    +0.000 C 
ATOM      3  O   UNL     1       9.604  16.535  17.576  0.00  0.00    +0.000 OA
ATOM      4  C   UNL     1       8.023  15.551  19.238  0.00  0.00    +0.000 C 
ATOM      5  N   UNL     1       7.605  16.793  19.825  0.00  0.00    +0.000 N 
ATOM      6  C   UNL     1       6.326  17.123  19.439  0.00  0.00    +0.000 C 
ATOM      7  O   UNL     1       5.797  18.186  19.711  0.00  0.00    +0.000 OA
ATOM      8  N   UNL     1       5.804  16.089  18.723  0.00  0.00    +0.000 N 
ATOM      9  C   UNL     1       6.777  15.164  18.452  0.00  0.00    +0.000 C 
ATOM     10  O   UNL     1       6.659  14.169  17.749  0.00  0.00    +0.000 OA
ATOM     11  C   UNL     1       8.393  14.488  20.232  0.00  0.00    +0.000 A 
ATOM     12  C   UNL     1       7.649  13.957  21.275  0.00  0.00    +0.000 A 
ATOM     13  C   UNL     1       8.205  12.909  22.007  0.00  0.00    +0.000 A 
ATOM     14 CL   UNL     1       7.300  12.196  23.284  0.00  0.00    +0.000 Cl
ATOM     15  C   UNL     1       9.487  12.419  21.708  0.00  0.00    +0.000 A 
ATOM     16  C   UNL     1      10.230  12.961  20.652  0.00  0.00    +0.000 A 
ATOM     17  C   UNL     1       9.658  13.982  19.915  0.00  0.00    +0.000 A 
ATOM     18  H   UNL     1       8.212  17.492  20.234  0.00  0.00    +0.000 HD
ENDROOT
BRANCH   1  19
ATOM     19  C   UNL     1      11.481  14.412  18.225  0.00  0.00    +0.000 C 
BRANCH  19  21
ATOM     20  O   UNL     1      11.442  12.169  17.317  0.00  0.00    +0.000 OA
ATOM     21  C   UNL     1      11.417  13.374  17.118  0.00  0.00    +0.000 C 
BRANCH  21  22
ATOM     22  O   UNL     1      11.254  13.902  15.882  0.00  0.00    +0.000 OA
ATOM     23  H   UNL     1      10.395  14.364  15.760  0.00  0.00    +0.000 HD
ENDBRANCH  21  22
ENDBRANCH  19  21
ENDBRANCH   1  19
BRANCH   8  24
ATOM     24  C   UNL     1       4.439  16.034  18.235  0.00  0.00    +0.000 C 
BRANCH  24  25
ATOM     25  C   UNL     1       3.638  14.965  18.921  0.00  0.00    +0.000 A 
ATOM     26  C   UNL     1       3.226  13.816  18.227  0.00  0.00    +0.000 A 
ATOM     27  C   UNL     1       2.378  12.891  18.830  0.00  0.00    +0.000 A 
ATOM     28  C   UNL     1       1.953  13.085  20.144  0.00  0.00    +0.000 A 
ATOM     29  C   UNL     1       2.407  14.189  20.863  0.00  0.00    +0.000 A 
ATOM     30  C   UNL     1       3.245  15.115  20.251  0.00  0.00    +0.000 A 
ATOM     31  F   UNL     1       3.675  16.166  20.964  0.00  0.00    +0.000 F 
ENDBRANCH  24  25
ENDBRANCH   8  24
TORSDOF 5
ENDMDL
MODEL 2
REMARK VINA RESULT:      -6.5      1.138      1.438
REMARK  Name = 
REMARK  5 active torsions:
REMARK  status: ('A' for Active; 'I' for Inactive)
REMARK    1  A    between atoms: C_2  and  O_3
REMARK    2  A    between atoms: C_2  and  C_4
REMARK    3  A    between atoms: C_4  and  N_5
REMARK    4  A    between atoms: N_12  and  C_13
REMARK    5  A    between atoms: C_13  and  C_14
REMARK                            x       y       z     vdW  Elec       q    Type
REMARK                         _______ _______ _______ _____ _____    ______ ____
ROOT
ATOM      1  N   UNL     1      10.562  14.095  19.005  0.00  0.00    +0.000 N 
ATOM      2  C   UNL     1       9.950  15.300  18.648  0.00  0.00    +0.000 C 
ATOM      3  O   UNL     1      10.448  16.123  17.891  0.00  0.00    +0.000 OA
ATOM      4  C   UNL     1       8.664  15.428  19.492  0.00  0.00    +0.000 C 
ATOM      5  N   UNL     1       8.530  16.697  20.152  0.00  0.00    +0.000 N 
ATOM      6  C   UNL     1       7.364  17.330  19.787  0.00  0.00    +0.000 C 
ATOM      7  O   UNL     1       7.086  18.467  20.121  0.00  0.00    +0.000 OA
ATOM      8  N   UNL     1       6.631  16.484  19.011  0.00  0.00    +0.000 N 
ATOM      9  C   UNL     1       7.373  15.380  18.686  0.00  0.00    +0.000 C 
ATOM     10  O   UNL     1       7.042  14.479  17.925  0.00  0.00    +0.000 OA
ATOM     11  C   UNL     1       8.772  14.253  20.422  0.00  0.00    +0.000 A 
ATOM     12  C   UNL     1       7.912  13.845  21.432  0.00  0.00    +0.000 A 
ATOM     13  C   UNL     1       8.208  12.658  22.100  0.00  0.00    +0.000 A 
ATOM     14 CL   UNL     1       7.149  12.096  23.333  0.00  0.00    +0.000 Cl
ATOM     15  C   UNL     1       9.349  11.909  21.772  0.00  0.00    +0.000 A 
ATOM     16  C   UNL     1      10.210  12.328  20.750  0.00  0.00    +0.000 A 
ATOM     17  C   UNL     1       9.892  13.493  20.074  0.00  0.00    +0.000 A 
ATOM     18  H   UNL     1       9.274  17.215  20.601  0.00  0.00    +0.000 HD
ENDROOT
BRANCH   1  19
ATOM     19  C   UNL     1      11.787  13.596  18.412  0.00  0.00    +0.000 C 
BRANCH  19  21
ATOM     20  O   UNL     1      10.879  11.620  17.350  0.00  0.00    +0.000 OA
ATOM     21  C   UNL     1      11.504  12.664  17.246  0.00  0.00    +0.000 C 
BRANCH  21  22
ATOM     22  O   UNL     1      11.947  13.130  16.054  0.00  0.00    +0.000 OA
ATOM     23  H   UNL     1      12.433  13.982  16.119  0.00  0.00    +0.000 HD
ENDBRANCH  21  22
ENDBRANCH  19  21
ENDBRANCH   1  19
BRANCH   8  24
ATOM     24  C   UNL     1       5.296  16.767  18.522  0.00  0.00    +0.000 C 
BRANCH  24  25
ATOM     25  C   UNL     1       4.308  15.713  18.933  0.00  0.00    +0.000 A 
ATOM     26  C   UNL     1       4.202  15.309  20.274  0.00  0.00    +0.000 A 
ATOM     27  C   UNL     1       3.377  14.245  20.629  0.00  0.00    +0.000 A 
ATOM     28  C   UNL     1       2.625  13.588  19.656  0.00  0.00    +0.000 A 
ATOM     29  C   UNL     1       2.674  14.023  18.332  0.00  0.00    +0.000 A 
ATOM     30  C   UNL     1       3.508  15.079  17.982  0.00  0.00    +0.000 A 
ATOM     31  F   UNL     1       3.534  15.484  16.704  0.00  0.00    +0.000 F 
ENDBRANCH  24  25
ENDBRANCH   8  24
TORSDOF 5
ENDMDL
MODEL 3
REMARK VINA RESULT:      -6.4      0.890      1.284
REMARK  Name = 
REMARK  5 active torsions:
REMARK  status: ('A' for Active; 'I' for Inactive)
REMARK    1  A    between atoms: C_2  and  O_3
REMARK    2  A    between atoms: C_2  and  C_4
REMARK    3  A    between atoms: C_4  and  N_5
REMARK    4  A    between atoms: N_12  and  C_13
REMARK    5  A    between atoms: C_13  and  C_14
REMARK                            x       y       z     vdW  Elec       q    Type
REMARK                         _______ _______ _______ _____ _____    ______ ____
ROOT
ATOM      1  N   UNL     1      10.177  14.434  18.765  0.00  0.00    +0.000 N 
ATOM      2  C   UNL     1       9.353  15.472  18.321  0.00  0.00    +0.000 C 
ATOM      3  O   UNL     1       9.678  16.289  17.470  0.00  0.00    +0.000 OA
ATOM      4  C   UNL     1       8.085  15.458  19.202  0.00  0.00    +0.000 C 
ATOM      5  N   UNL     1       7.744  16.743  19.745  0.00  0.00    +0.000 N 
ATOM      6  C   UNL     1       6.475  17.123  19.371  0.00  0.00    +0.000 C 
ATOM      7  O   UNL     1       6.008  18.222  19.608  0.00  0.00    +0.000 OA
ATOM      8  N   UNL     1       5.886  16.089  18.709  0.00  0.00    +0.000 N 
ATOM      9  C   UNL     1       6.804  15.105  18.458  0.00  0.00    +0.000 C 
ATOM     10  O   UNL     1       6.620  14.089  17.800  0.00  0.00    +0.000 OA
ATOM     11  C   UNL     1       8.422  14.419  20.233  0.00  0.00    +0.000 A 
ATOM     12  C   UNL     1       7.674  13.970  21.312  0.00  0.00    +0.000 A 
ATOM     13  C   UNL     1       8.192  12.925  22.076  0.00  0.00    +0.000 A 
ATOM     14 CL   UNL     1       7.280  12.313  23.400  0.00  0.00    +0.000 Cl
ATOM     15  C   UNL     1       9.440  12.358  21.773  0.00  0.00    +0.000 A 
ATOM     16  C   UNL     1      10.187  12.816  20.681  0.00  0.00    +0.000 A 
ATOM     17  C   UNL     1       9.651  13.834  19.913  0.00  0.00    +0.000 A 
ATOM     18  H   UNL     1       8.395  17.426  20.112  0.00  0.00    +0.000 HD
ENDROOT
BRANCH   1  19
ATOM     19  C   UNL     1      11.457  14.099  18.171  0.00  0.00    +0.000 C 
BRANCH  19  21
ATOM     20  O   UNL     1      10.824  11.917  17.338  0.00  0.00    +0.000 OA
ATOM     21  C   UNL     1      11.318  13.013  17.119  0.00  0.00    +0.000 C 
BRANCH  21  22
ATOM     22  O   UNL     1      11.726  13.391  15.884  0.00  0.00    +0.000 OA
ATOM     23  H   UNL     1      12.116  12.660  15.356  0.00  0.00    +0.000 HD
ENDBRANCH  21  22
ENDBRANCH  19  21
ENDBRANCH   1  19
BRANCH   8  24
ATOM     24  C   UNL     1       4.510  16.085  18.251  0.00  0.00    +0.000 C 
BRANCH  24  25
ATOM     25  C   UNL     1       3.579  15.485  19.265  0.00  0.00    +0.000 A 
ATOM     26  C   UNL     1       3.114  16.242  20.353  0.00  0.00    +0.000 A 
ATOM     27  C   UNL     1       2.355  15.646  21.357  0.00  0.00    +0.000 A 
ATOM     28  C   UNL     1       2.026  14.294  21.275  0.00  0.00    +0.000 A 
ATOM     29  C   UNL     1       2.428  13.549  20.168  0.00  0.00    +0.000 A 
ATOM     30  C   UNL     1       3.195  14.147  19.174  0.00  0.00    +0.000 A 
ATOM     31  F   UNL     1       3.566  13.413  18.115  0.00  0.00    +0.000 F 
ENDBRANCH  24  25
ENDBRANCH   8  24
TORSDOF 5
ENDMDL
MODEL 4
REMARK VINA RESULT:      -6.4      7.441     10.491
REMARK  Name = 
REMARK  5 active torsions:
REMARK  status: ('A' for Active; 'I' for Inactive)
REMARK    1  A    between atoms: C_2  and  O_3
REMARK    2  A    between atoms: C_2  and  C_4
REMARK    3  A    between atoms: C_4  and  N_5
REMARK    4  A    between atoms: N_12  and  C_13
REMARK    5  A    between atoms: C_13  and  C_14
REMARK                            x       y       z     vdW  Elec       q    Type
REMARK                         _______ _______ _______ _____ _____    ______ ____
ROOT
ATOM      1  N   UNL     1      -2.664  10.563  17.633  0.00  0.00    +0.000 N 
ATOM      2  C   UNL     1      -1.332  10.519  18.055  0.00  0.00    +0.000 C 
ATOM      3  O   UNL     1      -0.504   9.726  17.629  0.00  0.00    +0.000 OA
ATOM      4  C   UNL     1      -1.190  11.521  19.222  0.00  0.00    +0.000 C 
ATOM      5  N   UNL     1      -0.543  10.970  20.380  0.00  0.00    +0.000 N 
ATOM      6  C   UNL     1       0.581  11.690  20.715  0.00  0.00    +0.000 C 
ATOM      7  O   UNL     1       1.360  11.349  21.587  0.00  0.00    +0.000 OA
ATOM      8  N   UNL     1       0.650  12.790  19.916  0.00  0.00    +0.000 N 
ATOM      9  C   UNL     1      -0.290  12.712  18.923  0.00  0.00    +0.000 C 
ATOM     10  O   UNL     1      -0.426  13.490  17.987  0.00  0.00    +0.000 OA
ATOM     11  C   UNL     1      -2.610  11.952  19.451  0.00  0.00    +0.000 A 
ATOM     12  C   UNL     1      -3.124  12.838  20.387  0.00  0.00    +0.000 A 
ATOM     13  C   UNL     1      -4.486  13.129  20.332  0.00  0.00    +0.000 A 
ATOM     14 CL   UNL     1      -5.157  14.251  21.449  0.00  0.00    +0.000 Cl
ATOM     15  C   UNL     1      -5.314  12.529  19.369  0.00  0.00    +0.000 A 
ATOM     16  C   UNL     1      -4.787  11.638  18.428  0.00  0.00    +0.000 A 
ATOM     17  C   UNL     1      -3.429  11.377  18.474  0.00  0.00    +0.000 A 
ATOM     18  H   UNL     1      -0.686  10.042  20.757  0.00  0.00    +0.000 HD
ENDROOT
BRANCH   1  19
ATOM     19  C   UNL     1      -3.196   9.783  16.532  0.00  0.00    +0.000 C 
BRANCH  19  21
ATOM     20  O   UNL     1      -2.576   9.949  14.199  0.00  0.00    +0.000 OA
ATOM     21  C   UNL     1      -3.010  10.493  15.203  0.00  0.00    +0.000 C 
BRANCH  21  22
ATOM     22  O   UNL     1      -3.438  11.778  15.205  0.00  0.00    +0.000 OA
ATOM     23  H   UNL     1      -2.855  12.389  14.700  0.00  0.00    +0.000 HD
ENDBRANCH  21  22
ENDBRANCH  19  21
ENDBRANCH   1  19
BRANCH   8  24
ATOM     24  C   UNL     1       1.645  13.838  20.044  0.00  0.00    +0.000 C 
BRANCH  24  25
ATOM     25  C   UNL     1       1.089  15.067  20.704  0.00  0.00    +0.000 A 
ATOM     26  C   UNL     1       0.827  15.089  22.084  0.00  0.00    +0.000 A 
ATOM     27  C   UNL     1       0.194  16.184  22.666  0.00  0.00    +0.000 A 
ATOM     28  C   UNL     1      -0.159  17.284  21.886  0.00  0.00    +0.000 A 
ATOM     29  C   UNL     1       0.154  17.299  20.528  0.00  0.00    +0.000 A 
ATOM     30  C   UNL     1       0.776  16.198  19.950  0.00  0.00    +0.000 A 
ATOM     31  F   UNL     1       1.073  16.238  18.643  0.00  0.00    +0.000 F 
ENDBRANCH  24  25
ENDBRANCH   8  24
TORSDOF 5
ENDMDL
MODEL 5
REMARK VINA RESULT:      -6.3      8.809     12.915
REMARK  Name = 
REMARK  5 active torsions:
REMARK  status: ('A' for Active; 'I' for Inactive)
REMARK    1  A    between atoms: C_2  and  O_3
REMARK    2  A    between atoms: C_2  and  C_4
REMARK    3  A    between atoms: C_4  and  N_5
REMARK    4  A    between atoms: N_12  and  C_13
REMARK    5  A    between atoms: C_13  and  C_14
REMARK                            x       y       z     vdW  Elec       q    Type
REMARK                         _______ _______ _______ _____ _____    ______ ____
ROOT
ATOM      1  N   UNL     1      -6.307  13.586  21.903  0.00  0.00    +0.000 N 
ATOM      2  C   UNL     1      -5.133  14.242  22.283  0.00  0.00    +0.000 C 
ATOM      3  O   UNL     1      -5.082  15.117  23.137  0.00  0.00    +0.000 OA
ATOM      4  C   UNL     1      -4.013  13.765  21.332  0.00  0.00    +0.000 C 
ATOM      5  N   UNL     1      -3.253  14.835  20.751  0.00  0.00    +0.000 N 
ATOM      6  C   UNL     1      -1.915  14.717  21.048  0.00  0.00    +0.000 C 
ATOM      7  O   UNL     1      -1.088  15.566  20.767  0.00  0.00    +0.000 OA
ATOM      8  N   UNL     1      -1.712  13.534  21.692  0.00  0.00    +0.000 N 
ATOM      9  C   UNL     1      -2.914  12.958  22.009  0.00  0.00    +0.000 C 
ATOM     10  O   UNL     1      -3.080  11.942  22.673  0.00  0.00    +0.000 OA
ATOM     11  C   UNL     1      -4.770  12.930  20.339  0.00  0.00    +0.000 A 
ATOM     12  C   UNL     1      -4.305  12.243  19.227  0.00  0.00    +0.000 A 
ATOM     13  C   UNL     1      -5.215  11.469  18.510  0.00  0.00    +0.000 A 
ATOM     14 CL   UNL     1      -4.673  10.570  17.147  0.00  0.00    +0.000 Cl
ATOM     15  C   UNL     1      -6.565  11.401  18.892  0.00  0.00    +0.000 A 
ATOM     16  C   UNL     1      -7.025  12.098  20.016  0.00  0.00    +0.000 A 
ATOM     17  C   UNL     1      -6.108  12.841  20.736  0.00  0.00    +0.000 A 
ATOM     18  H   UNL     1      -3.625  15.713  20.410  0.00  0.00    +0.000 HD
ENDROOT
BRANCH   1  19
ATOM     19  C   UNL     1      -7.583  13.745  22.572  0.00  0.00    +0.000 C 
BRANCH  19  21
ATOM     20  O   UNL     1      -7.907  13.457  24.953  0.00  0.00    +0.000 OA
ATOM     21  C   UNL     1      -7.634  12.960  23.872  0.00  0.00    +0.000 C 
BRANCH  21  22
ATOM     22  O   UNL     1      -7.420  11.632  23.716  0.00  0.00    +0.000 OA
ATOM     23  H   UNL     1      -8.180  11.154  23.315  0.00  0.00    +0.000 HD
ENDBRANCH  21  22
ENDBRANCH  19  21
ENDBRANCH   1  19
BRANCH   8  24
ATOM     24  C   UNL     1      -0.411  13.019  22.072  0.00  0.00    +0.000 C 
BRANCH  24  25
ATOM     25  C   UNL     1      -0.040  11.792  21.290  0.00  0.00    +0.000 A 
ATOM     26  C   UNL     1      -0.069  10.520  21.886  0.00  0.00    +0.000 A 
ATOM     27  C   UNL     1       0.397   9.405  21.195  0.00  0.00    +0.000 A 
ATOM     28  C   UNL     1       0.871   9.537  19.891  0.00  0.00    +0.000 A 
ATOM     29  C   UNL     1       0.845  10.784  19.267  0.00  0.00    +0.000 A 
ATOM     30  C   UNL     1       0.388  11.896  19.966  0.00  0.00    +0.000 A 
ATOM     31  F   UNL     1       0.366  13.084  19.344  0.00  0.00    +0.000 F 
ENDBRANCH  24  25
ENDBRANCH   8  24
TORSDOF 5
ENDMDL
MODEL 6
REMARK VINA RESULT:      -6.3      7.569     10.462
REMARK  Name = 
REMARK  5 active torsions:
REMARK  status: ('A' for Active; 'I' for Inactive)
REMARK    1  A    between atoms: C_2  and  O_3
REMARK    2  A    between atoms: C_2  and  C_4
REMARK    3  A    between atoms: C_4  and  N_5
REMARK    4  A    between atoms: N_12  and  C_13
REMARK    5  A    between atoms: C_13  and  C_14
REMARK                            x       y       z     vdW  Elec       q    Type
REMARK                         _______ _______ _______ _____ _____    ______ ____
ROOT
ATOM      1  N   UNL     1      -1.489  11.361  18.308  0.00  0.00    +0.000 N 
ATOM      2  C   UNL     1      -1.293  10.132  18.943  0.00  0.00    +0.000 C 
ATOM      3  O   UNL     1      -2.155   9.270  19.048  0.00  0.00    +0.000 OA
ATOM      4  C   UNL     1       0.111  10.168  19.584  0.00  0.00    +0.000 C 
ATOM      5  N   UNL     1       0.128   9.765  20.963  0.00  0.00    +0.000 N 
ATOM      6  C   UNL     1       0.970   8.696  21.162  0.00  0.00    +0.000 C 
ATOM      7  O   UNL     1       1.062   8.102  22.221  0.00  0.00    +0.000 OA
ATOM      8  N   UNL     1       1.635   8.440  20.001  0.00  0.00    +0.000 N 
ATOM      9  C   UNL     1       1.105   9.185  18.981  0.00  0.00    +0.000 C 
ATOM     10  O   UNL     1       1.411   9.118  17.797  0.00  0.00    +0.000 OA
ATOM     11  C   UNL     1       0.536  11.589  19.348  0.00  0.00    +0.000 A 
ATOM     12  C   UNL     1       1.710  12.232  19.713  0.00  0.00    +0.000 A 
ATOM     13  C   UNL     1       1.891  13.549  19.295  0.00  0.00    +0.000 A 
ATOM     14 CL   UNL     1       3.348  14.371  19.693  0.00  0.00    +0.000 Cl
ATOM     15  C   UNL     1       0.906  14.209  18.541  0.00  0.00    +0.000 A 
ATOM     16  C   UNL     1      -0.274  13.552  18.176  0.00  0.00    +0.000 A 
ATOM     17  C   UNL     1      -0.431  12.236  18.573  0.00  0.00    +0.000 A 
ATOM     18  H   UNL     1      -0.562  10.010  21.662  0.00  0.00    +0.000 HD
ENDROOT
BRANCH   1  19
ATOM     19  C   UNL     1      -2.682  11.712  17.561  0.00  0.00    +0.000 C 
BRANCH  19  21
ATOM     20  O   UNL     1      -2.178   9.973  15.955  0.00  0.00    +0.000 OA
ATOM     21  C   UNL     1      -2.700  11.051  16.193  0.00  0.00    +0.000 C 
BRANCH  21  22
ATOM     22  O   UNL     1      -3.413  11.733  15.266  0.00  0.00    +0.000 OA
ATOM     23  H   UNL     1      -3.161  11.522  14.340  0.00  0.00    +0.000 HD
ENDBRANCH  21  22
ENDBRANCH  19  21
ENDBRANCH   1  19
BRANCH   8  24
ATOM     24  C   UNL     1       2.681   7.447  19.855  0.00  0.00    +0.000 C 
BRANCH  24  25
ATOM     25  C   UNL     1       2.132   6.100  19.484  0.00  0.00    +0.000 A 
ATOM     26  C   UNL     1       1.472   5.303  20.434  0.00  0.00    +0.000 A 
ATOM     27  C   UNL     1       1.078   4.005  20.118  0.00  0.00    +0.000 A 
ATOM     28  C   UNL     1       1.312   3.494  18.842  0.00  0.00    +0.000 A 
ATOM     29  C   UNL     1       1.909   4.298  17.872  0.00  0.00    +0.000 A 
ATOM     30  C   UNL     1       2.310   5.590  18.197  0.00  0.00    +0.000 A 
ATOM     31  F   UNL     1       2.876   6.347  17.246  0.00  0.00    +0.000 F 
ENDBRANCH  24  25
ENDBRANCH   8  24
TORSDOF 5
ENDMDL
MODEL 7
REMARK VINA RESULT:      -6.2      6.451      8.612
REMARK  Name = 
REMARK  5 active torsions:
REMARK  status: ('A' for Active; 'I' for Inactive)
REMARK    1  A    between atoms: C_2  and  O_3
REMARK    2  A    between atoms: C_2  and  C_4
REMARK    3  A    between atoms: C_4  and  N_5
REMARK    4  A    between atoms: N_12  and  C_13
REMARK    5  A    between atoms: C_13  and  C_14
REMARK                            x       y       z     vdW  Elec       q    Type
REMARK                         _______ _______ _______ _____ _____    ______ ____
ROOT
ATOM      1  N   UNL     1       0.261  16.545  19.513  0.00  0.00    +0.000 N 
ATOM      2  C   UNL     1      -0.417  15.525  20.188  0.00  0.00    +0.000 C 
ATOM      3  O   UNL     1      -1.437  15.697  20.840  0.00  0.00    +0.000 OA
ATOM      4  C   UNL     1       0.443  14.248  20.069  0.00  0.00    +0.000 C 
ATOM      5  N   UNL     1       0.664  13.582  21.322  0.00  0.00    +0.000 N 
ATOM      6  C   UNL     1       0.210  12.284  21.286  0.00  0.00    +0.000 C 
ATOM      7  O   UNL     1       0.179  11.557  22.263  0.00  0.00    +0.000 OA
ATOM      8  N   UNL     1      -0.186  11.995  20.016  0.00  0.00    +0.000 N 
ATOM      9  C   UNL     1      -0.196  13.133  19.254  0.00  0.00    +0.000 C 
ATOM     10  O   UNL     1      -0.594  13.232  18.100  0.00  0.00    +0.000 OA
ATOM     11  C   UNL     1       1.691  14.761  19.410  0.00  0.00    +0.000 A 
ATOM     12  C   UNL     1       2.846  14.079  19.055  0.00  0.00    +0.000 A 
ATOM     13  C   UNL     1       3.837  14.783  18.373  0.00  0.00    +0.000 A 
ATOM     14 CL   UNL     1       5.268  13.967  17.880  0.00  0.00    +0.000 Cl
ATOM     15  C   UNL     1       3.677  16.146  18.071  0.00  0.00    +0.000 A 
ATOM     16  C   UNL     1       2.508  16.825  18.433  0.00  0.00    +0.000 A 
ATOM     17  C   UNL     1       1.519  16.110  19.085  0.00  0.00    +0.000 A 
ATOM     18  H   UNL     1       0.859  14.031  22.209  0.00  0.00    +0.000 HD
ENDROOT
BRANCH   1  19
ATOM     19  C   UNL     1      -0.236  17.900  19.371  0.00  0.00    +0.000 C 
BRANCH  19  21
ATOM     20  O   UNL     1      -0.621  17.884  16.982  0.00  0.00    +0.000 OA
ATOM     21  C   UNL     1      -1.062  18.063  18.107  0.00  0.00    +0.000 C 
BRANCH  21  22
ATOM     22  O   UNL     1      -2.364  18.355  18.339  0.00  0.00    +0.000 OA
ATOM     23  H   UNL     1      -2.790  17.763  18.998  0.00  0.00    +0.000 HD
ENDBRANCH  21  22
ENDBRANCH  19  21
ENDBRANCH   1  19
BRANCH   8  24
ATOM     24  C   UNL     1      -0.631  10.687  19.572  0.00  0.00    +0.000 C 
BRANCH  24  25
ATOM     25  C   UNL     1       0.521   9.773  19.270  0.00  0.00    +0.000 A 
ATOM     26  C   UNL     1       1.205   9.853  18.046  0.00  0.00    +0.000 A 
ATOM     27  C   UNL     1       2.187   8.921  17.721  0.00  0.00    +0.000 A 
ATOM     28  C   UNL     1       2.521   7.914  18.624  0.00  0.00    +0.000 A 
ATOM     29  C   UNL     1       1.894   7.863  19.868  0.00  0.00    +0.000 A 
ATOM     30  C   UNL     1       0.906   8.790  20.183  0.00  0.00    +0.000 A 
ATOM     31  F   UNL     1       0.322   8.725  21.387  0.00  0.00    +0.000 F 
ENDBRANCH  24  25
ENDBRANCH   8  24
TORSDOF 5
ENDMDL
MODEL 8
REMARK VINA RESULT:      -6.2      7.466     10.498
REMARK  Name = 
REMARK  5 active torsions:
REMARK  status: ('A' for Active; 'I' for Inactive)
REMARK    1  A    between atoms: C_2  and  O_3
REMARK    2  A    between atoms: C_2  and  C_4
REMARK    3  A    between atoms: C_4  and  N_5
REMARK    4  A    between atoms: N_12  and  C_13
REMARK    5  A    between atoms: C_13  and  C_14
REMARK                            x       y       z     vdW  Elec       q    Type
REMARK                         _______ _______ _______ _____ _____    ______ ____
ROOT
ATOM      1  N   UNL     1      -2.691  10.578  17.626  0.00  0.00    +0.000 N 
ATOM      2  C   UNL     1      -1.362  10.529  18.057  0.00  0.00    +0.000 C 
ATOM      3  O   UNL     1      -0.534   9.733  17.635  0.00  0.00    +0.000 OA
ATOM      4  C   UNL     1      -1.223  11.531  19.223  0.00  0.00    +0.000 C 
ATOM      5  N   UNL     1      -0.586  10.979  20.386  0.00  0.00    +0.000 N 
ATOM      6  C   UNL     1       0.539  11.695  20.728  0.00  0.00    +0.000 C 
ATOM      7  O   UNL     1       1.311  11.351  21.604  0.00  0.00    +0.000 OA
ATOM      8  N   UNL     1       0.617  12.794  19.928  0.00  0.00    +0.000 N 
ATOM      9  C   UNL     1      -0.317  12.719  18.929  0.00  0.00    +0.000 C 
ATOM     10  O   UNL     1      -0.444  13.497  17.992  0.00  0.00    +0.000 OA
ATOM     11  C   UNL     1      -2.643  11.968  19.443  0.00  0.00    +0.000 A 
ATOM     12  C   UNL     1      -3.159  12.857  20.375  0.00  0.00    +0.000 A 
ATOM     13  C   UNL     1      -4.520  13.152  20.311  0.00  0.00    +0.000 A 
ATOM     14 CL   UNL     1      -5.194  14.278  21.424  0.00  0.00    +0.000 Cl
ATOM     15  C   UNL     1      -5.345  12.555  19.344  0.00  0.00    +0.000 A 
ATOM     16  C   UNL     1      -4.814  11.661  18.407  0.00  0.00    +0.000 A 
ATOM     17  C   UNL     1      -3.458  11.395  18.461  0.00  0.00    +0.000 A 
ATOM     18  H   UNL     1      -0.735  10.051  20.762  0.00  0.00    +0.000 HD
ENDROOT
BRANCH   1  19
ATOM     19  C   UNL     1      -3.219   9.799  16.522  0.00  0.00    +0.000 C 
BRANCH  19  21
ATOM     20  O   UNL     1      -2.567   9.967  14.198  0.00  0.00    +0.000 OA
ATOM     21  C   UNL     1      -3.023  10.508  15.193  0.00  0.00    +0.000 C 
BRANCH  21  22
ATOM     22  O   UNL     1      -3.467  11.787  15.186  0.00  0.00    +0.000 OA
ATOM     23  H   UNL     1      -3.015  12.367  15.838  0.00  0.00    +0.000 HD
ENDBRANCH  21  22
ENDBRANCH  19  21
ENDBRANCH   1  19
BRANCH   8  24
ATOM     24  C   UNL     1       1.615  13.838  20.062  0.00  0.00    +0.000 C 
BRANCH  24  25
ATOM     25  C   UNL     1       1.004  15.159  20.429  0.00  0.00    +0.000 A 
ATOM     26  C   UNL     1       1.017  16.235  19.526  0.00  0.00    +0.000 A 
ATOM     27  C   UNL     1       0.564  17.492  19.917  0.00  0.00    +0.000 A 
ATOM     28  C   UNL     1       0.064  17.687  21.203  0.00  0.00    +0.000 A 
ATOM     29  C   UNL     1      -0.013  16.611  22.087  0.00  0.00    +0.000 A 
ATOM     30  C   UNL     1       0.452  15.360  21.694  0.00  0.00    +0.000 A 
ATOM     31  F   UNL     1       0.362  14.339  22.558  0.00  0.00    +0.000 F 
ENDBRANCH  24  25
ENDBRANCH   8  24
TORSDOF 5
ENDMDL
MODEL 9
REMARK VINA RESULT:      -6.2      7.646     10.691
REMARK  Name = 
REMARK  5 active torsions:
REMARK  status: ('A' for Active; 'I' for Inactive)
REMARK    1  A    between atoms: C_2  and  O_3
REMARK    2  A    between atoms: C_2  and  C_4
REMARK    3  A    between atoms: C_4  and  N_5
REMARK    4  A    between atoms: N_12  and  C_13
REMARK    5  A    between atoms: C_13  and  C_14
REMARK                            x       y       z     vdW  Elec       q    Type
REMARK                         _______ _______ _______ _____ _____    ______ ____
ROOT
ATOM      1  N   UNL     1      -1.451  11.395  17.972  0.00  0.00    +0.000 N 
ATOM      2  C   UNL     1      -1.340  10.140  18.577  0.00  0.00    +0.000 C 
ATOM      3  O   UNL     1      -2.174   9.251  18.468  0.00  0.00    +0.000 OA
ATOM      4  C   UNL     1      -0.094  10.180  19.488  0.00  0.00    +0.000 C 
ATOM      5  N   UNL     1      -0.337   9.707  20.822  0.00  0.00    +0.000 N 
ATOM      6  C   UNL     1       0.488   8.651  21.136  0.00  0.00    +0.000 C 
ATOM      7  O   UNL     1       0.388   8.005  22.164  0.00  0.00    +0.000 OA
ATOM      8  N   UNL     1       1.378   8.474  20.121  0.00  0.00    +0.000 N 
ATOM      9  C   UNL     1       1.035   9.257  19.050  0.00  0.00    +0.000 C 
ATOM     10  O   UNL     1       1.573   9.260  17.950  0.00  0.00    +0.000 OA
ATOM     11  C   UNL     1       0.317  11.622  19.407  0.00  0.00    +0.000 A 
ATOM     12  C   UNL     1       1.371  12.276  20.029  0.00  0.00    +0.000 A 
ATOM     13  C   UNL     1       1.583  13.618  19.716  0.00  0.00    +0.000 A 
ATOM     14 CL   UNL     1       2.901  14.457  20.436  0.00  0.00    +0.000 Cl
ATOM     15  C   UNL     1       0.744  14.290  18.812  0.00  0.00    +0.000 A 
ATOM     16  C   UNL     1      -0.316  13.621  18.188  0.00  0.00    +0.000 A 
ATOM     17  C   UNL     1      -0.500  12.283  18.484  0.00  0.00    +0.000 A 
ATOM     18  H   UNL     1      -1.160   9.895  21.379  0.00  0.00    +0.000 HD
ENDROOT
BRANCH   1  19
ATOM     19  C   UNL     1      -2.484  11.753  17.019  0.00  0.00    +0.000 C 
BRANCH  19  21
ATOM     20  O   UNL     1      -4.778  11.009  17.226  0.00  0.00    +0.000 OA
ATOM     21  C   UNL     1      -3.866  11.704  17.648  0.00  0.00    +0.000 C 
BRANCH  21  22
ATOM     22  O   UNL     1      -3.981  12.449  18.772  0.00  0.00    +0.000 OA
ATOM     23  H   UNL     1      -4.192  13.394  18.599  0.00  0.00    +0.000 HD
ENDBRANCH  21  22
ENDBRANCH  19  21
ENDBRANCH   1  19
BRANCH   8  24
ATOM     24  C   UNL     1       2.469   7.518  20.142  0.00  0.00    +0.000 C 
BRANCH  24  25
ATOM     25  C   UNL     1       2.047   6.170  19.632  0.00  0.00    +0.000 A 
ATOM     26  C   UNL     1       1.381   5.259  20.467  0.00  0.00    +0.000 A 
ATOM     27  C   UNL     1       1.106   3.967  20.028  0.00  0.00    +0.000 A 
ATOM     28  C   UNL     1       1.466   3.575  18.740  0.00  0.00    +0.000 A 
ATOM     29  C   UNL     1       2.070   4.491  17.880  0.00  0.00    +0.000 A 
ATOM     30  C   UNL     1       2.352   5.777  18.328  0.00  0.00    +0.000 A 
ATOM     31  F   UNL     1       2.928   6.643  17.482  0.00  0.00    +0.000 F 
ENDBRANCH  24  25
ENDBRANCH   8  24
TORSDOF 5
ENDMDL
