MODEL 1
REMARK VINA RESULT:      -7.3      0.000      0.000
REMARK  Name = 
REMARK  12 active torsions:
REMARK  status: ('A' for Active; 'I' for Inactive)
REMARK    1  A    between atoms: C_1  and  C_2
REMARK    2  A    between atoms: C_2  and  C_4
REMARK    3  A    between atoms: C_4  and  C_5
REMARK    4  A    between atoms: C_5  and  C_6
REMARK    5  A    between atoms: C_6  and  C_7
REMARK    6  A    between atoms: C_7  and  C_8
REMARK    7  A    between atoms: C_8  and  C_9
REMARK    8  A    between atoms: C_9  and  N_10
REMARK    9  A    between atoms: C_9  and  C_20
REMARK   10  A    between atoms: C_11  and  C_13
REMARK   11  A    between atoms: N_16  and  C_17
REMARK   12  A    between atoms: C_23  and  C_24
REMARK                            x       y       z     vdW  Elec       q    Type
REMARK                         _______ _______ _______ _____ _____    ______ ____
ROOT
ATOM      1  C   UNL     1       1.504   8.978  20.645  0.00  0.00    +0.000 C 
ENDROOT
BRANCH   1   2
ATOM      2  C   UNL     1       1.959   7.665  20.082  0.00  0.00    +0.000 A 
ATOM      3  N   UNL     1       1.631   6.470  20.532  0.00  0.00    +0.000 NA
ATOM      4  C   UNL     1       2.323   5.587  19.757  0.00  0.00    +0.000 A 
ATOM      5  C   UNL     1       3.045   6.229  18.768  0.00  0.00    +0.000 A 
ATOM      6  N   UNL     1       2.812   7.566  19.006  0.00  0.00    +0.000 N 
ATOM      7  H   UNL     1       3.173   8.341  18.471  0.00  0.00    +0.000 HD
BRANCH   5   8
ATOM      8  C   UNL     1       3.847   5.673  17.687  0.00  0.00    +0.000 A 
ATOM      9  C   UNL     1       4.546   6.557  16.848  0.00  0.00    +0.000 A 
ATOM     10  C   UNL     1       5.280   6.086  15.758  0.00  0.00    +0.000 A 
ATOM     11  C   UNL     1       5.320   4.721  15.501  0.00  0.00    +0.000 A 
ATOM     12 BR   UNL     1       6.281   4.086  14.003  0.00  0.00    +0.000 Br
ATOM     13  C   UNL     1       4.646   3.825  16.330  0.00  0.00    +0.000 A 
ATOM     14  C   UNL     1       3.914   4.300  17.425  0.00  0.00    +0.000 A 
ENDBRANCH   5   8
ENDBRANCH   1   2
BRANCH   1  15
ATOM     15  N   UNL     1       0.430   9.451  19.787  0.00  0.00    +0.000 N 
ATOM     16  C   UNL     1       0.328  10.767  19.415  0.00  0.00    +0.000 C 
ATOM     17  O   UNL     1       1.152  11.613  19.754  0.00  0.00    +0.000 OA
ATOM     18  H   UNL     1      -0.339   8.813  19.621  0.00  0.00    +0.000 HD
BRANCH  16  19
ATOM     19  C   UNL     1      -0.838  11.121  18.503  0.00  0.00    +0.000 C 
ATOM     20  C   UNL     1      -2.075  11.597  19.265  0.00  0.00    +0.000 C 
ATOM     21  C   UNL     1      -3.200  11.946  18.287  0.00  0.00    +0.000 C 
ATOM     22  N   UNL     1      -3.528  10.807  17.415  0.00  0.00    +0.000 NA
ATOM     23  C   UNL     1      -4.611  11.169  16.497  0.00  0.00    +0.000 C 
ATOM     24  C   UNL     1      -2.356  10.349  16.655  0.00  0.00    +0.000 C 
ATOM     25  C   UNL     1      -1.211   9.954  17.587  0.00  0.00    +0.000 C 
ENDBRANCH  16  19
ENDBRANCH   1  15
BRANCH   1  26
ATOM     26  C   UNL     1       1.028   8.826  22.103  0.00  0.00    +0.000 C 
BRANCH  26  27
ATOM     27  C   UNL     1      -0.478   9.066  22.241  0.00  0.00    +0.000 C 
BRANCH  27  28
ATOM     28  C   UNL     1      -0.796  10.068  23.349  0.00  0.00    +0.000 C 
BRANCH  28  29
ATOM     29  C   UNL     1      -1.028  11.453  22.749  0.00  0.00    +0.000 C 
BRANCH  29  30
ATOM     30  C   UNL     1      -2.397  12.011  23.111  0.00  0.00    +0.000 C 
BRANCH  30  32
ATOM     31  C   UNL     1      -2.296  14.236  21.833  0.00  0.00    +0.000 C 
ATOM     32  C   UNL     1      -2.383  13.529  23.157  0.00  0.00    +0.000 C 
ATOM     33  O   UNL     1      -2.438  14.165  24.209  0.00  0.00    +0.000 OA
ENDBRANCH  30  32
ENDBRANCH  29  30
ENDBRANCH  28  29
ENDBRANCH  27  28
ENDBRANCH  26  27
ENDBRANCH   1  26
TORSDOF 10
ENDMDL
MODEL 2
REMARK VINA RESULT:      -7.2      0.644      1.207
REMARK  Name = 
REMARK  12 active torsions:
REMARK  status: ('A' for Active; 'I' for Inactive)
REMARK    1  A    between atoms: C_1  and  C_2
REMARK    2  A    between atoms: C_2  and  C_4
REMARK    3  A    between atoms: C_4  and  C_5
REMARK    4  A    between atoms: C_5  and  C_6
REMARK    5  A    between atoms: C_6  and  C_7
REMARK    6  A    between atoms: C_7  and  C_8
REMARK    7  A    between atoms: C_8  and  C_9
REMARK    8  A    between atoms: C_9  and  N_10
REMARK    9  A    between atoms: C_9  and  C_20
REMARK   10  A    between atoms: C_11  and  C_13
REMARK   11  A    between atoms: N_16  and  C_17
REMARK   12  A    between atoms: C_23  and  C_24
REMARK                            x       y       z     vdW  Elec       q    Type
REMARK                         _______ _______ _______ _____ _____    ______ ____
ROOT
ATOM      1  C   UNL     1       1.103   8.889  20.872  0.00  0.00    +0.000 C 
ENDROOT
BRANCH   1   2
ATOM      2  C   UNL     1       1.713   7.642  20.303  0.00  0.00    +0.000 A 
ATOM      3  N   UNL     1       1.617   6.429  20.808  0.00  0.00    +0.000 NA
ATOM      4  C   UNL     1       2.375   5.637  19.997  0.00  0.00    +0.000 A 
ATOM      5  C   UNL     1       2.902   6.346  18.935  0.00  0.00    +0.000 A 
ATOM      6  N   UNL     1       2.480   7.638  19.159  0.00  0.00    +0.000 N 
ATOM      7  H   UNL     1       2.669   8.440  18.577  0.00  0.00    +0.000 HD
BRANCH   5   8
ATOM      8  C   UNL     1       3.691   5.883  17.802  0.00  0.00    +0.000 A 
ATOM      9  C   UNL     1       3.726   4.506  17.526  0.00  0.00    +0.000 A 
ATOM     10  C   UNL     1       4.514   3.998  16.492  0.00  0.00    +0.000 A 
ATOM     11  C   UNL     1       5.276   4.870  15.724  0.00  0.00    +0.000 A 
ATOM     12 BR   UNL     1       6.373   4.179  14.349  0.00  0.00    +0.000 Br
ATOM     13  C   UNL     1       5.245   6.242  15.970  0.00  0.00    +0.000 A 
ATOM     14  C   UNL     1       4.449   6.749  17.005  0.00  0.00    +0.000 A 
ENDBRANCH   5   8
ENDBRANCH   1   2
BRANCH   1  15
ATOM     15  N   UNL     1       0.144   9.370  19.891  0.00  0.00    +0.000 N 
ATOM     16  C   UNL     1       0.092  10.687  19.516  0.00  0.00    +0.000 C 
ATOM     17  O   UNL     1       0.871  11.529  19.957  0.00  0.00    +0.000 OA
ATOM     18  H   UNL     1      -0.601   8.735  19.630  0.00  0.00    +0.000 HD
BRANCH  16  19
ATOM     19  C   UNL     1      -0.953  11.050  18.471  0.00  0.00    +0.000 C 
ATOM     20  C   UNL     1      -2.269  11.536  19.078  0.00  0.00    +0.000 C 
ATOM     21  C   UNL     1      -3.265  11.893  17.971  0.00  0.00    +0.000 C 
ATOM     22  N   UNL     1      -3.495  10.756  17.067  0.00  0.00    +0.000 NA
ATOM     23  C   UNL     1      -4.456  11.125  16.024  0.00  0.00    +0.000 C 
ATOM     24  C   UNL     1      -2.244  10.288  16.453  0.00  0.00    +0.000 C 
ATOM     25  C   UNL     1      -1.222   9.885  17.516  0.00  0.00    +0.000 C 
ENDBRANCH  16  19
ENDBRANCH   1  15
BRANCH   1  26
ATOM     26  C   UNL     1       0.425   8.610  22.227  0.00  0.00    +0.000 C 
BRANCH  26  27
ATOM     27  C   UNL     1       0.279   9.883  23.067  0.00  0.00    +0.000 C 
BRANCH  27  28
ATOM     28  C   UNL     1      -1.170  10.360  23.133  0.00  0.00    +0.000 C 
BRANCH  28  29
ATOM     29  C   UNL     1      -1.221  11.884  23.059  0.00  0.00    +0.000 C 
BRANCH  29  30
ATOM     30  C   UNL     1      -2.505  12.382  22.409  0.00  0.00    +0.000 C 
BRANCH  30  32
ATOM     31  C   UNL     1      -4.003  12.481  24.492  0.00  0.00    +0.000 C 
ATOM     32  C   UNL     1      -3.326  13.221  23.372  0.00  0.00    +0.000 C 
ATOM     33  O   UNL     1      -3.444  14.440  23.260  0.00  0.00    +0.000 OA
ENDBRANCH  30  32
ENDBRANCH  29  30
ENDBRANCH  28  29
ENDBRANCH  27  28
ENDBRANCH  26  27
ENDBRANCH   1  26
TORSDOF 10
ENDMDL
MODEL 3
REMARK VINA RESULT:      -7.2      5.286      9.546
REMARK  Name = 
REMARK  12 active torsions:
REMARK  status: ('A' for Active; 'I' for Inactive)
REMARK    1  A    between atoms: C_1  and  C_2
REMARK    2  A    between atoms: C_2  and  C_4
REMARK    3  A    between atoms: C_4  and  C_5
REMARK    4  A    between atoms: C_5  and  C_6
REMARK    5  A    between atoms: C_6  and  C_7
REMARK    6  A    between atoms: C_7  and  C_8
REMARK    7  A    between atoms: C_8  and  C_9
REMARK    8  A    between atoms: C_9  and  N_10
REMARK    9  A    between atoms: C_9  and  C_20
REMARK   10  A    between atoms: C_11  and  C_13
REMARK   11  A    between atoms: N_16  and  C_17
REMARK   12  A    between atoms: C_23  and  C_24
REMARK                            x       y       z     vdW  Elec       q    Type
REMARK                         _______ _______ _______ _____ _____    ______ ____
ROOT
ATOM      1  C   UNL     1       5.689   6.326  17.183  0.00  0.00    +0.000 C 
ENDROOT
BRANCH   1   2
ATOM      2  C   UNL     1       6.847   7.114  17.719  0.00  0.00    +0.000 A 
ATOM      3  N   UNL     1       7.823   6.646  18.472  0.00  0.00    +0.000 NA
ATOM      4  C   UNL     1       8.603   7.725  18.766  0.00  0.00    +0.000 A 
ATOM      5  C   UNL     1       8.151   8.872  18.140  0.00  0.00    +0.000 A 
ATOM      6  N   UNL     1       7.009   8.461  17.487  0.00  0.00    +0.000 N 
ATOM      7  H   UNL     1       6.410   9.033  16.912  0.00  0.00    +0.000 HD
BRANCH   5   8
ATOM      8  C   UNL     1       8.723  10.210  18.115  0.00  0.00    +0.000 A 
ATOM      9  C   UNL     1       7.948  11.262  17.596  0.00  0.00    +0.000 A 
ATOM     10  C   UNL     1       8.467  12.553  17.488  0.00  0.00    +0.000 A 
ATOM     11  C   UNL     1       9.770  12.802  17.902  0.00  0.00    +0.000 A 
ATOM     12 BR   UNL     1      10.486  14.541  17.720  0.00  0.00    +0.000 Br
ATOM     13  C   UNL     1      10.551  11.776  18.433  0.00  0.00    +0.000 A 
ATOM     14  C   UNL     1      10.027  10.482  18.544  0.00  0.00    +0.000 A 
ENDBRANCH   5   8
ENDBRANCH   1   2
BRANCH   1  15
ATOM     15  N   UNL     1       4.490   7.093  17.478  0.00  0.00    +0.000 N 
ATOM     16  C   UNL     1       3.482   6.588  18.257  0.00  0.00    +0.000 C 
ATOM     17  O   UNL     1       3.546   5.477  18.778  0.00  0.00    +0.000 OA
ATOM     18  H   UNL     1       4.345   7.941  16.942  0.00  0.00    +0.000 HD
BRANCH  16  19
ATOM     19  C   UNL     1       2.290   7.504  18.495  0.00  0.00    +0.000 C 
ATOM     20  C   UNL     1       2.405   8.843  17.767  0.00  0.00    +0.000 C 
ATOM     21  C   UNL     1       1.169   9.705  18.041  0.00  0.00    +0.000 C 
ATOM     22  N   UNL     1       0.965   9.909  19.484  0.00  0.00    +0.000 NA
ATOM     23  C   UNL     1      -0.218  10.742  19.715  0.00  0.00    +0.000 C 
ATOM     24  C   UNL     1       0.828   8.633  20.200  0.00  0.00    +0.000 C 
ATOM     25  C   UNL     1       2.054   7.744  19.987  0.00  0.00    +0.000 C 
ENDBRANCH  16  19
ENDBRANCH   1  15
BRANCH   1  26
ATOM     26  C   UNL     1       5.835   6.079  15.668  0.00  0.00    +0.000 C 
BRANCH  26  27
ATOM     27  C   UNL     1       6.883   5.004  15.363  0.00  0.00    +0.000 C 
BRANCH  27  28
ATOM     28  C   UNL     1       6.254   3.749  14.762  0.00  0.00    +0.000 C 
BRANCH  28  29
ATOM     29  C   UNL     1       5.504   4.105  13.481  0.00  0.00    +0.000 C 
BRANCH  29  30
ATOM     30  C   UNL     1       6.193   3.550  12.241  0.00  0.00    +0.000 C 
BRANCH  30  32
ATOM     31  C   UNL     1       3.961   2.951  11.123  0.00  0.00    +0.000 C 
ATOM     32  C   UNL     1       5.334   2.508  11.547  0.00  0.00    +0.000 C 
ATOM     33  O   UNL     1       5.719   1.359  11.335  0.00  0.00    +0.000 OA
ENDBRANCH  30  32
ENDBRANCH  29  30
ENDBRANCH  28  29
ENDBRANCH  27  28
ENDBRANCH  26  27
ENDBRANCH   1  26
TORSDOF 10
ENDMDL
MODEL 4
REMARK VINA RESULT:      -6.8      4.631      9.328
REMARK  Name = 
REMARK  12 active torsions:
REMARK  status: ('A' for Active; 'I' for Inactive)
REMARK    1  A    between atoms: C_1  and  C_2
REMARK    2  A    between atoms: C_2  and  C_4
REMARK    3  A    between atoms: C_4  and  C_5
REMARK    4  A    between atoms: C_5  and  C_6
REMARK    5  A    between atoms: C_6  and  C_7
REMARK    6  A    between atoms: C_7  and  C_8
REMARK    7  A    between atoms: C_8  and  C_9
REMARK    8  A    between atoms: C_9  and  N_10
REMARK    9  A    between atoms: C_9  and  C_20
REMARK   10  A    between atoms: C_11  and  C_13
REMARK   11  A    between atoms: N_16  and  C_17
REMARK   12  A    between atoms: C_23  and  C_24
REMARK                            x       y       z     vdW  Elec       q    Type
REMARK                         _______ _______ _______ _____ _____    ______ ____
ROOT
ATOM      1  C   UNL     1       2.552   5.910  18.784  0.00  0.00    +0.000 C 
ENDROOT
BRANCH   1   2
ATOM      2  C   UNL     1       2.177   7.360  18.691  0.00  0.00    +0.000 A 
ATOM      3  N   UNL     1       2.330   8.136  17.637  0.00  0.00    +0.000 NA
ATOM      4  C   UNL     1       1.913   9.372  18.034  0.00  0.00    +0.000 A 
ATOM      5  C   UNL     1       1.434   9.361  19.330  0.00  0.00    +0.000 A 
ATOM      6  N   UNL     1       1.630   8.061  19.742  0.00  0.00    +0.000 N 
ATOM      7  H   UNL     1       1.389   7.675  20.642  0.00  0.00    +0.000 HD
BRANCH   5   8
ATOM      8  C   UNL     1       0.825  10.429  20.111  0.00  0.00    +0.000 A 
ATOM      9  C   UNL     1       0.979  11.754  19.671  0.00  0.00    +0.000 A 
ATOM     10  C   UNL     1       0.471  12.822  20.411  0.00  0.00    +0.000 A 
ATOM     11  C   UNL     1      -0.199  12.569  21.603  0.00  0.00    +0.000 A 
ATOM     12 BR   UNL     1      -0.853  14.018  22.626  0.00  0.00    +0.000 Br
ATOM     13  C   UNL     1      -0.376  11.261  22.051  0.00  0.00    +0.000 A 
ATOM     14  C   UNL     1       0.131  10.190  21.303  0.00  0.00    +0.000 A 
ENDBRANCH   5   8
ENDBRANCH   1   2
BRANCH   1  15
ATOM     15  N   UNL     1       3.597   5.685  17.799  0.00  0.00    +0.000 N 
ATOM     16  C   UNL     1       4.726   4.966  18.094  0.00  0.00    +0.000 C 
ATOM     17  O   UNL     1       4.906   4.442  19.191  0.00  0.00    +0.000 OA
ATOM     18  H   UNL     1       3.547   6.229  16.945  0.00  0.00    +0.000 HD
BRANCH  16  19
ATOM     19  C   UNL     1       5.732   4.798  16.964  0.00  0.00    +0.000 C 
ATOM     20  C   UNL     1       6.429   6.102  16.579  0.00  0.00    +0.000 C 
ATOM     21  C   UNL     1       7.433   5.855  15.449  0.00  0.00    +0.000 C 
ATOM     22  N   UNL     1       6.785   5.242  14.279  0.00  0.00    +0.000 NA
ATOM     23  C   UNL     1       7.767   5.024  13.213  0.00  0.00    +0.000 C 
ATOM     24  C   UNL     1       6.128   3.973  14.624  0.00  0.00    +0.000 C 
ATOM     25  C   UNL     1       5.089   4.168  15.727  0.00  0.00    +0.000 C 
ENDBRANCH  16  19
ENDBRANCH   1  15
BRANCH   1  26
ATOM     26  C   UNL     1       3.034   5.548  20.203  0.00  0.00    +0.000 C 
BRANCH  26  27
ATOM     27  C   UNL     1       1.900   4.986  21.066  0.00  0.00    +0.000 C 
BRANCH  27  28
ATOM     28  C   UNL     1       0.892   4.193  20.237  0.00  0.00    +0.000 C 
BRANCH  28  29
ATOM     29  C   UNL     1       1.297   2.722  20.192  0.00  0.00    +0.000 C 
BRANCH  29  30
ATOM     30  C   UNL     1       1.036   2.098  18.828  0.00  0.00    +0.000 C 
BRANCH  30  32
ATOM     31  C   UNL     1       3.477   1.556  18.244  0.00  0.00    +0.000 C 
ATOM     32  C   UNL     1       2.215   2.295  17.892  0.00  0.00    +0.000 C 
ATOM     33  O   UNL     1       2.164   3.016  16.897  0.00  0.00    +0.000 OA
ENDBRANCH  30  32
ENDBRANCH  29  30
ENDBRANCH  28  29
ENDBRANCH  27  28
ENDBRANCH  26  27
ENDBRANCH   1  26
TORSDOF 10
ENDMDL
MODEL 5
REMARK VINA RESULT:      -6.7      7.266     10.424
REMARK  Name = 
REMARK  12 active torsions:
REMARK  status: ('A' for Active; 'I' for Inactive)
REMARK    1  A    between atoms: C_1  and  C_2
REMARK    2  A    between atoms: C_2  and  C_4
REMARK    3  A    between atoms: C_4  and  C_5
REMARK    4  A    between atoms: C_5  and  C_6
REMARK    5  A    between atoms: C_6  and  C_7
REMARK    6  A    between atoms: C_7  and  C_8
REMARK    7  A    between atoms: C_8  and  C_9
REMARK    8  A    between atoms: C_9  and  N_10
REMARK    9  A    between atoms: C_9  and  C_20
REMARK   10  A    between atoms: C_11  and  C_13
REMARK   11  A    between atoms: N_16  and  C_17
REMARK   12  A    between atoms: C_23  and  C_24
REMARK                            x       y       z     vdW  Elec       q    Type
REMARK                         _______ _______ _______ _____ _____    ______ ____
ROOT
ATOM      1  C   UNL     1       7.322   5.056  16.979  0.00  0.00    +0.000 C 
ENDROOT
BRANCH   1   2
ATOM      2  C   UNL     1       7.200   6.536  17.187  0.00  0.00    +0.000 A 
ATOM      3  N   UNL     1       6.168   7.286  16.854  0.00  0.00    +0.000 NA
ATOM      4  C   UNL     1       6.528   8.562  17.173  0.00  0.00    +0.000 A 
ATOM      5  C   UNL     1       7.774   8.609  17.769  0.00  0.00    +0.000 A 
ATOM      6  N   UNL     1       8.198   7.299  17.753  0.00  0.00    +0.000 N 
ATOM      7  H   UNL     1       9.069   6.946  18.117  0.00  0.00    +0.000 HD
BRANCH   5   8
ATOM      8  C   UNL     1       8.498   9.741  18.332  0.00  0.00    +0.000 A 
ATOM      9  C   UNL     1       8.518  10.949  17.615  0.00  0.00    +0.000 A 
ATOM     10  C   UNL     1       9.247  12.047  18.075  0.00  0.00    +0.000 A 
ATOM     11  C   UNL     1       9.964  11.942  19.260  0.00  0.00    +0.000 A 
ATOM     12 BR   UNL     1      10.982  13.416  19.863  0.00  0.00    +0.000 Br
ATOM     13  C   UNL     1       9.946  10.757  19.995  0.00  0.00    +0.000 A 
ATOM     14  C   UNL     1       9.211   9.659  19.535  0.00  0.00    +0.000 A 
ENDBRANCH   5   8
ENDBRANCH   1   2
BRANCH   1  15
ATOM     15  N   UNL     1       6.109   4.458  17.509  0.00  0.00    +0.000 N 
ATOM     16  C   UNL     1       5.821   4.472  18.849  0.00  0.00    +0.000 C 
ATOM     17  O   UNL     1       6.550   5.019  19.674  0.00  0.00    +0.000 OA
ATOM     18  H   UNL     1       5.573   3.874  16.878  0.00  0.00    +0.000 HD
BRANCH  16  19
ATOM     19  C   UNL     1       4.509   3.820  19.264  0.00  0.00    +0.000 C 
ATOM     20  C   UNL     1       3.970   2.838  18.225  0.00  0.00    +0.000 C 
ATOM     21  C   UNL     1       2.660   2.213  18.713  0.00  0.00    +0.000 C 
ATOM     22  N   UNL     1       1.659   3.243  19.029  0.00  0.00    +0.000 NA
ATOM     23  C   UNL     1       0.415   2.616  19.487  0.00  0.00    +0.000 C 
ATOM     24  C   UNL     1       2.149   4.185  20.045  0.00  0.00    +0.000 C 
ATOM     25  C   UNL     1       3.441   4.864  19.593  0.00  0.00    +0.000 C 
ENDBRANCH  16  19
ENDBRANCH   1  15
BRANCH   1  26
ATOM     26  C   UNL     1       7.508   4.716  15.487  0.00  0.00    +0.000 C 
BRANCH  26  27
ATOM     27  C   UNL     1       6.320   3.928  14.928  0.00  0.00    +0.000 C 
BRANCH  27  28
ATOM     28  C   UNL     1       6.339   3.873  13.402  0.00  0.00    +0.000 C 
BRANCH  28  29
ATOM     29  C   UNL     1       4.924   3.660  12.870  0.00  0.00    +0.000 C 
BRANCH  29  30
ATOM     30  C   UNL     1       4.923   3.174  11.426  0.00  0.00    +0.000 C 
BRANCH  30  32
ATOM     31  C   UNL     1       3.225   4.312   9.873  0.00  0.00    +0.000 C 
ATOM     32  C   UNL     1       3.525   3.195  10.835  0.00  0.00    +0.000 C 
ATOM     33  O   UNL     1       2.669   2.357  11.114  0.00  0.00    +0.000 OA
ENDBRANCH  30  32
ENDBRANCH  29  30
ENDBRANCH  28  29
ENDBRANCH  27  28
ENDBRANCH  26  27
ENDBRANCH   1  26
TORSDOF 10
ENDMDL
MODEL 6
REMARK VINA RESULT:      -6.6      1.801      2.407
REMARK  Name = 
REMARK  12 active torsions:
REMARK  status: ('A' for Active; 'I' for Inactive)
REMARK    1  A    between atoms: C_1  and  C_2
REMARK    2  A    between atoms: C_2  and  C_4
REMARK    3  A    between atoms: C_4  and  C_5
REMARK    4  A    between atoms: C_5  and  C_6
REMARK    5  A    between atoms: C_6  and  C_7
REMARK    6  A    between atoms: C_7  and  C_8
REMARK    7  A    between atoms: C_8  and  C_9
REMARK    8  A    between atoms: C_9  and  N_10
REMARK    9  A    between atoms: C_9  and  C_20
REMARK   10  A    between atoms: C_11  and  C_13
REMARK   11  A    between atoms: N_16  and  C_17
REMARK   12  A    between atoms: C_23  and  C_24
REMARK                            x       y       z     vdW  Elec       q    Type
REMARK                         _______ _______ _______ _____ _____    ______ ____
ROOT
ATOM      1  C   UNL     1       1.022  10.329  20.171  0.00  0.00    +0.000 C 
ENDROOT
BRANCH   1   2
ATOM      2  C   UNL     1       1.602   9.256  19.298  0.00  0.00    +0.000 A 
ATOM      3  N   UNL     1       2.025   9.406  18.059  0.00  0.00    +0.000 NA
ATOM      4  C   UNL     1       2.403   8.161  17.651  0.00  0.00    +0.000 A 
ATOM      5  C   UNL     1       2.276   7.229  18.664  0.00  0.00    +0.000 A 
ATOM      6  N   UNL     1       1.742   7.950  19.710  0.00  0.00    +0.000 N 
ATOM      7  H   UNL     1       1.519   7.598  20.628  0.00  0.00    +0.000 HD
BRANCH   5   8
ATOM      8  C   UNL     1       2.639   5.819  18.688  0.00  0.00    +0.000 A 
ATOM      9  C   UNL     1       3.779   5.407  17.977  0.00  0.00    +0.000 A 
ATOM     10  C   UNL     1       4.139   4.060  17.912  0.00  0.00    +0.000 A 
ATOM     11  C   UNL     1       3.357   3.112  18.561  0.00  0.00    +0.000 A 
ATOM     12 BR   UNL     1       3.822   1.285  18.441  0.00  0.00    +0.000 Br
ATOM     13  C   UNL     1       2.230   3.501  19.285  0.00  0.00    +0.000 A 
ATOM     14  C   UNL     1       1.873   4.853  19.352  0.00  0.00    +0.000 A 
ENDBRANCH   5   8
ENDBRANCH   1   2
BRANCH   1  15
ATOM     15  N   UNL     1      -0.301  10.624  19.648  0.00  0.00    +0.000 N 
ATOM     16  C   UNL     1      -0.525  11.676  18.798  0.00  0.00    +0.000 C 
ATOM     17  O   UNL     1       0.380  12.407  18.401  0.00  0.00    +0.000 OA
ATOM     18  H   UNL     1      -1.081  10.138  20.074  0.00  0.00    +0.000 HD
BRANCH  16  19
ATOM     19  C   UNL     1      -1.957  11.861  18.317  0.00  0.00    +0.000 C 
ATOM     20  C   UNL     1      -2.938  12.169  19.448  0.00  0.00    +0.000 C 
ATOM     21  C   UNL     1      -4.352  12.355  18.891  0.00  0.00    +0.000 C 
ATOM     22  N   UNL     1      -4.787  11.175  18.127  0.00  0.00    +0.000 NA
ATOM     23  C   UNL     1      -6.145  11.379  17.613  0.00  0.00    +0.000 C 
ATOM     24  C   UNL     1      -3.870  10.876  17.018  0.00  0.00    +0.000 C 
ATOM     25  C   UNL     1      -2.446  10.648  17.523  0.00  0.00    +0.000 C 
ENDBRANCH  16  19
ENDBRANCH   1  15
BRANCH   1  26
ATOM     26  C   UNL     1       0.953   9.875  21.643  0.00  0.00    +0.000 C 
BRANCH  26  27
ATOM     27  C   UNL     1      -0.492   9.750  22.135  0.00  0.00    +0.000 C 
BRANCH  27  28
ATOM     28  C   UNL     1      -0.831  10.809  23.181  0.00  0.00    +0.000 C 
BRANCH  28  29
ATOM     29  C   UNL     1      -1.549  11.984  22.520  0.00  0.00    +0.000 C 
BRANCH  29  30
ATOM     30  C   UNL     1      -2.307  12.833  23.532  0.00  0.00    +0.000 C 
BRANCH  30  32
ATOM     31  C   UNL     1      -4.461  12.426  24.867  0.00  0.00    +0.000 C 
ATOM     32  C   UNL     1      -3.791  12.515  23.524  0.00  0.00    +0.000 C 
ATOM     33  O   UNL     1      -4.429  12.335  22.488  0.00  0.00    +0.000 OA
ENDBRANCH  30  32
ENDBRANCH  29  30
ENDBRANCH  28  29
ENDBRANCH  27  28
ENDBRANCH  26  27
ENDBRANCH   1  26
TORSDOF 10
ENDMDL
MODEL 7
REMARK VINA RESULT:      -6.6      2.912      6.233
REMARK  Name = 
REMARK  12 active torsions:
REMARK  status: ('A' for Active; 'I' for Inactive)
REMARK    1  A    between atoms: C_1  and  C_2
REMARK    2  A    between atoms: C_2  and  C_4
REMARK    3  A    between atoms: C_4  and  C_5
REMARK    4  A    between atoms: C_5  and  C_6
REMARK    5  A    between atoms: C_6  and  C_7
REMARK    6  A    between atoms: C_7  and  C_8
REMARK    7  A    between atoms: C_8  and  C_9
REMARK    8  A    between atoms: C_9  and  N_10
REMARK    9  A    between atoms: C_9  and  C_20
REMARK   10  A    between atoms: C_11  and  C_13
REMARK   11  A    between atoms: N_16  and  C_17
REMARK   12  A    between atoms: C_23  and  C_24
REMARK                            x       y       z     vdW  Elec       q    Type
REMARK                         _______ _______ _______ _____ _____    ______ ____
ROOT
ATOM      1  C   UNL     1       2.397   6.130  19.934  0.00  0.00    +0.000 C 
ENDROOT
BRANCH   1   2
ATOM      2  C   UNL     1       3.673   5.784  19.225  0.00  0.00    +0.000 A 
ATOM      3  N   UNL     1       4.868   5.695  19.773  0.00  0.00    +0.000 NA
ATOM      4  C   UNL     1       5.720   5.423  18.744  0.00  0.00    +0.000 A 
ATOM      5  C   UNL     1       5.047   5.277  17.546  0.00  0.00    +0.000 A 
ATOM      6  N   UNL     1       3.733   5.531  17.873  0.00  0.00    +0.000 N 
ATOM      7  H   UNL     1       2.944   5.508  17.245  0.00  0.00    +0.000 HD
BRANCH   5   8
ATOM      8  C   UNL     1       5.551   4.908  16.230  0.00  0.00    +0.000 A 
ATOM      9  C   UNL     1       6.839   5.331  15.862  0.00  0.00    +0.000 A 
ATOM     10  C   UNL     1       7.350   5.060  14.591  0.00  0.00    +0.000 A 
ATOM     11  C   UNL     1       6.571   4.362  13.677  0.00  0.00    +0.000 A 
ATOM     12 BR   UNL     1       7.246   4.030  11.943  0.00  0.00    +0.000 Br
ATOM     13  C   UNL     1       5.295   3.921  14.026  0.00  0.00    +0.000 A 
ATOM     14  C   UNL     1       4.786   4.190  15.303  0.00  0.00    +0.000 A 
ENDBRANCH   5   8
ENDBRANCH   1   2
BRANCH   1  15
ATOM     15  N   UNL     1       2.198   7.559  19.762  0.00  0.00    +0.000 N 
ATOM     16  C   UNL     1       1.317   8.265  20.540  0.00  0.00    +0.000 C 
ATOM     17  O   UNL     1       0.674   7.742  21.447  0.00  0.00    +0.000 OA
ATOM     18  H   UNL     1       2.595   7.980  18.931  0.00  0.00    +0.000 HD
BRANCH  16  19
ATOM     19  C   UNL     1       1.217   9.758  20.260  0.00  0.00    +0.000 C 
ATOM     20  C   UNL     1      -0.041  10.397  20.846  0.00  0.00    +0.000 C 
ATOM     21  C   UNL     1      -0.068  11.897  20.537  0.00  0.00    +0.000 C 
ATOM     22  N   UNL     1       0.023  12.150  19.091  0.00  0.00    +0.000 NA
ATOM     23  C   UNL     1      -0.012  13.591  18.826  0.00  0.00    +0.000 C 
ATOM     24  C   UNL     1       1.240  11.563  18.512  0.00  0.00    +0.000 C 
ATOM     25  C   UNL     1       1.302  10.056  18.763  0.00  0.00    +0.000 C 
ENDBRANCH  16  19
ENDBRANCH   1  15
BRANCH   1  26
ATOM     26  C   UNL     1       1.209   5.327  19.368  0.00  0.00    +0.000 C 
BRANCH  26  27
ATOM     27  C   UNL     1       0.892   4.095  20.222  0.00  0.00    +0.000 C 
BRANCH  27  28
ATOM     28  C   UNL     1       0.511   2.890  19.365  0.00  0.00    +0.000 C 
BRANCH  28  29
ATOM     29  C   UNL     1       1.545   1.780  19.538  0.00  0.00    +0.000 C 
BRANCH  29  30
ATOM     30  C   UNL     1       2.753   2.244  20.342  0.00  0.00    +0.000 C 
BRANCH  30  32
ATOM     31  C   UNL     1       3.883   1.774  18.084  0.00  0.00    +0.000 C 
ATOM     32  C   UNL     1       4.037   2.106  19.543  0.00  0.00    +0.000 C 
ATOM     33  O   UNL     1       5.152   2.251  20.041  0.00  0.00    +0.000 OA
ENDBRANCH  30  32
ENDBRANCH  29  30
ENDBRANCH  28  29
ENDBRANCH  27  28
ENDBRANCH  26  27
ENDBRANCH   1  26
TORSDOF 10
ENDMDL
MODEL 8
REMARK VINA RESULT:      -6.6      2.936      6.211
REMARK  Name = 
REMARK  12 active torsions:
REMARK  status: ('A' for Active; 'I' for Inactive)
REMARK    1  A    between atoms: C_1  and  C_2
REMARK    2  A    between atoms: C_2  and  C_4
REMARK    3  A    between atoms: C_4  and  C_5
REMARK    4  A    between atoms: C_5  and  C_6
REMARK    5  A    between atoms: C_6  and  C_7
REMARK    6  A    between atoms: C_7  and  C_8
REMARK    7  A    between atoms: C_8  and  C_9
REMARK    8  A    between atoms: C_9  and  N_10
REMARK    9  A    between atoms: C_9  and  C_20
REMARK   10  A    between atoms: C_11  and  C_13
REMARK   11  A    between atoms: N_16  and  C_17
REMARK   12  A    between atoms: C_23  and  C_24
REMARK                            x       y       z     vdW  Elec       q    Type
REMARK                         _______ _______ _______ _____ _____    ______ ____
ROOT
ATOM      1  C   UNL     1       2.515   6.070  19.788  0.00  0.00    +0.000 C 
ENDROOT
BRANCH   1   2
ATOM      2  C   UNL     1       3.787   5.771  19.050  0.00  0.00    +0.000 A 
ATOM      3  N   UNL     1       4.993   5.705  19.576  0.00  0.00    +0.000 NA
ATOM      4  C   UNL     1       5.834   5.473  18.527  0.00  0.00    +0.000 A 
ATOM      5  C   UNL     1       5.143   5.328  17.338  0.00  0.00    +0.000 A 
ATOM      6  N   UNL     1       3.830   5.541  17.693  0.00  0.00    +0.000 N 
ATOM      7  H   UNL     1       3.030   5.507  17.079  0.00  0.00    +0.000 HD
BRANCH   5   8
ATOM      8  C   UNL     1       5.633   4.995  16.008  0.00  0.00    +0.000 A 
ATOM      9  C   UNL     1       4.788   4.282  15.141  0.00  0.00    +0.000 A 
ATOM     10  C   UNL     1       5.225   3.881  13.878  0.00  0.00    +0.000 A 
ATOM     11  C   UNL     1       6.517   4.192  13.472  0.00  0.00    +0.000 A 
ATOM     12 BR   UNL     1       7.123   3.615  11.778  0.00  0.00    +0.000 Br
ATOM     13  C   UNL     1       7.368   4.911  14.311  0.00  0.00    +0.000 A 
ATOM     14  C   UNL     1       6.925   5.317  15.576  0.00  0.00    +0.000 A 
ENDBRANCH   5   8
ENDBRANCH   1   2
BRANCH   1  15
ATOM     15  N   UNL     1       2.247   7.486  19.600  0.00  0.00    +0.000 N 
ATOM     16  C   UNL     1       1.507   8.207  20.500  0.00  0.00    +0.000 C 
ATOM     17  O   UNL     1       1.058   7.712  21.532  0.00  0.00    +0.000 OA
ATOM     18  H   UNL     1       2.471   7.878  18.693  0.00  0.00    +0.000 HD
BRANCH  16  19
ATOM     19  C   UNL     1       1.314   9.684  20.185  0.00  0.00    +0.000 C 
ATOM     20  C   UNL     1       0.601  10.449  21.299  0.00  0.00    +0.000 C 
ATOM     21  C   UNL     1       0.453  11.925  20.920  0.00  0.00    +0.000 C 
ATOM     22  N   UNL     1      -0.254  12.083  19.640  0.00  0.00    +0.000 NA
ATOM     23  C   UNL     1      -0.386  13.505  19.307  0.00  0.00    +0.000 C 
ATOM     24  C   UNL     1       0.430  11.374  18.549  0.00  0.00    +0.000 C 
ATOM     25  C   UNL     1       0.574   9.885  18.862  0.00  0.00    +0.000 C 
ENDBRANCH  16  19
ENDBRANCH   1  15
BRANCH   1  26
ATOM     26  C   UNL     1       1.350   5.206  19.265  0.00  0.00    +0.000 C 
BRANCH  26  27
ATOM     27  C   UNL     1       0.753   4.324  20.367  0.00  0.00    +0.000 C 
BRANCH  27  28
ATOM     28  C   UNL     1       0.946   2.838  20.075  0.00  0.00    +0.000 C 
BRANCH  28  29
ATOM     29  C   UNL     1       1.838   2.208  21.142  0.00  0.00    +0.000 C 
BRANCH  29  30
ATOM     30  C   UNL     1       3.216   2.856  21.190  0.00  0.00    +0.000 C 
BRANCH  30  32
ATOM     31  C   UNL     1       3.825   2.106  18.812  0.00  0.00    +0.000 C 
ATOM     32  C   UNL     1       4.194   2.150  20.269  0.00  0.00    +0.000 C 
ATOM     33  O   UNL     1       5.236   1.634  20.671  0.00  0.00    +0.000 OA
ENDBRANCH  30  32
ENDBRANCH  29  30
ENDBRANCH  28  29
ENDBRANCH  27  28
ENDBRANCH  26  27
ENDBRANCH   1  26
TORSDOF 10
ENDMDL
MODEL 9
REMARK VINA RESULT:      -6.5      4.281      8.716
REMARK  Name = 
REMARK  12 active torsions:
REMARK  status: ('A' for Active; 'I' for Inactive)
REMARK    1  A    between atoms: C_1  and  C_2
REMARK    2  A    between atoms: C_2  and  C_4
REMARK    3  A    between atoms: C_4  and  C_5
REMARK    4  A    between atoms: C_5  and  C_6
REMARK    5  A    between atoms: C_6  and  C_7
REMARK    6  A    between atoms: C_7  and  C_8
REMARK    7  A    between atoms: C_8  and  C_9
REMARK    8  A    between atoms: C_9  and  N_10
REMARK    9  A    between atoms: C_9  and  C_20
REMARK   10  A    between atoms: C_11  and  C_13
REMARK   11  A    between atoms: N_16  and  C_17
REMARK   12  A    between atoms: C_23  and  C_24
REMARK                            x       y       z     vdW  Elec       q    Type
REMARK                         _______ _______ _______ _____ _____    ______ ____
ROOT
ATOM      1  C   UNL     1       1.223   9.799  19.743  0.00  0.00    +0.000 C 
ENDROOT
BRANCH   1   2
ATOM      2  C   UNL     1       0.405  10.139  20.954  0.00  0.00    +0.000 A 
ATOM      3  N   UNL     1       0.106   9.322  21.944  0.00  0.00    +0.000 NA
ATOM      4  C   UNL     1      -0.699  10.042  22.778  0.00  0.00    +0.000 A 
ATOM      5  C   UNL     1      -0.855  11.344  22.341  0.00  0.00    +0.000 A 
ATOM      6  N   UNL     1      -0.152  11.381  21.157  0.00  0.00    +0.000 N 
ATOM      7  H   UNL     1      -0.035  12.181  20.554  0.00  0.00    +0.000 HD
BRANCH   5   8
ATOM      8  C   UNL     1      -1.554  12.461  22.962  0.00  0.00    +0.000 A 
ATOM      9  C   UNL     1      -2.889  12.279  23.361  0.00  0.00    +0.000 A 
ATOM     10  C   UNL     1      -3.628  13.331  23.905  0.00  0.00    +0.000 A 
ATOM     11  C   UNL     1      -3.032  14.577  24.053  0.00  0.00    +0.000 A 
ATOM     12 BR   UNL     1      -4.044  16.012  24.753  0.00  0.00    +0.000 Br
ATOM     13  C   UNL     1      -1.704  14.776  23.678  0.00  0.00    +0.000 A 
ATOM     14  C   UNL     1      -0.963  13.718  23.137  0.00  0.00    +0.000 A 
ENDBRANCH   5   8
ENDBRANCH   1   2
BRANCH   1  15
ATOM     15  N   UNL     1       1.488   8.371  19.806  0.00  0.00    +0.000 N 
ATOM     16  C   UNL     1       2.323   7.751  18.914  0.00  0.00    +0.000 C 
ATOM     17  O   UNL     1       2.922   8.366  18.034  0.00  0.00    +0.000 OA
ATOM     18  H   UNL     1       0.896   7.821  20.417  0.00  0.00    +0.000 HD
BRANCH  16  19
ATOM     19  C   UNL     1       2.521   6.254  19.103  0.00  0.00    +0.000 C 
ATOM     20  C   UNL     1       2.064   5.429  17.901  0.00  0.00    +0.000 C 
ATOM     21  C   UNL     1       2.303   3.938  18.157  0.00  0.00    +0.000 C 
ATOM     22  N   UNL     1       1.631   3.489  19.386  0.00  0.00    +0.000 NA
ATOM     23  C   UNL     1       1.872   2.059  19.601  0.00  0.00    +0.000 C 
ATOM     24  C   UNL     1       2.075   4.254  20.560  0.00  0.00    +0.000 C 
ATOM     25  C   UNL     1       1.828   5.751  20.371  0.00  0.00    +0.000 C 
ENDBRANCH  16  19
ENDBRANCH   1  15
BRANCH   1  26
ATOM     26  C   UNL     1       0.480  10.173  18.445  0.00  0.00    +0.000 C 
BRANCH  26  27
ATOM     27  C   UNL     1      -0.989   9.740  18.481  0.00  0.00    +0.000 C 
BRANCH  27  28
ATOM     28  C   UNL     1      -1.872  10.652  17.633  0.00  0.00    +0.000 C 
BRANCH  28  29
ATOM     29  C   UNL     1      -3.335  10.238  17.773  0.00  0.00    +0.000 C 
BRANCH  29  30
ATOM     30  C   UNL     1      -4.235  10.976  16.792  0.00  0.00    +0.000 C 
BRANCH  30  32
ATOM     31  C   UNL     1      -5.062  11.975  19.008  0.00  0.00    +0.000 C 
ATOM     32  C   UNL     1      -5.171  11.934  17.509  0.00  0.00    +0.000 C 
ATOM     33  O   UNL     1      -5.982  12.644  16.916  0.00  0.00    +0.000 OA
ENDBRANCH  30  32
ENDBRANCH  29  30
ENDBRANCH  28  29
ENDBRANCH  27  28
ENDBRANCH  26  27
ENDBRANCH   1  26
TORSDOF 10
ENDMDL
