MODEL 1
REMARK VINA RESULT:      -8.3      0.000      0.000
REMARK  Name = 
REMARK  15 active torsions:
REMARK  status: ('A' for Active; 'I' for Inactive)
REMARK    1  A    between atoms: C_1  and  C_2
REMARK    2  A    between atoms: C_2  and  N_3
REMARK    3  A    between atoms: C_2  and  P_32
REMARK    4  A    between atoms: N_3  and  CA_4
REMARK    5  A    between atoms: CA_4  and  CB_5
REMARK    6  A    between atoms: CA_4  and  C_12
REMARK    7  A    between atoms: CB_5  and  CG_6
REMARK    8  A    between atoms: N_14  and  C_15
REMARK    9  A    between atoms: C_15  and  C_16
REMARK   10  A    between atoms: C_15  and  C_29
REMARK   11  A    between atoms: C_16  and  C_17
REMARK   12  A    between atoms: C_20  and  C_21
REMARK   13  A    between atoms: C_29  and  O_31
REMARK   14  A    between atoms: P_32  and  O_34
REMARK   15  A    between atoms: P_32  and  O_35
REMARK                            x       y       z     vdW  Elec       q    Type
REMARK                         _______ _______ _______ _____ _____    ______ ____
ROOT
ATOM      1  C   PHE A   1       4.457   3.934  17.508  0.00  0.00    +0.000 C 
ATOM      2  O   PHE A   1       4.588   2.730  17.704  0.00  0.00    +0.000 OA
ATOM      3  N   UNK A   2       3.561   4.699  18.224  0.00  0.00    +0.000 N 
ATOM      4  H   UNK A   2       3.494   5.690  17.995  0.00  0.00    +0.000 HD
ENDROOT
BRANCH   1   5
ATOM      5  CA  PHE A   1       5.244   4.766  16.451  0.00  0.00    +0.000 C 
BRANCH   5   6
ATOM      6  N   PHE A   1       6.644   4.889  16.927  0.00  0.00    +0.000 NA
ATOM      7  H   PHE A   1       7.283   4.596  16.178  0.00  0.00    +0.000 HD
BRANCH   6   9
ATOM      8  C   UNK A   0       6.138   7.307  17.447  0.00  0.00    +0.000 C 
ATOM      9  C   UNK A   0       7.174   6.192  17.443  0.00  0.00    +0.000 C 
BRANCH   9  10
ATOM     10  P   UNK A   0       7.727   5.785  19.139  0.00  0.00    +0.000 P 
ATOM     11  O   UNK A   0       8.295   4.435  18.696  0.00  0.00    +0.000 OA
BRANCH  10  12
ATOM     12  O   UNK A   0       6.199   5.500  19.684  0.00  0.00    +0.000 OA
ATOM     13  H   UNK A   0       6.064   4.531  19.707  0.00  0.00    +0.000 HD
ENDBRANCH  10  12
BRANCH  10  14
ATOM     14  O   UNK A   0       8.250   5.399  20.742  0.00  0.00    +0.000 OA
ATOM     15  H   UNK A   0       8.858   6.140  20.954  0.00  0.00    +0.000 HD
ENDBRANCH  10  14
ENDBRANCH   9  10
ENDBRANCH   6   9
ENDBRANCH   5   6
BRANCH   5  16
ATOM     16  CB  PHE A   1       4.890   4.315  15.011  0.00  0.00    +0.000 C 
BRANCH  16  17
ATOM     17  CG  PHE A   1       5.862   4.166  13.852  0.00  0.00    +0.000 A 
ATOM     18  CD1 PHE A   1       5.521   3.267  12.813  0.00  0.00    +0.000 A 
ATOM     19  CE1 PHE A   1       6.237   3.218  11.612  0.00  0.00    +0.000 A 
ATOM     20  CZ  PHE A   1       7.326   4.058  11.427  0.00  0.00    +0.000 A 
ATOM     21  CE2 PHE A   1       7.710   4.919  12.455  0.00  0.00    +0.000 A 
ATOM     22  CD2 PHE A   1       6.985   4.974  13.659  0.00  0.00    +0.000 A 
ENDBRANCH  16  17
ENDBRANCH   5  16
ENDBRANCH   1   5
BRANCH   3  23
ATOM     23  C   UNK A   2       2.723   4.200  19.310  0.00  0.00    +0.000 C 
BRANCH  23  24
ATOM     24  C   UNK A   2       1.358   3.824  18.715  0.00  0.00    +0.000 C 
ATOM     25  O   UNK A   2       0.476   3.260  19.353  0.00  0.00    +0.000 OA
BRANCH  24  26
ATOM     26  O   UNK A   2       1.165   4.203  17.431  0.00  0.00    +0.000 OA
ATOM     27  H   UNK A   2       1.826   3.881  16.790  0.00  0.00    +0.000 HD
ENDBRANCH  24  26
ENDBRANCH  23  24
BRANCH  23  28
ATOM     28  C   UNK A   2       2.603   5.183  20.483  0.00  0.00    +0.000 C 
BRANCH  28  29
ATOM     29  C   UNK A   2       2.201   6.601  20.138  0.00  0.00    +0.000 A 
ATOM     30  C   UNK A   2       2.490   7.163  18.895  0.00  0.00    +0.000 A 
ATOM     31  C   UNK A   2       1.987   8.434  18.556  0.00  0.00    +0.000 A 
ATOM     32  C   UNK A   2       1.169   9.163  19.442  0.00  0.00    +0.000 A 
ATOM     33  C   UNK A   2       0.934   8.591  20.703  0.00  0.00    +0.000 A 
ATOM     34  C   UNK A   2       1.453   7.341  21.055  0.00  0.00    +0.000 A 
BRANCH  32  35
ATOM     35  C   UNK A   2       0.529  10.445  19.058  0.00  0.00    +0.000 A 
ATOM     36  C   UNK A   2       1.260  11.647  19.002  0.00  0.00    +0.000 A 
ATOM     37  C   UNK A   2       0.675  12.842  18.563  0.00  0.00    +0.000 A 
ATOM     38  C   UNK A   2      -0.656  12.861  18.161  0.00  0.00    +0.000 A 
ATOM     39  C   UNK A   2      -1.408  11.693  18.218  0.00  0.00    +0.000 A 
ATOM     40  C   UNK A   2      -0.825  10.506  18.673  0.00  0.00    +0.000 A 
ENDBRANCH  32  35
ENDBRANCH  28  29
ENDBRANCH  23  28
ENDBRANCH   3  23
TORSDOF 14
ENDMDL
MODEL 2
REMARK VINA RESULT:      -8.3      3.514      7.827
REMARK  Name = 
REMARK  15 active torsions:
REMARK  status: ('A' for Active; 'I' for Inactive)
REMARK    1  A    between atoms: C_1  and  C_2
REMARK    2  A    between atoms: C_2  and  N_3
REMARK    3  A    between atoms: C_2  and  P_32
REMARK    4  A    between atoms: N_3  and  CA_4
REMARK    5  A    between atoms: CA_4  and  CB_5
REMARK    6  A    between atoms: CA_4  and  C_12
REMARK    7  A    between atoms: CB_5  and  CG_6
REMARK    8  A    between atoms: N_14  and  C_15
REMARK    9  A    between atoms: C_15  and  C_16
REMARK   10  A    between atoms: C_15  and  C_29
REMARK   11  A    between atoms: C_16  and  C_17
REMARK   12  A    between atoms: C_20  and  C_21
REMARK   13  A    between atoms: C_29  and  O_31
REMARK   14  A    between atoms: P_32  and  O_34
REMARK   15  A    between atoms: P_32  and  O_35
REMARK                            x       y       z     vdW  Elec       q    Type
REMARK                         _______ _______ _______ _____ _____    ______ ____
ROOT
ATOM      1  C   PHE A   1       3.628   6.648  17.579  0.00  0.00    +0.000 C 
ATOM      2  O   PHE A   1       3.700   7.807  17.185  0.00  0.00    +0.000 OA
ATOM      3  N   UNK A   2       4.591   5.710  17.276  0.00  0.00    +0.000 N 
ATOM      4  H   UNK A   2       4.457   4.762  17.623  0.00  0.00    +0.000 HD
ENDROOT
BRANCH   1   5
ATOM      5  CA  PHE A   1       2.474   6.061  18.447  0.00  0.00    +0.000 C 
BRANCH   5   6
ATOM      6  N   PHE A   1       2.487   4.587  18.275  0.00  0.00    +0.000 NA
ATOM      7  H   PHE A   1       3.339   4.313  17.772  0.00  0.00    +0.000 HD
BRANCH   6   9
ATOM      8  C   UNK A   0       0.952   3.392  19.883  0.00  0.00    +0.000 C 
ATOM      9  C   UNK A   0       2.385   3.670  19.456  0.00  0.00    +0.000 C 
BRANCH   9  10
ATOM     10  P   UNK A   0       3.222   2.146  18.883  0.00  0.00    +0.000 P 
ATOM     11  O   UNK A   0       4.252   2.213  20.013  0.00  0.00    +0.000 OA
BRANCH  10  12
ATOM     12  O   UNK A   0       3.903   2.882  17.576  0.00  0.00    +0.000 OA
ATOM     13  H   UNK A   0       4.738   2.416  17.370  0.00  0.00    +0.000 HD
ENDBRANCH  10  12
BRANCH  10  14
ATOM     14  O   UNK A   0       4.013   0.705  18.343  0.00  0.00    +0.000 OA
ATOM     15  H   UNK A   0       3.345   0.304  17.747  0.00  0.00    +0.000 HD
ENDBRANCH  10  14
ENDBRANCH   9  10
ENDBRANCH   6   9
ENDBRANCH   5   6
BRANCH   5  16
ATOM     16  CB  PHE A   1       2.427   6.736  19.842  0.00  0.00    +0.000 C 
BRANCH  16  17
ATOM     17  CG  PHE A   1       1.631   7.976  20.213  0.00  0.00    +0.000 A 
ATOM     18  CD1 PHE A   1       1.370   8.924  19.195  0.00  0.00    +0.000 A 
ATOM     19  CE1 PHE A   1       0.474   9.983  19.383  0.00  0.00    +0.000 A 
ATOM     20  CZ  PHE A   1      -0.173  10.128  20.601  0.00  0.00    +0.000 A 
ATOM     21  CE2 PHE A   1       0.104   9.234  21.635  0.00  0.00    +0.000 A 
ATOM     22  CD2 PHE A   1       0.998   8.165  21.444  0.00  0.00    +0.000 A 
ENDBRANCH  16  17
ENDBRANCH   5  16
ENDBRANCH   1   5
BRANCH   3  23
ATOM     23  C   UNK A   2       5.810   5.983  16.518  0.00  0.00    +0.000 C 
BRANCH  23  24
ATOM     24  C   UNK A   2       5.879   4.976  15.362  0.00  0.00    +0.000 C 
ATOM     25  O   UNK A   2       5.106   4.032  15.241  0.00  0.00    +0.000 OA
BRANCH  24  26
ATOM     26  O   UNK A   2       6.836   5.225  14.437  0.00  0.00    +0.000 OA
ATOM     27  H   UNK A   2       6.868   6.139  14.097  0.00  0.00    +0.000 HD
ENDBRANCH  24  26
ENDBRANCH  23  24
BRANCH  23  28
ATOM     28  C   UNK A   2       7.077   5.974  17.385  0.00  0.00    +0.000 C 
BRANCH  28  29
ATOM     29  C   UNK A   2       7.589   7.322  17.845  0.00  0.00    +0.000 A 
ATOM     30  C   UNK A   2       8.489   7.443  18.903  0.00  0.00    +0.000 A 
ATOM     31  C   UNK A   2       9.048   8.696  19.220  0.00  0.00    +0.000 A 
ATOM     32  C   UNK A   2       8.736   9.851  18.478  0.00  0.00    +0.000 A 
ATOM     33  C   UNK A   2       7.791   9.708  17.449  0.00  0.00    +0.000 A 
ATOM     34  C   UNK A   2       7.212   8.471  17.146  0.00  0.00    +0.000 A 
BRANCH  32  35
ATOM     35  C   UNK A   2       9.406  11.154  18.716  0.00  0.00    +0.000 A 
ATOM     36  C   UNK A   2      10.446  11.288  19.655  0.00  0.00    +0.000 A 
ATOM     37  C   UNK A   2      11.132  12.498  19.823  0.00  0.00    +0.000 A 
ATOM     38  C   UNK A   2      10.799  13.602  19.048  0.00  0.00    +0.000 A 
ATOM     39  C   UNK A   2       9.767  13.505  18.120  0.00  0.00    +0.000 A 
ATOM     40  C   UNK A   2       9.074  12.300  17.968  0.00  0.00    +0.000 A 
ENDBRANCH  32  35
ENDBRANCH  28  29
ENDBRANCH  23  28
ENDBRANCH   3  23
TORSDOF 14
ENDMDL
MODEL 3
REMARK VINA RESULT:      -8.3      1.038      1.281
REMARK  Name = 
REMARK  15 active torsions:
REMARK  status: ('A' for Active; 'I' for Inactive)
REMARK    1  A    between atoms: C_1  and  C_2
REMARK    2  A    between atoms: C_2  and  N_3
REMARK    3  A    between atoms: C_2  and  P_32
REMARK    4  A    between atoms: N_3  and  CA_4
REMARK    5  A    between atoms: CA_4  and  CB_5
REMARK    6  A    between atoms: CA_4  and  C_12
REMARK    7  A    between atoms: CB_5  and  CG_6
REMARK    8  A    between atoms: N_14  and  C_15
REMARK    9  A    between atoms: C_15  and  C_16
REMARK   10  A    between atoms: C_15  and  C_29
REMARK   11  A    between atoms: C_16  and  C_17
REMARK   12  A    between atoms: C_20  and  C_21
REMARK   13  A    between atoms: C_29  and  O_31
REMARK   14  A    between atoms: P_32  and  O_34
REMARK   15  A    between atoms: P_32  and  O_35
REMARK                            x       y       z     vdW  Elec       q    Type
REMARK                         _______ _______ _______ _____ _____    ______ ____
ROOT
ATOM      1  C   PHE A   1       4.184   4.470  17.416  0.00  0.00    +0.000 C 
ATOM      2  O   PHE A   1       3.334   3.753  16.899  0.00  0.00    +0.000 OA
ATOM      3  N   UNK A   2       4.184   4.750  18.765  0.00  0.00    +0.000 N 
ATOM      4  H   UNK A   2       4.911   5.368  19.122  0.00  0.00    +0.000 HD
ENDROOT
BRANCH   1   5
ATOM      5  CA  PHE A   1       5.356   5.167  16.660  0.00  0.00    +0.000 C 
BRANCH   5   6
ATOM      6  N   PHE A   1       5.924   6.198  17.565  0.00  0.00    +0.000 NA
ATOM      7  H   PHE A   1       5.669   5.975  18.534  0.00  0.00    +0.000 HD
BRANCH   6   9
ATOM      8  C   UNK A   0       7.713   7.975  17.461  0.00  0.00    +0.000 C 
ATOM      9  C   UNK A   0       7.393   6.492  17.576  0.00  0.00    +0.000 C 
BRANCH   9  10
ATOM     10  P   UNK A   0       7.951   5.809  19.180  0.00  0.00    +0.000 P 
ATOM     11  O   UNK A   0       8.248   4.440  18.563  0.00  0.00    +0.000 OA
BRANCH  10  12
ATOM     12  O   UNK A   0       6.426   5.729  19.798  0.00  0.00    +0.000 OA
ATOM     13  H   UNK A   0       6.496   5.746  20.775  0.00  0.00    +0.000 HD
ENDBRANCH  10  12
BRANCH  10  14
ATOM     14  O   UNK A   0       8.479   5.162  20.695  0.00  0.00    +0.000 OA
ATOM     15  H   UNK A   0       8.661   5.969  21.221  0.00  0.00    +0.000 HD
ENDBRANCH  10  14
ENDBRANCH   9  10
ENDBRANCH   6   9
ENDBRANCH   5   6
BRANCH   5  16
ATOM     16  CB  PHE A   1       6.240   4.128  15.924  0.00  0.00    +0.000 C 
BRANCH  16  17
ATOM     17  CG  PHE A   1       6.698   4.204  14.477  0.00  0.00    +0.000 A 
ATOM     18  CD1 PHE A   1       6.046   3.377  13.532  0.00  0.00    +0.000 A 
ATOM     19  CE1 PHE A   1       6.247   3.526  12.155  0.00  0.00    +0.000 A 
ATOM     20  CZ  PHE A   1       7.119   4.499  11.689  0.00  0.00    +0.000 A 
ATOM     21  CE2 PHE A   1       7.810   5.294  12.603  0.00  0.00    +0.000 A 
ATOM     22  CD2 PHE A   1       7.602   5.150  13.987  0.00  0.00    +0.000 A 
ENDBRANCH  16  17
ENDBRANCH   5  16
ENDBRANCH   1   5
BRANCH   3  23
ATOM     23  C   UNK A   2       3.235   4.199  19.729  0.00  0.00    +0.000 C 
BRANCH  23  24
ATOM     24  C   UNK A   2       3.167   2.682  19.507  0.00  0.00    +0.000 C 
ATOM     25  O   UNK A   2       4.093   1.919  19.765  0.00  0.00    +0.000 OA
BRANCH  24  26
ATOM     26  O   UNK A   2       1.982   2.219  19.046  0.00  0.00    +0.000 OA
ATOM     27  H   UNK A   2       1.534   2.784  18.388  0.00  0.00    +0.000 HD
ENDBRANCH  24  26
ENDBRANCH  23  24
BRANCH  23  28
ATOM     28  C   UNK A   2       1.854   4.866  19.669  0.00  0.00    +0.000 C 
BRANCH  28  29
ATOM     29  C   UNK A   2       1.838   6.370  19.501  0.00  0.00    +0.000 A 
ATOM     30  C   UNK A   2       2.072   6.973  18.265  0.00  0.00    +0.000 A 
ATOM     31  C   UNK A   2       1.918   8.364  18.113  0.00  0.00    +0.000 A 
ATOM     32  C   UNK A   2       1.511   9.182  19.185  0.00  0.00    +0.000 A 
ATOM     33  C   UNK A   2       1.328   8.554  20.428  0.00  0.00    +0.000 A 
ATOM     34  C   UNK A   2       1.505   7.176  20.591  0.00  0.00    +0.000 A 
BRANCH  32  35
ATOM     35  C   UNK A   2       1.225  10.628  19.017  0.00  0.00    +0.000 A 
ATOM     36  C   UNK A   2       2.146  11.495  18.401  0.00  0.00    +0.000 A 
ATOM     37  C   UNK A   2       1.843  12.844  18.170  0.00  0.00    +0.000 A 
ATOM     38  C   UNK A   2       0.606  13.356  18.543  0.00  0.00    +0.000 A 
ATOM     39  C   UNK A   2      -0.321  12.526  19.165  0.00  0.00    +0.000 A 
ATOM     40  C   UNK A   2      -0.008  11.186  19.409  0.00  0.00    +0.000 A 
ENDBRANCH  32  35
ENDBRANCH  28  29
ENDBRANCH  23  28
ENDBRANCH   3  23
TORSDOF 14
ENDMDL
MODEL 4
REMARK VINA RESULT:      -8.2      3.794      7.689
REMARK  Name = 
REMARK  15 active torsions:
REMARK  status: ('A' for Active; 'I' for Inactive)
REMARK    1  A    between atoms: C_1  and  C_2
REMARK    2  A    between atoms: C_2  and  N_3
REMARK    3  A    between atoms: C_2  and  P_32
REMARK    4  A    between atoms: N_3  and  CA_4
REMARK    5  A    between atoms: CA_4  and  CB_5
REMARK    6  A    between atoms: CA_4  and  C_12
REMARK    7  A    between atoms: CB_5  and  CG_6
REMARK    8  A    between atoms: N_14  and  C_15
REMARK    9  A    between atoms: C_15  and  C_16
REMARK   10  A    between atoms: C_15  and  C_29
REMARK   11  A    between atoms: C_16  and  C_17
REMARK   12  A    between atoms: C_20  and  C_21
REMARK   13  A    between atoms: C_29  and  O_31
REMARK   14  A    between atoms: P_32  and  O_34
REMARK   15  A    between atoms: P_32  and  O_35
REMARK                            x       y       z     vdW  Elec       q    Type
REMARK                         _______ _______ _______ _____ _____    ______ ____
ROOT
ATOM      1  C   PHE A   1       4.492   6.473  17.500  0.00  0.00    +0.000 C 
ATOM      2  O   PHE A   1       4.492   7.422  16.723  0.00  0.00    +0.000 OA
ATOM      3  N   UNK A   2       5.649   5.802  17.835  0.00  0.00    +0.000 N 
ATOM      4  H   UNK A   2       5.571   5.011  18.473  0.00  0.00    +0.000 HD
ENDROOT
BRANCH   1   5
ATOM      5  CA  PHE A   1       3.233   5.882  18.203  0.00  0.00    +0.000 C 
BRANCH   5   6
ATOM      6  N   PHE A   1       3.678   5.266  19.479  0.00  0.00    +0.000 NA
ATOM      7  H   PHE A   1       3.755   5.996  20.197  0.00  0.00    +0.000 HD
BRANCH   6   9
ATOM      8  C   UNK A   0       1.581   3.863  19.416  0.00  0.00    +0.000 C 
ATOM      9  C   UNK A   0       2.908   4.143  20.105  0.00  0.00    +0.000 C 
BRANCH   9  10
ATOM     10  P   UNK A   0       4.049   2.718  19.967  0.00  0.00    +0.000 P 
ATOM     11  O   UNK A   0       5.231   3.621  19.606  0.00  0.00    +0.000 OA
BRANCH  10  12
ATOM     12  O   UNK A   0       3.399   2.198  18.545  0.00  0.00    +0.000 OA
ATOM     13  H   UNK A   0       2.735   2.857  18.259  0.00  0.00    +0.000 HD
ENDBRANCH  10  12
BRANCH  10  14
ATOM     14  O   UNK A   0       5.128   1.372  19.836  0.00  0.00    +0.000 OA
ATOM     15  H   UNK A   0       4.976   1.064  18.917  0.00  0.00    +0.000 HD
ENDBRANCH  10  14
ENDBRANCH   9  10
ENDBRANCH   6   9
ENDBRANCH   5   6
BRANCH   5  16
ATOM     16  CB  PHE A   1       2.038   6.866  18.126  0.00  0.00    +0.000 C 
BRANCH  16  17
ATOM     17  CG  PHE A   1       1.788   8.049  19.047  0.00  0.00    +0.000 A 
ATOM     18  CD1 PHE A   1       1.566   9.314  18.453  0.00  0.00    +0.000 A 
ATOM     19  CE1 PHE A   1       1.120  10.413  19.197  0.00  0.00    +0.000 A 
ATOM     20  CZ  PHE A   1       0.900  10.275  20.560  0.00  0.00    +0.000 A 
ATOM     21  CE2 PHE A   1       1.157   9.051  21.176  0.00  0.00    +0.000 A 
ATOM     22  CD2 PHE A   1       1.598   7.945  20.427  0.00  0.00    +0.000 A 
ENDBRANCH  16  17
ENDBRANCH   5  16
ENDBRANCH   1   5
BRANCH   3  23
ATOM     23  C   UNK A   2       6.985   6.161  17.367  0.00  0.00    +0.000 C 
BRANCH  23  24
ATOM     24  C   UNK A   2       7.568   4.944  16.635  0.00  0.00    +0.000 C 
ATOM     25  O   UNK A   2       7.536   4.808  15.417  0.00  0.00    +0.000 OA
BRANCH  24  26
ATOM     26  O   UNK A   2       8.178   4.032  17.428  0.00  0.00    +0.000 OA
ATOM     27  H   UNK A   2       8.760   4.396  18.121  0.00  0.00    +0.000 HD
ENDBRANCH  24  26
ENDBRANCH  23  24
BRANCH  23  28
ATOM     28  C   UNK A   2       7.902   6.671  18.486  0.00  0.00    +0.000 C 
BRANCH  28  29
ATOM     29  C   UNK A   2       8.208   8.154  18.485  0.00  0.00    +0.000 A 
ATOM     30  C   UNK A   2       9.082   8.724  19.410  0.00  0.00    +0.000 A 
ATOM     31  C   UNK A   2       9.448  10.079  19.298  0.00  0.00    +0.000 A 
ATOM     32  C   UNK A   2       8.965  10.889  18.253  0.00  0.00    +0.000 A 
ATOM     33  C   UNK A   2       8.051  10.300  17.365  0.00  0.00    +0.000 A 
ATOM     34  C   UNK A   2       7.663   8.962  17.485  0.00  0.00    +0.000 A 
BRANCH  32  35
ATOM     35  C   UNK A   2       9.433  12.282  18.046  0.00  0.00    +0.000 A 
ATOM     36  C   UNK A   2      10.665  12.562  17.425  0.00  0.00    +0.000 A 
ATOM     37  C   UNK A   2      11.070  13.877  17.158  0.00  0.00    +0.000 A 
ATOM     38  C   UNK A   2      10.247  14.944  17.499  0.00  0.00    +0.000 A 
ATOM     39  C   UNK A   2       9.030  14.700  18.126  0.00  0.00    +0.000 A 
ATOM     40  C   UNK A   2       8.637  13.387  18.406  0.00  0.00    +0.000 A 
ENDBRANCH  32  35
ENDBRANCH  28  29
ENDBRANCH  23  28
ENDBRANCH   3  23
TORSDOF 14
ENDMDL
MODEL 5
REMARK VINA RESULT:      -8.2      1.169      1.540
REMARK  Name = 
REMARK  15 active torsions:
REMARK  status: ('A' for Active; 'I' for Inactive)
REMARK    1  A    between atoms: C_1  and  C_2
REMARK    2  A    between atoms: C_2  and  N_3
REMARK    3  A    between atoms: C_2  and  P_32
REMARK    4  A    between atoms: N_3  and  CA_4
REMARK    5  A    between atoms: CA_4  and  CB_5
REMARK    6  A    between atoms: CA_4  and  C_12
REMARK    7  A    between atoms: CB_5  and  CG_6
REMARK    8  A    between atoms: N_14  and  C_15
REMARK    9  A    between atoms: C_15  and  C_16
REMARK   10  A    between atoms: C_15  and  C_29
REMARK   11  A    between atoms: C_16  and  C_17
REMARK   12  A    between atoms: C_20  and  C_21
REMARK   13  A    between atoms: C_29  and  O_31
REMARK   14  A    between atoms: P_32  and  O_34
REMARK   15  A    between atoms: P_32  and  O_35
REMARK                            x       y       z     vdW  Elec       q    Type
REMARK                         _______ _______ _______ _____ _____    ______ ____
ROOT
ATOM      1  C   PHE A   1       3.938   4.009  17.589  0.00  0.00    +0.000 C 
ATOM      2  O   PHE A   1       3.057   3.224  17.256  0.00  0.00    +0.000 OA
ATOM      3  N   UNK A   2       4.006   4.537  18.860  0.00  0.00    +0.000 N 
ATOM      4  H   UNK A   2       4.755   5.198  19.061  0.00  0.00    +0.000 HD
ENDROOT
BRANCH   1   5
ATOM      5  CA  PHE A   1       5.079   4.530  16.664  0.00  0.00    +0.000 C 
BRANCH   5   6
ATOM      6  N   PHE A   1       6.361   4.359  17.392  0.00  0.00    +0.000 NA
ATOM      7  H   PHE A   1       6.888   3.585  16.972  0.00  0.00    +0.000 HD
BRANCH   6   9
ATOM      8  C   UNK A   0       6.701   6.858  17.278  0.00  0.00    +0.000 C 
ATOM      9  C   UNK A   0       7.329   5.496  17.531  0.00  0.00    +0.000 C 
BRANCH   9  10
ATOM     10  P   UNK A   0       7.921   5.341  19.256  0.00  0.00    +0.000 P 
ATOM     11  O   UNK A   0       6.498   5.401  19.815  0.00  0.00    +0.000 OA
BRANCH  10  12
ATOM     12  O   UNK A   0       8.513   6.878  19.304  0.00  0.00    +0.000 OA
ATOM     13  H   UNK A   0       8.859   7.039  20.205  0.00  0.00    +0.000 HD
ENDBRANCH  10  12
BRANCH  10  14
ATOM     14  O   UNK A   0       8.480   5.195  20.887  0.00  0.00    +0.000 OA
ATOM     15  H   UNK A   0       7.805   5.699  21.390  0.00  0.00    +0.000 HD
ENDBRANCH  10  14
ENDBRANCH   9  10
ENDBRANCH   6   9
ENDBRANCH   5   6
BRANCH   5  16
ATOM     16  CB  PHE A   1       4.879   4.046  15.205  0.00  0.00    +0.000 C 
BRANCH  16  17
ATOM     17  CG  PHE A   1       5.912   4.099  14.091  0.00  0.00    +0.000 A 
ATOM     18  CD1 PHE A   1       5.686   3.304  12.942  0.00  0.00    +0.000 A 
ATOM     19  CE1 PHE A   1       6.459   3.443  11.784  0.00  0.00    +0.000 A 
ATOM     20  CZ  PHE A   1       7.489   4.372  11.752  0.00  0.00    +0.000 A 
ATOM     21  CE2 PHE A   1       7.760   5.133  12.889  0.00  0.00    +0.000 A 
ATOM     22  CD2 PHE A   1       6.978   5.000  14.051  0.00  0.00    +0.000 A 
ENDBRANCH  16  17
ENDBRANCH   5  16
ENDBRANCH   1   5
BRANCH   3  23
ATOM     23  C   UNK A   2       3.099   4.195  19.953  0.00  0.00    +0.000 C 
BRANCH  23  24
ATOM     24  C   UNK A   2       2.980   2.665  20.003  0.00  0.00    +0.000 C 
ATOM     25  O   UNK A   2       1.907   2.072  20.028  0.00  0.00    +0.000 OA
BRANCH  24  26
ATOM     26  O   UNK A   2       4.155   1.994  19.968  0.00  0.00    +0.000 OA
ATOM     27  H   UNK A   2       4.903   2.471  19.563  0.00  0.00    +0.000 HD
ENDBRANCH  24  26
ENDBRANCH  23  24
BRANCH  23  28
ATOM     28  C   UNK A   2       1.734   4.889  19.848  0.00  0.00    +0.000 C 
BRANCH  28  29
ATOM     29  C   UNK A   2       1.749   6.402  19.799  0.00  0.00    +0.000 A 
ATOM     30  C   UNK A   2       2.071   7.095  18.633  0.00  0.00    +0.000 A 
ATOM     31  C   UNK A   2       1.946   8.497  18.582  0.00  0.00    +0.000 A 
ATOM     32  C   UNK A   2       1.480   9.235  19.688  0.00  0.00    +0.000 A 
ATOM     33  C   UNK A   2       1.208   8.515  20.862  0.00  0.00    +0.000 A 
ATOM     34  C   UNK A   2       1.356   7.125  20.927  0.00  0.00    +0.000 A 
BRANCH  32  35
ATOM     35  C   UNK A   2       1.224  10.695  19.617  0.00  0.00    +0.000 A 
ATOM     36  C   UNK A   2       0.543  11.375  20.643  0.00  0.00    +0.000 A 
ATOM     37  C   UNK A   2       0.372  12.766  20.615  0.00  0.00    +0.000 A 
ATOM     38  C   UNK A   2       0.888  13.511  19.561  0.00  0.00    +0.000 A 
ATOM     39  C   UNK A   2       1.555  12.866  18.525  0.00  0.00    +0.000 A 
ATOM     40  C   UNK A   2       1.708  11.476  18.549  0.00  0.00    +0.000 A 
ENDBRANCH  32  35
ENDBRANCH  28  29
ENDBRANCH  23  28
ENDBRANCH   3  23
TORSDOF 14
ENDMDL
MODEL 6
REMARK VINA RESULT:      -8.1      3.260      7.761
REMARK  Name = 
REMARK  15 active torsions:
REMARK  status: ('A' for Active; 'I' for Inactive)
REMARK    1  A    between atoms: C_1  and  C_2
REMARK    2  A    between atoms: C_2  and  N_3
REMARK    3  A    between atoms: C_2  and  P_32
REMARK    4  A    between atoms: N_3  and  CA_4
REMARK    5  A    between atoms: CA_4  and  CB_5
REMARK    6  A    between atoms: CA_4  and  C_12
REMARK    7  A    between atoms: CB_5  and  CG_6
REMARK    8  A    between atoms: N_14  and  C_15
REMARK    9  A    between atoms: C_15  and  C_16
REMARK   10  A    between atoms: C_15  and  C_29
REMARK   11  A    between atoms: C_16  and  C_17
REMARK   12  A    between atoms: C_20  and  C_21
REMARK   13  A    between atoms: C_29  and  O_31
REMARK   14  A    between atoms: P_32  and  O_34
REMARK   15  A    between atoms: P_32  and  O_35
REMARK                            x       y       z     vdW  Elec       q    Type
REMARK                         _______ _______ _______ _____ _____    ______ ____
ROOT
ATOM      1  C   PHE A   1       3.749   6.374  17.599  0.00  0.00    +0.000 C 
ATOM      2  O   PHE A   1       4.223   7.504  17.621  0.00  0.00    +0.000 OA
ATOM      3  N   UNK A   2       4.367   5.333  16.940  0.00  0.00    +0.000 N 
ATOM      4  H   UNK A   2       3.906   4.424  16.949  0.00  0.00    +0.000 HD
ENDROOT
BRANCH   1   5
ATOM      5  CA  PHE A   1       2.413   5.942  18.278  0.00  0.00    +0.000 C 
BRANCH   5   6
ATOM      6  N   PHE A   1       2.241   4.486  18.045  0.00  0.00    +0.000 NA
ATOM      7  H   PHE A   1       3.084   4.114  17.593  0.00  0.00    +0.000 HD
BRANCH   6   9
ATOM      8  C   UNK A   0       0.877   2.509  18.822  0.00  0.00    +0.000 C 
ATOM      9  C   UNK A   0       1.925   3.554  19.175  0.00  0.00    +0.000 C 
BRANCH   9  10
ATOM     10  P   UNK A   0       3.541   2.782  19.554  0.00  0.00    +0.000 P 
ATOM     11  O   UNK A   0       3.179   1.506  18.790  0.00  0.00    +0.000 OA
BRANCH  10  12
ATOM     12  O   UNK A   0       3.162   2.512  21.134  0.00  0.00    +0.000 OA
ATOM     13  H   UNK A   0       3.564   1.659  21.398  0.00  0.00    +0.000 HD
ENDBRANCH  10  12
BRANCH  10  14
ATOM     14  O   UNK A   0       5.068   2.052  19.911  0.00  0.00    +0.000 OA
ATOM     15  H   UNK A   0       4.915   1.660  20.798  0.00  0.00    +0.000 HD
ENDBRANCH  10  14
ENDBRANCH   9  10
ENDBRANCH   6   9
ENDBRANCH   5   6
BRANCH   5  16
ATOM     16  CB  PHE A   1       2.270   6.583  19.682  0.00  0.00    +0.000 C 
BRANCH  16  17
ATOM     17  CG  PHE A   1       1.595   7.907  20.000  0.00  0.00    +0.000 A 
ATOM     18  CD1 PHE A   1       1.335   8.207  21.359  0.00  0.00    +0.000 A 
ATOM     19  CE1 PHE A   1       0.917   9.478  21.768  0.00  0.00    +0.000 A 
ATOM     20  CZ  PHE A   1       0.732  10.478  20.825  0.00  0.00    +0.000 A 
ATOM     21  CE2 PHE A   1       0.936  10.193  19.475  0.00  0.00    +0.000 A 
ATOM     22  CD2 PHE A   1       1.365   8.917  19.064  0.00  0.00    +0.000 A 
ENDBRANCH  16  17
ENDBRANCH   5  16
ENDBRANCH   1   5
BRANCH   3  23
ATOM     23  C   UNK A   2       5.652   5.430  16.254  0.00  0.00    +0.000 C 
BRANCH  23  24
ATOM     24  C   UNK A   2       5.672   4.370  15.143  0.00  0.00    +0.000 C 
ATOM     25  O   UNK A   2       6.173   3.259  15.278  0.00  0.00    +0.000 OA
BRANCH  24  26
ATOM     26  O   UNK A   2       5.048   4.725  13.996  0.00  0.00    +0.000 OA
ATOM     27  H   UNK A   2       5.547   5.324  13.410  0.00  0.00    +0.000 HD
ENDBRANCH  24  26
ENDBRANCH  23  24
BRANCH  23  28
ATOM     28  C   UNK A   2       6.855   5.313  17.201  0.00  0.00    +0.000 C 
BRANCH  28  29
ATOM     29  C   UNK A   2       7.404   6.610  17.756  0.00  0.00    +0.000 A 
ATOM     30  C   UNK A   2       8.115   6.652  18.955  0.00  0.00    +0.000 A 
ATOM     31  C   UNK A   2       8.726   7.849  19.376  0.00  0.00    +0.000 A 
ATOM     32  C   UNK A   2       8.657   9.024  18.602  0.00  0.00    +0.000 A 
ATOM     33  C   UNK A   2       7.894   8.963  17.424  0.00  0.00    +0.000 A 
ATOM     34  C   UNK A   2       7.263   7.784  17.014  0.00  0.00    +0.000 A 
BRANCH  32  35
ATOM     35  C   UNK A   2       9.394  10.259  18.966  0.00  0.00    +0.000 A 
ATOM     36  C   UNK A   2       9.543  10.662  20.306  0.00  0.00    +0.000 A 
ATOM     37  C   UNK A   2      10.307  11.784  20.655  0.00  0.00    +0.000 A 
ATOM     38  C   UNK A   2      10.948  12.525  19.670  0.00  0.00    +0.000 A 
ATOM     39  C   UNK A   2      10.809  12.160  18.335  0.00  0.00    +0.000 A 
ATOM     40  C   UNK A   2      10.032  11.050  17.990  0.00  0.00    +0.000 A 
ENDBRANCH  32  35
ENDBRANCH  28  29
ENDBRANCH  23  28
ENDBRANCH   3  23
TORSDOF 14
ENDMDL
MODEL 7
REMARK VINA RESULT:      -8.1      3.853      7.754
REMARK  Name = 
REMARK  15 active torsions:
REMARK  status: ('A' for Active; 'I' for Inactive)
REMARK    1  A    between atoms: C_1  and  C_2
REMARK    2  A    between atoms: C_2  and  N_3
REMARK    3  A    between atoms: C_2  and  P_32
REMARK    4  A    between atoms: N_3  and  CA_4
REMARK    5  A    between atoms: CA_4  and  CB_5
REMARK    6  A    between atoms: CA_4  and  C_12
REMARK    7  A    between atoms: CB_5  and  CG_6
REMARK    8  A    between atoms: N_14  and  C_15
REMARK    9  A    between atoms: C_15  and  C_16
REMARK   10  A    between atoms: C_15  and  C_29
REMARK   11  A    between atoms: C_16  and  C_17
REMARK   12  A    between atoms: C_20  and  C_21
REMARK   13  A    between atoms: C_29  and  O_31
REMARK   14  A    between atoms: P_32  and  O_34
REMARK   15  A    between atoms: P_32  and  O_35
REMARK                            x       y       z     vdW  Elec       q    Type
REMARK                         _______ _______ _______ _____ _____    ______ ____
ROOT
ATOM      1  C   PHE A   1       4.582   6.169  17.301  0.00  0.00    +0.000 C 
ATOM      2  O   PHE A   1       4.591   6.671  16.183  0.00  0.00    +0.000 OA
ATOM      3  N   UNK A   2       5.744   5.878  17.983  0.00  0.00    +0.000 N 
ATOM      4  H   UNK A   2       5.660   5.445  18.902  0.00  0.00    +0.000 HD
ENDROOT
BRANCH   1   5
ATOM      5  CA  PHE A   1       3.304   5.779  18.104  0.00  0.00    +0.000 C 
BRANCH   5   6
ATOM      6  N   PHE A   1       3.735   5.373  19.465  0.00  0.00    +0.000 NA
ATOM      7  H   PHE A   1       3.594   6.157  20.113  0.00  0.00    +0.000 HD
BRANCH   6   9
ATOM      8  C   UNK A   0       1.953   4.491  21.021  0.00  0.00    +0.000 C 
ATOM      9  C   UNK A   0       3.147   4.168  20.135  0.00  0.00    +0.000 C 
BRANCH   9  10
ATOM     10  P   UNK A   0       2.669   3.093  18.732  0.00  0.00    +0.000 P 
ATOM     11  O   UNK A   0       1.325   2.746  19.376  0.00  0.00    +0.000 OA
BRANCH  10  12
ATOM     12  O   UNK A   0       3.719   1.895  19.153  0.00  0.00    +0.000 OA
ATOM     13  H   UNK A   0       4.055   2.092  20.051  0.00  0.00    +0.000 HD
ENDBRANCH  10  12
BRANCH  10  14
ATOM     14  O   UNK A   0       2.217   2.077  17.407  0.00  0.00    +0.000 OA
ATOM     15  H   UNK A   0       1.660   2.672  16.861  0.00  0.00    +0.000 HD
ENDBRANCH  10  14
ENDBRANCH   9  10
ENDBRANCH   6   9
ENDBRANCH   5   6
BRANCH   5  16
ATOM     16  CB  PHE A   1       2.161   6.797  17.861  0.00  0.00    +0.000 C 
BRANCH  16  17
ATOM     17  CG  PHE A   1       1.882   8.047  18.681  0.00  0.00    +0.000 A 
ATOM     18  CD1 PHE A   1       1.714   9.269  17.987  0.00  0.00    +0.000 A 
ATOM     19  CE1 PHE A   1       1.248  10.424  18.626  0.00  0.00    +0.000 A 
ATOM     20  CZ  PHE A   1       0.953  10.388  19.981  0.00  0.00    +0.000 A 
ATOM     21  CE2 PHE A   1       1.157   9.208  20.696  0.00  0.00    +0.000 A 
ATOM     22  CD2 PHE A   1       1.618   8.044  20.052  0.00  0.00    +0.000 A 
ENDBRANCH  16  17
ENDBRANCH   5  16
ENDBRANCH   1   5
BRANCH   3  23
ATOM     23  C   UNK A   2       7.089   6.176  17.500  0.00  0.00    +0.000 C 
BRANCH  23  24
ATOM     24  C   UNK A   2       7.641   4.906  16.835  0.00  0.00    +0.000 C 
ATOM     25  O   UNK A   2       7.589   4.699  15.628  0.00  0.00    +0.000 OA
BRANCH  24  26
ATOM     26  O   UNK A   2       8.245   4.032  17.675  0.00  0.00    +0.000 OA
ATOM     27  H   UNK A   2       9.163   3.795  17.449  0.00  0.00    +0.000 HD
ENDBRANCH  24  26
ENDBRANCH  23  24
BRANCH  23  28
ATOM     28  C   UNK A   2       8.019   6.721  18.592  0.00  0.00    +0.000 C 
BRANCH  28  29
ATOM     29  C   UNK A   2       8.287   8.211  18.569  0.00  0.00    +0.000 A 
ATOM     30  C   UNK A   2       9.083   8.829  19.533  0.00  0.00    +0.000 A 
ATOM     31  C   UNK A   2       9.421  10.189  19.408  0.00  0.00    +0.000 A 
ATOM     32  C   UNK A   2       8.989  10.959  18.310  0.00  0.00    +0.000 A 
ATOM     33  C   UNK A   2       8.150  10.322  17.381  0.00  0.00    +0.000 A 
ATOM     34  C   UNK A   2       7.789   8.977  17.514  0.00  0.00    +0.000 A 
BRANCH  32  35
ATOM     35  C   UNK A   2       9.434  12.358  18.096  0.00  0.00    +0.000 A 
ATOM     36  C   UNK A   2      10.660  12.655  17.472  0.00  0.00    +0.000 A 
ATOM     37  C   UNK A   2      11.044  13.974  17.198  0.00  0.00    +0.000 A 
ATOM     38  C   UNK A   2      10.204  15.030  17.534  0.00  0.00    +0.000 A 
ATOM     39  C   UNK A   2       8.991  14.769  18.163  0.00  0.00    +0.000 A 
ATOM     40  C   UNK A   2       8.620  13.452  18.451  0.00  0.00    +0.000 A 
ENDBRANCH  32  35
ENDBRANCH  28  29
ENDBRANCH  23  28
ENDBRANCH   3  23
TORSDOF 14
ENDMDL
MODEL 8
REMARK VINA RESULT:      -8.1      2.319      5.137
REMARK  Name = 
REMARK  15 active torsions:
REMARK  status: ('A' for Active; 'I' for Inactive)
REMARK    1  A    between atoms: C_1  and  C_2
REMARK    2  A    between atoms: C_2  and  N_3
REMARK    3  A    between atoms: C_2  and  P_32
REMARK    4  A    between atoms: N_3  and  CA_4
REMARK    5  A    between atoms: CA_4  and  CB_5
REMARK    6  A    between atoms: CA_4  and  C_12
REMARK    7  A    between atoms: CB_5  and  CG_6
REMARK    8  A    between atoms: N_14  and  C_15
REMARK    9  A    between atoms: C_15  and  C_16
REMARK   10  A    between atoms: C_15  and  C_29
REMARK   11  A    between atoms: C_16  and  C_17
REMARK   12  A    between atoms: C_20  and  C_21
REMARK   13  A    between atoms: C_29  and  O_31
REMARK   14  A    between atoms: P_32  and  O_34
REMARK   15  A    between atoms: P_32  and  O_35
REMARK                            x       y       z     vdW  Elec       q    Type
REMARK                         _______ _______ _______ _____ _____    ______ ____
ROOT
ATOM      1  C   PHE A   1       3.953   5.637  17.668  0.00  0.00    +0.000 C 
ATOM      2  O   PHE A   1       4.997   6.158  18.047  0.00  0.00    +0.000 OA
ATOM      3  N   UNK A   2       2.723   6.214  17.896  0.00  0.00    +0.000 N 
ATOM      4  H   UNK A   2       1.896   5.716  17.568  0.00  0.00    +0.000 HD
ENDROOT
BRANCH   1   5
ATOM      5  CA  PHE A   1       3.846   4.283  16.903  0.00  0.00    +0.000 C 
BRANCH   5   6
ATOM      6  N   PHE A   1       5.210   3.700  16.830  0.00  0.00    +0.000 NA
ATOM      7  H   PHE A   1       5.147   2.680  16.933  0.00  0.00    +0.000 HD
BRANCH   6   9
ATOM      8  C   UNK A   0       5.327   4.084  14.338  0.00  0.00    +0.000 C 
ATOM      9  C   UNK A   0       6.093   3.947  15.645  0.00  0.00    +0.000 C 
BRANCH   9  10
ATOM     10  P   UNK A   0       6.962   5.499  16.079  0.00  0.00    +0.000 P 
ATOM     11  O   UNK A   0       7.826   5.440  14.818  0.00  0.00    +0.000 OA
BRANCH  10  12
ATOM     12  O   UNK A   0       7.836   4.798  17.287  0.00  0.00    +0.000 OA
ATOM     13  H   UNK A   0       7.423   3.936  17.496  0.00  0.00    +0.000 HD
ENDBRANCH  10  12
BRANCH  10  14
ATOM     14  O   UNK A   0       7.782   6.966  16.488  0.00  0.00    +0.000 OA
ATOM     15  H   UNK A   0       8.416   7.071  15.746  0.00  0.00    +0.000 HD
ENDBRANCH  10  14
ENDBRANCH   9  10
ENDBRANCH   6   9
ENDBRANCH   5   6
BRANCH   5  16
ATOM     16  CB  PHE A   1       2.617   3.469  17.381  0.00  0.00    +0.000 C 
BRANCH  16  17
ATOM     17  CG  PHE A   1       2.286   3.101  18.818  0.00  0.00    +0.000 A 
ATOM     18  CD1 PHE A   1       3.346   2.673  19.652  0.00  0.00    +0.000 A 
ATOM     19  CE1 PHE A   1       3.184   2.517  21.033  0.00  0.00    +0.000 A 
ATOM     20  CZ  PHE A   1       1.949   2.772  21.613  0.00  0.00    +0.000 A 
ATOM     21  CE2 PHE A   1       0.877   3.149  20.804  0.00  0.00    +0.000 A 
ATOM     22  CD2 PHE A   1       1.042   3.314  19.417  0.00  0.00    +0.000 A 
ENDBRANCH  16  17
ENDBRANCH   5  16
ENDBRANCH   1   5
BRANCH   3  23
ATOM     23  C   UNK A   2       2.517   7.505  18.547  0.00  0.00    +0.000 C 
BRANCH  23  24
ATOM     24  C   UNK A   2       2.207   7.241  20.027  0.00  0.00    +0.000 C 
ATOM     25  O   UNK A   2       1.458   7.944  20.697  0.00  0.00    +0.000 OA
BRANCH  24  26
ATOM     26  O   UNK A   2       2.785   6.133  20.548  0.00  0.00    +0.000 OA
ATOM     27  H   UNK A   2       3.622   5.856  20.130  0.00  0.00    +0.000 HD
ENDBRANCH  24  26
ENDBRANCH  23  24
BRANCH  23  28
ATOM     28  C   UNK A   2       1.442   8.363  17.865  0.00  0.00    +0.000 C 
BRANCH  28  29
ATOM     29  C   UNK A   2       1.426   9.834  18.222  0.00  0.00    +0.000 A 
ATOM     30  C   UNK A   2       2.497  10.674  17.921  0.00  0.00    +0.000 A 
ATOM     31  C   UNK A   2       2.397  12.061  18.145  0.00  0.00    +0.000 A 
ATOM     32  C   UNK A   2       1.220  12.641  18.658  0.00  0.00    +0.000 A 
ATOM     33  C   UNK A   2       0.176  11.765  18.995  0.00  0.00    +0.000 A 
ATOM     34  C   UNK A   2       0.280  10.384  18.799  0.00  0.00    +0.000 A 
BRANCH  32  35
ATOM     35  C   UNK A   2       1.050  14.110  18.786  0.00  0.00    +0.000 A 
ATOM     36  C   UNK A   2      -0.220  14.713  18.724  0.00  0.00    +0.000 A 
ATOM     37  C   UNK A   2      -0.390  16.089  18.925  0.00  0.00    +0.000 A 
ATOM     38  C   UNK A   2       0.709  16.895  19.203  0.00  0.00    +0.000 A 
ATOM     39  C   UNK A   2       1.978  16.329  19.259  0.00  0.00    +0.000 A 
ATOM     40  C   UNK A   2       2.145  14.959  19.040  0.00  0.00    +0.000 A 
ENDBRANCH  32  35
ENDBRANCH  28  29
ENDBRANCH  23  28
ENDBRANCH   3  23
TORSDOF 14
ENDMDL
MODEL 9
REMARK VINA RESULT:      -8.1      3.958      7.805
REMARK  Name = 
REMARK  15 active torsions:
REMARK  status: ('A' for Active; 'I' for Inactive)
REMARK    1  A    between atoms: C_1  and  C_2
REMARK    2  A    between atoms: C_2  and  N_3
REMARK    3  A    between atoms: C_2  and  P_32
REMARK    4  A    between atoms: N_3  and  CA_4
REMARK    5  A    between atoms: CA_4  and  CB_5
REMARK    6  A    between atoms: CA_4  and  C_12
REMARK    7  A    between atoms: CB_5  and  CG_6
REMARK    8  A    between atoms: N_14  and  C_15
REMARK    9  A    between atoms: C_15  and  C_16
REMARK   10  A    between atoms: C_15  and  C_29
REMARK   11  A    between atoms: C_16  and  C_17
REMARK   12  A    between atoms: C_20  and  C_21
REMARK   13  A    between atoms: C_29  and  O_31
REMARK   14  A    between atoms: P_32  and  O_34
REMARK   15  A    between atoms: P_32  and  O_35
REMARK                            x       y       z     vdW  Elec       q    Type
REMARK                         _______ _______ _______ _____ _____    ______ ____
ROOT
ATOM      1  C   PHE A   1       5.274   5.414  18.618  0.00  0.00    +0.000 C 
ATOM      2  O   PHE A   1       6.113   4.962  19.390  0.00  0.00    +0.000 OA
ATOM      3  N   UNK A   2       5.622   6.179  17.526  0.00  0.00    +0.000 N 
ATOM      4  H   UNK A   2       4.870   6.535  16.937  0.00  0.00    +0.000 HD
ENDROOT
BRANCH   1   5
ATOM      5  CA  PHE A   1       3.733   5.214  18.743  0.00  0.00    +0.000 C 
BRANCH   5   6
ATOM      6  N   PHE A   1       3.440   4.853  20.153  0.00  0.00    +0.000 NA
ATOM      7  H   PHE A   1       2.654   5.420  20.490  0.00  0.00    +0.000 HD
BRANCH   6   9
ATOM      8  C   UNK A   0       2.003   3.322  21.554  0.00  0.00    +0.000 C 
ATOM      9  C   UNK A   0       3.132   3.439  20.540  0.00  0.00    +0.000 C 
BRANCH   9  10
ATOM     10  P   UNK A   0       2.689   2.648  18.950  0.00  0.00    +0.000 P 
ATOM     11  O   UNK A   0       1.555   1.848  19.593  0.00  0.00    +0.000 OA
BRANCH  10  12
ATOM     12  O   UNK A   0       4.015   1.671  18.943  0.00  0.00    +0.000 OA
ATOM     13  H   UNK A   0       4.743   2.148  19.390  0.00  0.00    +0.000 HD
ENDBRANCH  10  12
BRANCH  10  14
ATOM     14  O   UNK A   0       2.270   1.901  17.447  0.00  0.00    +0.000 OA
ATOM     15  H   UNK A   0       1.290   1.951  17.449  0.00  0.00    +0.000 HD
ENDBRANCH  10  14
ENDBRANCH   9  10
ENDBRANCH   6   9
ENDBRANCH   5   6
BRANCH   5  16
ATOM     16  CB  PHE A   1       2.964   6.330  17.992  0.00  0.00    +0.000 C 
BRANCH  16  17
ATOM     17  CG  PHE A   1       2.157   7.450  18.628  0.00  0.00    +0.000 A 
ATOM     18  CD1 PHE A   1       1.879   7.360  20.013  0.00  0.00    +0.000 A 
ATOM     19  CE1 PHE A   1       1.333   8.431  20.729  0.00  0.00    +0.000 A 
ATOM     20  CZ  PHE A   1       1.037   9.617  20.072  0.00  0.00    +0.000 A 
ATOM     21  CE2 PHE A   1       1.259   9.713  18.698  0.00  0.00    +0.000 A 
ATOM     22  CD2 PHE A   1       1.815   8.639  17.980  0.00  0.00    +0.000 A 
ENDBRANCH  16  17
ENDBRANCH   5  16
ENDBRANCH   1   5
BRANCH   3  23
ATOM     23  C   UNK A   2       6.992   6.491  17.130  0.00  0.00    +0.000 C 
BRANCH  23  24
ATOM     24  C   UNK A   2       7.544   5.285  16.357  0.00  0.00    +0.000 C 
ATOM     25  O   UNK A   2       7.679   5.267  15.139  0.00  0.00    +0.000 OA
BRANCH  24  26
ATOM     26  O   UNK A   2       7.928   4.236  17.123  0.00  0.00    +0.000 OA
ATOM     27  H   UNK A   2       7.830   4.357  18.086  0.00  0.00    +0.000 HD
ENDBRANCH  24  26
ENDBRANCH  23  24
BRANCH  23  28
ATOM     28  C   UNK A   2       7.887   6.895  18.310  0.00  0.00    +0.000 C 
BRANCH  28  29
ATOM     29  C   UNK A   2       8.236   8.363  18.421  0.00  0.00    +0.000 A 
ATOM     30  C   UNK A   2       9.080   8.844  19.421  0.00  0.00    +0.000 A 
ATOM     31  C   UNK A   2       9.491  10.190  19.417  0.00  0.00    +0.000 A 
ATOM     32  C   UNK A   2       9.084  11.082  18.405  0.00  0.00    +0.000 A 
ATOM     33  C   UNK A   2       8.197  10.582  17.439  0.00  0.00    +0.000 A 
ATOM     34  C   UNK A   2       7.764   9.252  17.453  0.00  0.00    +0.000 A 
BRANCH  32  35
ATOM     35  C   UNK A   2       9.602  12.470  18.314  0.00  0.00    +0.000 A 
ATOM     36  C   UNK A   2       9.355  13.418  19.324  0.00  0.00    +0.000 A 
ATOM     37  C   UNK A   2       9.911  14.703  19.276  0.00  0.00    +0.000 A 
ATOM     38  C   UNK A   2      10.736  15.068  18.219  0.00  0.00    +0.000 A 
ATOM     39  C   UNK A   2      10.989  14.157  17.199  0.00  0.00    +0.000 A 
ATOM     40  C   UNK A   2      10.419  12.881  17.242  0.00  0.00    +0.000 A 
ENDBRANCH  32  35
ENDBRANCH  28  29
ENDBRANCH  23  28
ENDBRANCH   3  23
TORSDOF 14
ENDMDL
