MODEL 1
REMARK VINA RESULT:      -8.0      0.000      0.000
REMARK  Name = 
REMARK  5 active torsions:
REMARK  status: ('A' for Active; 'I' for Inactive)
REMARK    1  A    between atoms: C_1  and  C_2
REMARK    2  A    between atoms: C_2  and  C_3
REMARK    3  A    between atoms: C_2  and  C_4
REMARK    4  A    between atoms: C_4  and  C_5
REMARK    5  A    between atoms: C_15  and  C_16
REMARK                            x       y       z     vdW  Elec       q    Type
REMARK                         _______ _______ _______ _____ _____    ______ ____
ROOT
ATOM      1  C   UNL     1       2.789   3.463  17.520  0.00  0.00    +0.000 C 
ATOM      2  O   UNL     1       2.327   3.571  16.387  0.00  0.00    +0.000 OA
ATOM      3  N   UNL     1       3.409   4.518  18.144  0.00  0.00    +0.000 N 
ATOM      4  C   UNL     1       4.057   4.574  19.447  0.00  0.00    +0.000 C 
ATOM      5  C   UNL     1       5.340   5.362  19.122  0.00  0.00    +0.000 C 
ATOM      6  C   UNL     1       5.024   6.126  17.818  0.00  0.00    +0.000 C 
ATOM      7  C   UNL     1       3.536   5.845  17.564  0.00  0.00    +0.000 C 
ATOM      8  C   UNL     1       2.714   6.801  18.392  0.00  0.00    +0.000 A 
ATOM      9  C   UNL     1       2.142   7.951  17.896  0.00  0.00    +0.000 A 
ATOM     10  N   UNL     1       1.469   8.827  18.660  0.00  0.00    +0.000 NA
ATOM     11  C   UNL     1       1.372   8.539  19.975  0.00  0.00    +0.000 A 
ATOM     12  N   UNL     1       1.904   7.448  20.559  0.00  0.00    +0.000 NA
ATOM     13  C   UNL     1       2.569   6.597  19.761  0.00  0.00    +0.000 A 
ATOM     14  C   UNL     1       3.140   5.353  20.410  0.00  0.00    +0.000 C 
ENDROOT
BRANCH  11  15
ATOM     15  C   UNL     1       0.639   9.478  20.843  0.00  0.00    +0.000 A 
ATOM     16  C   UNL     1       0.262  10.756  20.388  0.00  0.00    +0.000 A 
ATOM     17  C   UNL     1      -0.425  11.645  21.218  0.00  0.00    +0.000 A 
ATOM     18  C   UNL     1      -0.741  11.267  22.515  0.00  0.00    +0.000 A 
ATOM     19  F   UNL     1      -1.398  12.122  23.311  0.00  0.00    +0.000 F 
ATOM     20  C   UNL     1      -0.389  10.017  23.000  0.00  0.00    +0.000 A 
ATOM     21  C   UNL     1       0.295   9.128  22.168  0.00  0.00    +0.000 A 
ENDBRANCH  11  15
BRANCH   1  22
ATOM     22  C   UNL     1       2.747   2.164  18.318  0.00  0.00    +0.000 C 
BRANCH  22  24
ATOM     23  C   UNL     1       1.929   2.129  20.690  0.00  0.00    +0.000 C 
ATOM     24  C   UNL     1       1.518   1.963  19.219  0.00  0.00    +0.000 C 
ATOM     25  C   UNL     1       0.391   2.952  18.919  0.00  0.00    +0.000 C 
ENDBRANCH  22  24
ENDBRANCH   1  22
TORSDOF 3
ENDMDL
MODEL 2
REMARK VINA RESULT:      -7.8      0.469      1.070
REMARK  Name = 
REMARK  5 active torsions:
REMARK  status: ('A' for Active; 'I' for Inactive)
REMARK    1  A    between atoms: C_1  and  C_2
REMARK    2  A    between atoms: C_2  and  C_3
REMARK    3  A    between atoms: C_2  and  C_4
REMARK    4  A    between atoms: C_4  and  C_5
REMARK    5  A    between atoms: C_15  and  C_16
REMARK                            x       y       z     vdW  Elec       q    Type
REMARK                         _______ _______ _______ _____ _____    ______ ____
ROOT
ATOM      1  C   UNL     1       2.784   3.344  17.770  0.00  0.00    +0.000 C 
ATOM      2  O   UNL     1       2.343   3.329  16.623  0.00  0.00    +0.000 OA
ATOM      3  N   UNL     1       3.406   4.456  18.282  0.00  0.00    +0.000 N 
ATOM      4  C   UNL     1       4.033   4.652  19.583  0.00  0.00    +0.000 C 
ATOM      5  C   UNL     1       5.330   5.386  19.195  0.00  0.00    +0.000 C 
ATOM      6  C   UNL     1       5.045   6.002  17.808  0.00  0.00    +0.000 C 
ATOM      7  C   UNL     1       3.558   5.709  17.560  0.00  0.00    +0.000 C 
ATOM      8  C   UNL     1       2.734   6.759  18.261  0.00  0.00    +0.000 A 
ATOM      9  C   UNL     1       2.183   7.852  17.628  0.00  0.00    +0.000 A 
ATOM     10  N   UNL     1       1.507   8.815  18.277  0.00  0.00    +0.000 NA
ATOM     11  C   UNL     1       1.385   8.677  19.615  0.00  0.00    +0.000 A 
ATOM     12  N   UNL     1       1.895   7.653  20.326  0.00  0.00    +0.000 NA
ATOM     13  C   UNL     1       2.563   6.712  19.641  0.00  0.00    +0.000 A 
ATOM     14  C   UNL     1       3.108   5.543  20.435  0.00  0.00    +0.000 C 
ENDROOT
BRANCH  11  15
ATOM     15  C   UNL     1       0.648   9.714  20.359  0.00  0.00    +0.000 A 
ATOM     16  C   UNL     1       0.403   9.592  21.740  0.00  0.00    +0.000 A 
ATOM     17  C   UNL     1      -0.302  10.575  22.438  0.00  0.00    +0.000 A 
ATOM     18  C   UNL     1      -0.774  11.690  21.762  0.00  0.00    +0.000 A 
ATOM     19  F   UNL     1      -1.453  12.631  22.433  0.00  0.00    +0.000 F 
ATOM     20  C   UNL     1      -0.552  11.849  20.403  0.00  0.00    +0.000 A 
ATOM     21  C   UNL     1       0.157  10.867  19.707  0.00  0.00    +0.000 A 
ENDBRANCH  11  15
BRANCH   1  22
ATOM     22  C   UNL     1       2.714   2.143  18.708  0.00  0.00    +0.000 C 
BRANCH  22  24
ATOM     23  C   UNL     1       1.897   2.225  21.079  0.00  0.00    +0.000 C 
ATOM     24  C   UNL     1       1.474   2.063  19.611  0.00  0.00    +0.000 C 
ATOM     25  C   UNL     1       0.431   3.134  19.289  0.00  0.00    +0.000 C 
ENDBRANCH  22  24
ENDBRANCH   1  22
TORSDOF 3
ENDMDL
MODEL 3
REMARK VINA RESULT:      -7.2      5.397      7.382
REMARK  Name = 
REMARK  5 active torsions:
REMARK  status: ('A' for Active; 'I' for Inactive)
REMARK    1  A    between atoms: C_1  and  C_2
REMARK    2  A    between atoms: C_2  and  C_3
REMARK    3  A    between atoms: C_2  and  C_4
REMARK    4  A    between atoms: C_4  and  C_5
REMARK    5  A    between atoms: C_15  and  C_16
REMARK                            x       y       z     vdW  Elec       q    Type
REMARK                         _______ _______ _______ _____ _____    ______ ____
ROOT
ATOM      1  C   UNL     1       6.057   4.065  15.355  0.00  0.00    +0.000 C 
ATOM      2  O   UNL     1       6.922   3.214  15.547  0.00  0.00    +0.000 OA
ATOM      3  N   UNL     1       5.655   4.916  16.355  0.00  0.00    +0.000 N 
ATOM      4  C   UNL     1       4.622   5.943  16.340  0.00  0.00    +0.000 C 
ATOM      5  C   UNL     1       3.922   5.699  17.690  0.00  0.00    +0.000 C 
ATOM      6  C   UNL     1       4.957   4.940  18.549  0.00  0.00    +0.000 C 
ATOM      7  C   UNL     1       6.230   4.931  17.690  0.00  0.00    +0.000 C 
ATOM      8  C   UNL     1       6.950   6.243  17.878  0.00  0.00    +0.000 A 
ATOM      9  C   UNL     1       8.030   6.413  18.715  0.00  0.00    +0.000 A 
ATOM     10  N   UNL     1       8.620   7.602  18.923  0.00  0.00    +0.000 NA
ATOM     11  C   UNL     1       8.100   8.662  18.268  0.00  0.00    +0.000 A 
ATOM     12  N   UNL     1       7.042   8.602  17.438  0.00  0.00    +0.000 NA
ATOM     13  C   UNL     1       6.481   7.396  17.256  0.00  0.00    +0.000 A 
ATOM     14  C   UNL     1       5.311   7.321  16.297  0.00  0.00    +0.000 C 
ENDROOT
BRANCH  11  15
ATOM     15  C   UNL     1       8.723   9.982  18.472  0.00  0.00    +0.000 A 
ATOM     16  C   UNL     1       9.622  10.214  19.531  0.00  0.00    +0.000 A 
ATOM     17  C   UNL     1      10.203  11.469  19.725  0.00  0.00    +0.000 A 
ATOM     18  C   UNL     1       9.890  12.509  18.862  0.00  0.00    +0.000 A 
ATOM     19  F   UNL     1      10.446  13.714  19.050  0.00  0.00    +0.000 F 
ATOM     20  C   UNL     1       9.012  12.322  17.806  0.00  0.00    +0.000 A 
ATOM     21  C   UNL     1       8.434  11.065  17.612  0.00  0.00    +0.000 A 
ENDBRANCH  11  15
BRANCH   1  22
ATOM     22  C   UNL     1       5.335   4.235  14.022  0.00  0.00    +0.000 C 
BRANCH  22  24
ATOM     23  C   UNL     1       4.816   3.209  11.791  0.00  0.00    +0.000 C 
ATOM     24  C   UNL     1       5.918   3.453  12.834  0.00  0.00    +0.000 C 
ATOM     25  C   UNL     1       7.076   4.182  12.151  0.00  0.00    +0.000 C 
ENDBRANCH  22  24
ENDBRANCH   1  22
TORSDOF 3
ENDMDL
MODEL 4
REMARK VINA RESULT:      -7.2      1.847      3.862
REMARK  Name = 
REMARK  5 active torsions:
REMARK  status: ('A' for Active; 'I' for Inactive)
REMARK    1  A    between atoms: C_1  and  C_2
REMARK    2  A    between atoms: C_2  and  C_3
REMARK    3  A    between atoms: C_2  and  C_4
REMARK    4  A    between atoms: C_4  and  C_5
REMARK    5  A    between atoms: C_15  and  C_16
REMARK                            x       y       z     vdW  Elec       q    Type
REMARK                         _______ _______ _______ _____ _____    ______ ____
ROOT
ATOM      1  C   UNL     1       5.418   4.534  18.992  0.00  0.00    +0.000 C 
ATOM      2  O   UNL     1       5.762   4.249  20.137  0.00  0.00    +0.000 OA
ATOM      3  N   UNL     1       4.105   4.788  18.681  0.00  0.00    +0.000 N 
ATOM      4  C   UNL     1       3.498   5.088  17.391  0.00  0.00    +0.000 C 
ATOM      5  C   UNL     1       2.235   4.208  17.430  0.00  0.00    +0.000 C 
ATOM      6  C   UNL     1       1.982   3.932  18.928  0.00  0.00    +0.000 C 
ATOM      7  C   UNL     1       3.025   4.793  19.655  0.00  0.00    +0.000 C 
ATOM      8  C   UNL     1       2.498   6.202  19.765  0.00  0.00    +0.000 A 
ATOM      9  C   UNL     1       1.911   6.716  20.900  0.00  0.00    +0.000 A 
ATOM     10  N   UNL     1       1.386   7.951  20.963  0.00  0.00    +0.000 NA
ATOM     11  C   UNL     1       1.449   8.696  19.839  0.00  0.00    +0.000 A 
ATOM     12  N   UNL     1       1.991   8.283  18.678  0.00  0.00    +0.000 NA
ATOM     13  C   UNL     1       2.506   7.043  18.656  0.00  0.00    +0.000 A 
ATOM     14  C   UNL     1       3.146   6.588  17.361  0.00  0.00    +0.000 C 
ENDROOT
BRANCH  11  15
ATOM     15  C   UNL     1       0.884  10.057  19.872  0.00  0.00    +0.000 A 
ATOM     16  C   UNL     1       0.132  10.513  20.972  0.00  0.00    +0.000 A 
ATOM     17  C   UNL     1      -0.409  11.800  20.995  0.00  0.00    +0.000 A 
ATOM     18  C   UNL     1      -0.206  12.647  19.916  0.00  0.00    +0.000 A 
ATOM     19  F   UNL     1      -0.727  13.882  19.937  0.00  0.00    +0.000 F 
ATOM     20  C   UNL     1       0.530  12.238  18.815  0.00  0.00    +0.000 A 
ATOM     21  C   UNL     1       1.073  10.951  18.795  0.00  0.00    +0.000 A 
ENDBRANCH  11  15
BRANCH   1  22
ATOM     22  C   UNL     1       6.393   4.602  17.821  0.00  0.00    +0.000 C 
BRANCH  22  24
ATOM     23  C   UNL     1       6.753   7.050  17.402  0.00  0.00    +0.000 C 
ATOM     24  C   UNL     1       7.420   5.745  17.862  0.00  0.00    +0.000 C 
ATOM     25  C   UNL     1       8.008   5.968  19.255  0.00  0.00    +0.000 C 
ENDBRANCH  22  24
ENDBRANCH   1  22
TORSDOF 3
ENDMDL
MODEL 5
REMARK VINA RESULT:      -7.2      5.348      6.951
REMARK  Name = 
REMARK  5 active torsions:
REMARK  status: ('A' for Active; 'I' for Inactive)
REMARK    1  A    between atoms: C_1  and  C_2
REMARK    2  A    between atoms: C_2  and  C_3
REMARK    3  A    between atoms: C_2  and  C_4
REMARK    4  A    between atoms: C_4  and  C_5
REMARK    5  A    between atoms: C_15  and  C_16
REMARK                            x       y       z     vdW  Elec       q    Type
REMARK                         _______ _______ _______ _____ _____    ______ ____
ROOT
ATOM      1  C   UNL     1       4.521   4.893  18.625  0.00  0.00    +0.000 C 
ATOM      2  O   UNL     1       3.469   5.459  18.341  0.00  0.00    +0.000 OA
ATOM      3  N   UNL     1       5.692   5.185  17.969  0.00  0.00    +0.000 N 
ATOM      4  C   UNL     1       7.014   4.594  18.123  0.00  0.00    +0.000 C 
ATOM      5  C   UNL     1       7.451   4.424  16.656  0.00  0.00    +0.000 C 
ATOM      6  C   UNL     1       6.581   5.420  15.859  0.00  0.00    +0.000 C 
ATOM      7  C   UNL     1       5.813   6.200  16.935  0.00  0.00    +0.000 C 
ATOM      8  C   UNL     1       6.698   7.302  17.460  0.00  0.00    +0.000 A 
ATOM      9  C   UNL     1       6.611   8.616  17.054  0.00  0.00    +0.000 A 
ATOM     10  N   UNL     1       7.450   9.575  17.479  0.00  0.00    +0.000 NA
ATOM     11  C   UNL     1       8.418   9.198  18.343  0.00  0.00    +0.000 A 
ATOM     12  N   UNL     1       8.593   7.940  18.790  0.00  0.00    +0.000 NA
ATOM     13  C   UNL     1       7.734   7.011  18.342  0.00  0.00    +0.000 A 
ATOM     14  C   UNL     1       7.909   5.602  18.870  0.00  0.00    +0.000 C 
ENDROOT
BRANCH  11  15
ATOM     15  C   UNL     1       9.356  10.224  18.831  0.00  0.00    +0.000 A 
ATOM     16  C   UNL     1       9.405  10.586  20.192  0.00  0.00    +0.000 A 
ATOM     17  C   UNL     1      10.290  11.565  20.648  0.00  0.00    +0.000 A 
ATOM     18  C   UNL     1      11.135  12.197  19.748  0.00  0.00    +0.000 A 
ATOM     19  F   UNL     1      11.982  13.139  20.186  0.00  0.00    +0.000 F 
ATOM     20  C   UNL     1      11.119  11.869  18.401  0.00  0.00    +0.000 A 
ATOM     21  C   UNL     1      10.235  10.887  17.947  0.00  0.00    +0.000 A 
ENDBRANCH  11  15
BRANCH   1  22
ATOM     22  C   UNL     1       4.623   3.808  19.692  0.00  0.00    +0.000 C 
BRANCH  22  24
ATOM     23  C   UNL     1       2.443   2.625  20.074  0.00  0.00    +0.000 C 
ATOM     24  C   UNL     1       3.830   2.519  19.423  0.00  0.00    +0.000 C 
ATOM     25  C   UNL     1       3.644   2.233  17.933  0.00  0.00    +0.000 C 
ENDBRANCH  22  24
ENDBRANCH   1  22
TORSDOF 3
ENDMDL
MODEL 6
REMARK VINA RESULT:      -7.2      1.607      3.486
REMARK  Name = 
REMARK  5 active torsions:
REMARK  status: ('A' for Active; 'I' for Inactive)
REMARK    1  A    between atoms: C_1  and  C_2
REMARK    2  A    between atoms: C_2  and  C_3
REMARK    3  A    between atoms: C_2  and  C_4
REMARK    4  A    between atoms: C_4  and  C_5
REMARK    5  A    between atoms: C_15  and  C_16
REMARK                            x       y       z     vdW  Elec       q    Type
REMARK                         _______ _______ _______ _____ _____    ______ ____
ROOT
ATOM      1  C   UNL     1       5.212   4.100  18.990  0.00  0.00    +0.000 C 
ATOM      2  O   UNL     1       5.375   3.408  19.991  0.00  0.00    +0.000 OA
ATOM      3  N   UNL     1       3.965   4.536  18.615  0.00  0.00    +0.000 N 
ATOM      4  C   UNL     1       3.564   5.311  17.449  0.00  0.00    +0.000 C 
ATOM      5  C   UNL     1       2.296   4.562  16.998  0.00  0.00    +0.000 C 
ATOM      6  C   UNL     1       1.816   3.794  18.249  0.00  0.00    +0.000 C 
ATOM      7  C   UNL     1       2.751   4.271  19.370  0.00  0.00    +0.000 C 
ATOM      8  C   UNL     1       2.234   5.583  19.906  0.00  0.00    +0.000 A 
ATOM      9  C   UNL     1       1.490   5.702  21.059  0.00  0.00    +0.000 A 
ATOM     10  N   UNL     1       0.980   6.868  21.488  0.00  0.00    +0.000 NA
ATOM     11  C   UNL     1       1.223   7.956  20.726  0.00  0.00    +0.000 A 
ATOM     12  N   UNL     1       1.928   7.942  19.579  0.00  0.00    +0.000 NA
ATOM     13  C   UNL     1       2.421   6.758  19.184  0.00  0.00    +0.000 A 
ATOM     14  C   UNL     1       3.242   6.746  17.911  0.00  0.00    +0.000 C 
ENDROOT
BRANCH  11  15
ATOM     15  C   UNL     1       0.679   9.253  21.167  0.00  0.00    +0.000 A 
ATOM     16  C   UNL     1       0.893  10.430  20.424  0.00  0.00    +0.000 A 
ATOM     17  C   UNL     1       0.382  11.657  20.851  0.00  0.00    +0.000 A 
ATOM     18  C   UNL     1      -0.346  11.723  22.030  0.00  0.00    +0.000 A 
ATOM     19  F   UNL     1      -0.834  12.902  22.441  0.00  0.00    +0.000 F 
ATOM     20  C   UNL     1      -0.580  10.588  22.790  0.00  0.00    +0.000 A 
ATOM     21  C   UNL     1      -0.071   9.360  22.359  0.00  0.00    +0.000 A 
ENDBRANCH  11  15
BRANCH   1  22
ATOM     22  C   UNL     1       6.353   4.511  18.064  0.00  0.00    +0.000 C 
BRANCH  22  24
ATOM     23  C   UNL     1       8.115   5.852  19.245  0.00  0.00    +0.000 C 
ATOM     24  C   UNL     1       6.923   5.922  18.278  0.00  0.00    +0.000 C 
ATOM     25  C   UNL     1       7.392   6.580  16.980  0.00  0.00    +0.000 C 
ENDBRANCH  22  24
ENDBRANCH   1  22
TORSDOF 3
ENDMDL
MODEL 7
REMARK VINA RESULT:      -7.2      2.361      4.077
REMARK  Name = 
REMARK  5 active torsions:
REMARK  status: ('A' for Active; 'I' for Inactive)
REMARK    1  A    between atoms: C_1  and  C_2
REMARK    2  A    between atoms: C_2  and  C_3
REMARK    3  A    between atoms: C_2  and  C_4
REMARK    4  A    between atoms: C_4  and  C_5
REMARK    5  A    between atoms: C_15  and  C_16
REMARK                            x       y       z     vdW  Elec       q    Type
REMARK                         _______ _______ _______ _____ _____    ______ ____
ROOT
ATOM      1  C   UNL     1       5.388   4.767  19.099  0.00  0.00    +0.000 C 
ATOM      2  O   UNL     1       5.700   4.663  20.283  0.00  0.00    +0.000 OA
ATOM      3  N   UNL     1       4.088   4.994  18.719  0.00  0.00    +0.000 N 
ATOM      4  C   UNL     1       3.517   5.095  17.383  0.00  0.00    +0.000 C 
ATOM      5  C   UNL     1       2.232   4.259  17.530  0.00  0.00    +0.000 C 
ATOM      6  C   UNL     1       1.940   4.232  19.046  0.00  0.00    +0.000 C 
ATOM      7  C   UNL     1       2.988   5.177  19.651  0.00  0.00    +0.000 C 
ATOM      8  C   UNL     1       2.493   6.596  19.521  0.00  0.00    +0.000 A 
ATOM      9  C   UNL     1       1.894   7.298  20.544  0.00  0.00    +0.000 A 
ATOM     10  N   UNL     1       1.398   8.537  20.396  0.00  0.00    +0.000 NA
ATOM     11  C   UNL     1       1.503   9.091  19.168  0.00  0.00    +0.000 A 
ATOM     12  N   UNL     1       2.060   8.485  18.102  0.00  0.00    +0.000 NA
ATOM     13  C   UNL     1       2.544   7.248  18.293  0.00  0.00    +0.000 A 
ATOM     14  C   UNL     1       3.201   6.578  17.104  0.00  0.00    +0.000 C 
ENDROOT
BRANCH  11  15
ATOM     15  C   UNL     1       0.970  10.450  18.969  0.00  0.00    +0.000 A 
ATOM     16  C   UNL     1       1.816  11.533  18.662  0.00  0.00    +0.000 A 
ATOM     17  C   UNL     1       1.307  12.821  18.482  0.00  0.00    +0.000 A 
ATOM     18  C   UNL     1      -0.057  13.042  18.610  0.00  0.00    +0.000 A 
ATOM     19  F   UNL     1      -0.544  14.279  18.440  0.00  0.00    +0.000 F 
ATOM     20  C   UNL     1      -0.924  12.003  18.909  0.00  0.00    +0.000 A 
ATOM     21  C   UNL     1      -0.413  10.715  19.086  0.00  0.00    +0.000 A 
ENDBRANCH  11  15
BRANCH   1  22
ATOM     22  C   UNL     1       6.389   4.626  17.957  0.00  0.00    +0.000 C 
BRANCH  22  24
ATOM     23  C   UNL     1       6.765   7.006  17.254  0.00  0.00    +0.000 C 
ATOM     24  C   UNL     1       7.432   5.748  17.830  0.00  0.00    +0.000 C 
ATOM     25  C   UNL     1       8.079   6.115  19.167  0.00  0.00    +0.000 C 
ENDBRANCH  22  24
ENDBRANCH   1  22
TORSDOF 3
ENDMDL
MODEL 8
REMARK VINA RESULT:      -7.1      3.910      7.540
REMARK  Name = 
REMARK  5 active torsions:
REMARK  status: ('A' for Active; 'I' for Inactive)
REMARK    1  A    between atoms: C_1  and  C_2
REMARK    2  A    between atoms: C_2  and  C_3
REMARK    3  A    between atoms: C_2  and  C_4
REMARK    4  A    between atoms: C_4  and  C_5
REMARK    5  A    between atoms: C_15  and  C_16
REMARK                            x       y       z     vdW  Elec       q    Type
REMARK                         _______ _______ _______ _____ _____    ______ ____
ROOT
ATOM      1  C   UNL     1      -1.652  11.678  18.920  0.00  0.00    +0.000 C 
ATOM      2  O   UNL     1      -2.570  11.553  19.727  0.00  0.00    +0.000 OA
ATOM      3  N   UNL     1      -0.346  11.459  19.282  0.00  0.00    +0.000 N 
ATOM      4  C   UNL     1       0.872  11.602  18.495  0.00  0.00    +0.000 C 
ATOM      5  C   UNL     1       1.805  12.315  19.493  0.00  0.00    +0.000 C 
ATOM      6  C   UNL     1       1.211  12.011  20.886  0.00  0.00    +0.000 C 
ATOM      7  C   UNL     1       0.070  11.024  20.606  0.00  0.00    +0.000 C 
ATOM      8  C   UNL     1       0.648   9.636  20.485  0.00  0.00    +0.000 A 
ATOM      9  C   UNL     1       0.631   8.705  21.500  0.00  0.00    +0.000 A 
ATOM     10  N   UNL     1       1.208   7.496  21.401  0.00  0.00    +0.000 NA
ATOM     11  C   UNL     1       1.833   7.215  20.237  0.00  0.00    +0.000 A 
ATOM     12  N   UNL     1       1.915   8.058  19.191  0.00  0.00    +0.000 NA
ATOM     13  C   UNL     1       1.324   9.256  19.330  0.00  0.00    +0.000 A 
ATOM     14  C   UNL     1       1.387  10.194  18.142  0.00  0.00    +0.000 C 
ENDROOT
BRANCH  11  15
ATOM     15  C   UNL     1       2.477   5.897  20.093  0.00  0.00    +0.000 A 
ATOM     16  C   UNL     1       3.655   5.734  19.337  0.00  0.00    +0.000 A 
ATOM     17  C   UNL     1       4.257   4.482  19.197  0.00  0.00    +0.000 A 
ATOM     18  C   UNL     1       3.686   3.376  19.809  0.00  0.00    +0.000 A 
ATOM     19  F   UNL     1       4.263   2.173  19.671  0.00  0.00    +0.000 F 
ATOM     20  C   UNL     1       2.528   3.493  20.562  0.00  0.00    +0.000 A 
ATOM     21  C   UNL     1       1.929   4.747  20.704  0.00  0.00    +0.000 A 
ENDBRANCH  11  15
BRANCH   1  22
ATOM     22  C   UNL     1      -1.866  12.109  17.473  0.00  0.00    +0.000 C 
BRANCH  22  24
ATOM     23  C   UNL     1      -2.147   9.670  16.950  0.00  0.00    +0.000 C 
ATOM     24  C   UNL     1      -2.577  11.093  16.564  0.00  0.00    +0.000 C 
ATOM     25  C   UNL     1      -4.101  11.177  16.653  0.00  0.00    +0.000 C 
ENDBRANCH  22  24
ENDBRANCH   1  22
TORSDOF 3
ENDMDL
MODEL 9
REMARK VINA RESULT:      -7.0      1.162      1.601
REMARK  Name = 
REMARK  5 active torsions:
REMARK  status: ('A' for Active; 'I' for Inactive)
REMARK    1  A    between atoms: C_1  and  C_2
REMARK    2  A    between atoms: C_2  and  C_3
REMARK    3  A    between atoms: C_2  and  C_4
REMARK    4  A    between atoms: C_4  and  C_5
REMARK    5  A    between atoms: C_15  and  C_16
REMARK                            x       y       z     vdW  Elec       q    Type
REMARK                         _______ _______ _______ _____ _____    ______ ____
ROOT
ATOM      1  C   UNL     1       1.530   4.148  18.125  0.00  0.00    +0.000 C 
ATOM      2  O   UNL     1       1.038   4.207  17.001  0.00  0.00    +0.000 OA
ATOM      3  N   UNL     1       2.331   5.153  18.610  0.00  0.00    +0.000 N 
ATOM      4  C   UNL     1       3.039   5.243  19.879  0.00  0.00    +0.000 C 
ATOM      5  C   UNL     1       4.411   5.784  19.431  0.00  0.00    +0.000 C 
ATOM      6  C   UNL     1       4.153   6.448  18.060  0.00  0.00    +0.000 C 
ATOM      7  C   UNL     1       2.630   6.376  17.883  0.00  0.00    +0.000 C 
ATOM      8  C   UNL     1       2.001   7.529  18.625  0.00  0.00    +0.000 A 
ATOM      9  C   UNL     1       1.587   8.696  18.021  0.00  0.00    +0.000 A 
ATOM     10  N   UNL     1       1.090   9.741  18.703  0.00  0.00    +0.000 NA
ATOM     11  C   UNL     1       1.011   9.610  20.045  0.00  0.00    +0.000 A 
ATOM     12  N   UNL     1       1.399   8.517  20.729  0.00  0.00    +0.000 NA
ATOM     13  C   UNL     1       1.890   7.495  20.011  0.00  0.00    +0.000 A 
ATOM     14  C   UNL     1       2.296   6.252  20.776  0.00  0.00    +0.000 C 
ENDROOT
BRANCH  11  15
ATOM     15  C   UNL     1       0.470  10.737  20.825  0.00  0.00    +0.000 A 
ATOM     16  C   UNL     1       0.808  12.070  20.521  0.00  0.00    +0.000 A 
ATOM     17  C   UNL     1       0.298  13.134  21.268  0.00  0.00    +0.000 A 
ATOM     18  C   UNL     1      -0.554  12.877  22.332  0.00  0.00    +0.000 A 
ATOM     19  F   UNL     1      -1.040  13.899  23.051  0.00  0.00    +0.000 F 
ATOM     20  C   UNL     1      -0.913  11.580  22.663  0.00  0.00    +0.000 A 
ATOM     21  C   UNL     1      -0.405  10.517  21.912  0.00  0.00    +0.000 A 
ENDBRANCH  11  15
BRANCH   1  22
ATOM     22  C   UNL     1       1.330   2.961  19.062  0.00  0.00    +0.000 C 
BRANCH  22  24
ATOM     23  C   UNL     1       3.245   1.982  17.770  0.00  0.00    +0.000 C 
ATOM     24  C   UNL     1       2.463   1.923  19.091  0.00  0.00    +0.000 C 
ATOM     25  C   UNL     1       3.444   2.142  20.243  0.00  0.00    +0.000 C 
ENDBRANCH  22  24
ENDBRANCH   1  22
TORSDOF 3
ENDMDL
