MODEL 1
REMARK VINA RESULT:      -9.6      0.000      0.000
REMARK  Name = 
REMARK  5 active torsions:
REMARK  status: ('A' for Active; 'I' for Inactive)
REMARK    1  A    between atoms: C_1  and  C_2
REMARK    2  A    between atoms: C_9  and  C_10
REMARK    3  A    between atoms: C_11  and  C_12
REMARK    4  A    between atoms: C_12  and  N_13
REMARK    5  A    between atoms: C_26  and  C_27
REMARK                            x       y       z     vdW  Elec       q    Type
REMARK                         _______ _______ _______ _____ _____    ______ ____
ROOT
ATOM      1  C   UNL     1       5.597   5.940  14.343  0.00  0.00    +0.000 C 
ATOM      2  C   UNL     1       6.317   5.482  15.551  0.00  0.00    +0.000 A 
ATOM      3  N   UNL     1       7.465   4.835  15.511  0.00  0.00    +0.000 NA
ATOM      4  N   UNL     1       7.771   4.426  16.771  0.00  0.00    +0.000 NA
ATOM      5  C   UNL     1       6.806   4.824  17.569  0.00  0.00    +0.000 A 
ATOM      6  N   UNL     1       5.851   5.531  16.859  0.00  0.00    +0.000 N 
ATOM      7  C   UNL     1       4.729   6.136  17.445  0.00  0.00    +0.000 A 
ATOM      8  S   UNL     1       3.998   7.487  16.722  0.00  0.00    +0.000 S 
ATOM      9  C   UNL     1       2.877   7.660  17.995  0.00  0.00    +0.000 A 
ATOM     10  C   UNL     1       3.080   6.701  18.963  0.00  0.00    +0.000 A 
ATOM     11  C   UNL     1       4.117   5.751  18.628  0.00  0.00    +0.000 A 
ATOM     12  C   UNL     1       4.386   4.498  19.360  0.00  0.00    +0.000 C 
ATOM     13  N   UNL     1       5.559   3.990  19.486  0.00  0.00    +0.000 NA
ATOM     14  C   UNL     1       6.758   4.688  19.042  0.00  0.00    +0.000 C 
ENDROOT
BRANCH  12  15
ATOM     15  C   UNL     1       3.205   3.770  19.932  0.00  0.00    +0.000 A 
ATOM     16  C   UNL     1       2.899   3.950  21.297  0.00  0.00    +0.000 A 
ATOM     17  C   UNL     1       1.900   3.198  21.914  0.00  0.00    +0.000 A 
ATOM     18  C   UNL     1       1.149   2.301  21.164  0.00  0.00    +0.000 A 
ATOM     19  C   UNL     1       1.389   2.168  19.796  0.00  0.00    +0.000 A 
ATOM     20  C   UNL     1       2.416   2.891  19.175  0.00  0.00    +0.000 A 
ATOM     21 CL   UNL     1       2.661   2.572  17.493  0.00  0.00    +0.000 Cl
ENDBRANCH  12  15
BRANCH   9  22
ATOM     22  C   UNL     1       1.842   8.646  18.039  0.00  0.00    +0.000 C 
ATOM     23  C   UNL     1       0.961   9.468  18.025  0.00  0.00    +0.000 C 
BRANCH  23  24
ATOM     24  C   UNL     1      -0.157  10.428  17.965  0.00  0.00    +0.000 C 
BRANCH  24  25
ATOM     25  N   UNL     1      -0.276  11.216  19.192  0.00  0.00    +0.000 N 
ATOM     26  C   UNL     1      -0.304  12.600  19.036  0.00  0.00    +0.000 C 
ATOM     27  O   UNL     1      -0.345  13.147  17.934  0.00  0.00    +0.000 OA
ATOM     28  O   UNL     1      -0.259  13.381  20.144  0.00  0.00    +0.000 OA
ATOM     29  C   UNL     1      -0.438  12.877  21.466  0.00  0.00    +0.000 C 
ATOM     30  C   UNL     1      -0.416  11.394  21.597  0.00  0.00    +0.000 A 
ATOM     31  C   UNL     1      -0.507  10.819  22.878  0.00  0.00    +0.000 A 
ATOM     32  C   UNL     1      -0.534   9.438  23.032  0.00  0.00    +0.000 A 
ATOM     33  C   UNL     1      -0.462   8.627  21.907  0.00  0.00    +0.000 A 
ATOM     34  C   UNL     1      -0.354   9.196  20.633  0.00  0.00    +0.000 A 
ATOM     35  C   UNL     1      -0.337  10.589  20.463  0.00  0.00    +0.000 A 
ENDBRANCH  24  25
ENDBRANCH  23  24
ENDBRANCH   9  22
TORSDOF 4
ENDMDL
MODEL 2
REMARK VINA RESULT:      -9.1      3.960      9.322
REMARK  Name = 
REMARK  5 active torsions:
REMARK  status: ('A' for Active; 'I' for Inactive)
REMARK    1  A    between atoms: C_1  and  C_2
REMARK    2  A    between atoms: C_9  and  C_10
REMARK    3  A    between atoms: C_11  and  C_12
REMARK    4  A    between atoms: C_12  and  N_13
REMARK    5  A    between atoms: C_26  and  C_27
REMARK                            x       y       z     vdW  Elec       q    Type
REMARK                         _______ _______ _______ _____ _____    ______ ____
ROOT
ATOM      1  C   UNL     1      -0.407   9.293  23.428  0.00  0.00    +0.000 C 
ATOM      2  C   UNL     1      -0.743  10.627  22.886  0.00  0.00    +0.000 A 
ATOM      3  N   UNL     1      -1.308  11.581  23.600  0.00  0.00    +0.000 NA
ATOM      4  N   UNL     1      -1.622  12.610  22.769  0.00  0.00    +0.000 NA
ATOM      5  C   UNL     1      -1.248  12.276  21.555  0.00  0.00    +0.000 A 
ATOM      6  N   UNL     1      -0.652  11.027  21.558  0.00  0.00    +0.000 N 
ATOM      7  C   UNL     1      -0.096  10.422  20.421  0.00  0.00    +0.000 A 
ATOM      8  S   UNL     1       1.156   9.286  20.570  0.00  0.00    +0.000 S 
ATOM      9  C   UNL     1       1.322   9.129  18.881  0.00  0.00    +0.000 A 
ATOM     10  C   UNL     1       0.437   9.953  18.220  0.00  0.00    +0.000 A 
ATOM     11  C   UNL     1      -0.455  10.671  19.105  0.00  0.00    +0.000 A 
ATOM     12  C   UNL     1      -1.642  11.434  18.673  0.00  0.00    +0.000 C 
ATOM     13  N   UNL     1      -2.057  12.493  19.270  0.00  0.00    +0.000 NA
ATOM     14  C   UNL     1      -1.303  13.125  20.344  0.00  0.00    +0.000 C 
ENDROOT
BRANCH  12  15
ATOM     15  C   UNL     1      -2.418  10.895  17.507  0.00  0.00    +0.000 A 
ATOM     16  C   UNL     1      -1.758  10.047  16.593  0.00  0.00    +0.000 A 
ATOM     17  C   UNL     1      -2.387   9.627  15.422  0.00  0.00    +0.000 A 
ATOM     18  C   UNL     1      -3.704   9.996  15.175  0.00  0.00    +0.000 A 
ATOM     19  C   UNL     1      -4.395  10.771  16.106  0.00  0.00    +0.000 A 
ATOM     20  C   UNL     1      -3.759  11.230  17.269  0.00  0.00    +0.000 A 
ATOM     21 CL   UNL     1      -4.702  12.251  18.299  0.00  0.00    +0.000 Cl
ENDBRANCH  12  15
BRANCH   9  22
ATOM     22  C   UNL     1       2.233   8.238  18.231  0.00  0.00    +0.000 C 
ATOM     23  C   UNL     1       3.004   7.459  17.730  0.00  0.00    +0.000 C 
BRANCH  23  24
ATOM     24  C   UNL     1       3.910   6.451  17.149  0.00  0.00    +0.000 C 
BRANCH  24  25
ATOM     25  N   UNL     1       4.124   5.316  18.047  0.00  0.00    +0.000 N 
ATOM     26  C   UNL     1       5.391   5.209  18.615  0.00  0.00    +0.000 C 
ATOM     27  O   UNL     1       6.261   6.069  18.475  0.00  0.00    +0.000 OA
ATOM     28  O   UNL     1       5.692   4.097  19.331  0.00  0.00    +0.000 OA
ATOM     29  C   UNL     1       4.714   3.148  19.752  0.00  0.00    +0.000 C 
ATOM     30  C   UNL     1       3.366   3.297  19.137  0.00  0.00    +0.000 A 
ATOM     31  C   UNL     1       2.368   2.354  19.439  0.00  0.00    +0.000 A 
ATOM     32  C   UNL     1       1.087   2.489  18.917  0.00  0.00    +0.000 A 
ATOM     33  C   UNL     1       0.802   3.563  18.085  0.00  0.00    +0.000 A 
ATOM     34  C   UNL     1       1.798   4.494  17.769  0.00  0.00    +0.000 A 
ATOM     35  C   UNL     1       3.092   4.375  18.298  0.00  0.00    +0.000 A 
ENDBRANCH  24  25
ENDBRANCH  23  24
ENDBRANCH   9  22
TORSDOF 4
ENDMDL
MODEL 3
REMARK VINA RESULT:      -9.0      1.259      2.317
REMARK  Name = 
REMARK  5 active torsions:
REMARK  status: ('A' for Active; 'I' for Inactive)
REMARK    1  A    between atoms: C_1  and  C_2
REMARK    2  A    between atoms: C_9  and  C_10
REMARK    3  A    between atoms: C_11  and  C_12
REMARK    4  A    between atoms: C_12  and  N_13
REMARK    5  A    between atoms: C_26  and  C_27
REMARK                            x       y       z     vdW  Elec       q    Type
REMARK                         _______ _______ _______ _____ _____    ______ ____
ROOT
ATOM      1  C   UNL     1       5.745   5.818  14.376  0.00  0.00    +0.000 C 
ATOM      2  C   UNL     1       6.420   5.363  15.611  0.00  0.00    +0.000 A 
ATOM      3  N   UNL     1       7.552   4.687  15.614  0.00  0.00    +0.000 NA
ATOM      4  N   UNL     1       7.812   4.292  16.889  0.00  0.00    +0.000 NA
ATOM      5  C   UNL     1       6.837   4.729  17.652  0.00  0.00    +0.000 A 
ATOM      6  N   UNL     1       5.920   5.447  16.905  0.00  0.00    +0.000 N 
ATOM      7  C   UNL     1       4.798   6.090  17.449  0.00  0.00    +0.000 A 
ATOM      8  S   UNL     1       4.123   7.446  16.684  0.00  0.00    +0.000 S 
ATOM      9  C   UNL     1       2.972   7.670  17.922  0.00  0.00    +0.000 A 
ATOM     10  C   UNL     1       3.124   6.724  18.912  0.00  0.00    +0.000 A 
ATOM     11  C   UNL     1       4.145   5.742  18.622  0.00  0.00    +0.000 A 
ATOM     12  C   UNL     1       4.362   4.496  19.382  0.00  0.00    +0.000 C 
ATOM     13  N   UNL     1       5.518   3.961  19.549  0.00  0.00    +0.000 NA
ATOM     14  C   UNL     1       6.746   4.620  19.126  0.00  0.00    +0.000 C 
ENDROOT
BRANCH  12  15
ATOM     15  C   UNL     1       3.147   3.808  19.933  0.00  0.00    +0.000 A 
ATOM     16  C   UNL     1       2.907   3.874  21.322  0.00  0.00    +0.000 A 
ATOM     17  C   UNL     1       1.874   3.145  21.907  0.00  0.00    +0.000 A 
ATOM     18  C   UNL     1       1.026   2.386  21.108  0.00  0.00    +0.000 A 
ATOM     19  C   UNL     1       1.203   2.371  19.725  0.00  0.00    +0.000 A 
ATOM     20  C   UNL     1       2.263   3.071  19.131  0.00  0.00    +0.000 A 
ATOM     21 CL   UNL     1       2.419   2.903  17.417  0.00  0.00    +0.000 Cl
ENDBRANCH  12  15
BRANCH   9  22
ATOM     22  C   UNL     1       1.962   8.683  17.922  0.00  0.00    +0.000 C 
ATOM     23  C   UNL     1       1.086   9.509  17.962  0.00  0.00    +0.000 C 
BRANCH  23  24
ATOM     24  C   UNL     1       0.017  10.518  18.085  0.00  0.00    +0.000 C 
BRANCH  24  25
ATOM     25  N   UNL     1       0.072  11.230  19.362  0.00  0.00    +0.000 N 
ATOM     26  C   UNL     1      -0.478  10.571  20.459  0.00  0.00    +0.000 C 
ATOM     27  O   UNL     1      -0.887   9.411  20.405  0.00  0.00    +0.000 OA
ATOM     28  O   UNL     1      -0.592  11.243  21.631  0.00  0.00    +0.000 OA
ATOM     29  C   UNL     1       0.043  12.495  21.882  0.00  0.00    +0.000 C 
ATOM     30  C   UNL     1       0.631  13.168  20.691  0.00  0.00    +0.000 A 
ATOM     31  C   UNL     1       1.207  14.443  20.841  0.00  0.00    +0.000 A 
ATOM     32  C   UNL     1       1.805  15.079  19.759  0.00  0.00    +0.000 A 
ATOM     33  C   UNL     1       1.821  14.447  18.523  0.00  0.00    +0.000 A 
ATOM     34  C   UNL     1       1.235  13.185  18.368  0.00  0.00    +0.000 A 
ATOM     35  C   UNL     1       0.638  12.527  19.455  0.00  0.00    +0.000 A 
ENDBRANCH  24  25
ENDBRANCH  23  24
ENDBRANCH   9  22
TORSDOF 4
ENDMDL
MODEL 4
REMARK VINA RESULT:      -8.9      2.329      4.850
REMARK  Name = 
REMARK  5 active torsions:
REMARK  status: ('A' for Active; 'I' for Inactive)
REMARK    1  A    between atoms: C_1  and  C_2
REMARK    2  A    between atoms: C_9  and  C_10
REMARK    3  A    between atoms: C_11  and  C_12
REMARK    4  A    between atoms: C_12  and  N_13
REMARK    5  A    between atoms: C_26  and  C_27
REMARK                            x       y       z     vdW  Elec       q    Type
REMARK                         _______ _______ _______ _____ _____    ______ ____
ROOT
ATOM      1  C   UNL     1       1.613   2.612  21.773  0.00  0.00    +0.000 C 
ATOM      2  C   UNL     1       1.939   2.365  20.352  0.00  0.00    +0.000 A 
ATOM      3  N   UNL     1       1.978   1.162  19.814  0.00  0.00    +0.000 NA
ATOM      4  N   UNL     1       2.459   1.275  18.546  0.00  0.00    +0.000 NA
ATOM      5  C   UNL     1       2.711   2.544  18.323  0.00  0.00    +0.000 A 
ATOM      6  N   UNL     1       2.377   3.307  19.429  0.00  0.00    +0.000 N 
ATOM      7  C   UNL     1       2.477   4.706  19.474  0.00  0.00    +0.000 A 
ATOM      8  S   UNL     1       1.480   5.610  20.508  0.00  0.00    +0.000 S 
ATOM      9  C   UNL     1       2.097   7.093  19.934  0.00  0.00    +0.000 A 
ATOM     10  C   UNL     1       3.041   6.886  18.952  0.00  0.00    +0.000 A 
ATOM     11  C   UNL     1       3.331   5.489  18.714  0.00  0.00    +0.000 A 
ATOM     12  C   UNL     1       4.452   4.985  17.897  0.00  0.00    +0.000 C 
ATOM     13  N   UNL     1       4.393   3.904  17.206  0.00  0.00    +0.000 NA
ATOM     14  C   UNL     1       3.156   3.150  17.048  0.00  0.00    +0.000 C 
ENDROOT
BRANCH  12  15
ATOM     15  C   UNL     1       5.733   5.765  17.933  0.00  0.00    +0.000 A 
ATOM     16  C   UNL     1       6.634   5.533  18.994  0.00  0.00    +0.000 A 
ATOM     17  C   UNL     1       7.772   6.321  19.154  0.00  0.00    +0.000 A 
ATOM     18  C   UNL     1       8.063   7.312  18.223  0.00  0.00    +0.000 A 
ATOM     19  C   UNL     1       7.222   7.503  17.127  0.00  0.00    +0.000 A 
ATOM     20  C   UNL     1       6.055   6.741  16.978  0.00  0.00    +0.000 A 
ATOM     21 CL   UNL     1       5.059   7.134  15.619  0.00  0.00    +0.000 Cl
ENDBRANCH  12  15
BRANCH   9  22
ATOM     22  C   UNL     1       1.713   8.379  20.427  0.00  0.00    +0.000 C 
ATOM     23  C   UNL     1       1.344   9.442  20.859  0.00  0.00    +0.000 C 
BRANCH  23  24
ATOM     24  C   UNL     1       0.866  10.708  21.448  0.00  0.00    +0.000 C 
BRANCH  24  25
ATOM     25  N   UNL     1       0.572  11.715  20.429  0.00  0.00    +0.000 N 
ATOM     26  C   UNL     1       1.285  12.908  20.517  0.00  0.00    +0.000 C 
ATOM     27  O   UNL     1       2.197  13.083  21.325  0.00  0.00    +0.000 OA
ATOM     28  O   UNL     1       0.945  13.932  19.695  0.00  0.00    +0.000 OA
ATOM     29  C   UNL     1       0.074  13.783  18.576  0.00  0.00    +0.000 C 
ATOM     30  C   UNL     1      -0.665  12.492  18.504  0.00  0.00    +0.000 A 
ATOM     31  C   UNL     1      -1.603  12.297  17.474  0.00  0.00    +0.000 A 
ATOM     32  C   UNL     1      -2.277  11.087  17.351  0.00  0.00    +0.000 A 
ATOM     33  C   UNL     1      -2.021  10.071  18.263  0.00  0.00    +0.000 A 
ATOM     34  C   UNL     1      -1.099  10.268  19.298  0.00  0.00    +0.000 A 
ATOM     35  C   UNL     1      -0.405  11.481  19.426  0.00  0.00    +0.000 A 
ENDBRANCH  24  25
ENDBRANCH  23  24
ENDBRANCH   9  22
TORSDOF 4
ENDMDL
MODEL 5
REMARK VINA RESULT:      -8.8      1.292      1.511
REMARK  Name = 
REMARK  5 active torsions:
REMARK  status: ('A' for Active; 'I' for Inactive)
REMARK    1  A    between atoms: C_1  and  C_2
REMARK    2  A    between atoms: C_9  and  C_10
REMARK    3  A    between atoms: C_11  and  C_12
REMARK    4  A    between atoms: C_12  and  N_13
REMARK    5  A    between atoms: C_26  and  C_27
REMARK                            x       y       z     vdW  Elec       q    Type
REMARK                         _______ _______ _______ _____ _____    ______ ____
ROOT
ATOM      1  C   UNL     1       5.575   6.052  14.362  0.00  0.00    +0.000 C 
ATOM      2  C   UNL     1       6.287   5.508  15.539  0.00  0.00    +0.000 A 
ATOM      3  N   UNL     1       7.403   4.811  15.455  0.00  0.00    +0.000 NA
ATOM      4  N   UNL     1       7.703   4.332  16.692  0.00  0.00    +0.000 NA
ATOM      5  C   UNL     1       6.767   4.739  17.519  0.00  0.00    +0.000 A 
ATOM      6  N   UNL     1       5.839   5.520  16.854  0.00  0.00    +0.000 N 
ATOM      7  C   UNL     1       4.752   6.149  17.481  0.00  0.00    +0.000 A 
ATOM      8  S   UNL     1       4.078   7.563  16.829  0.00  0.00    +0.000 S 
ATOM      9  C   UNL     1       2.981   7.731  18.123  0.00  0.00    +0.000 A 
ATOM     10  C   UNL     1       3.149   6.722  19.045  0.00  0.00    +0.000 A 
ATOM     11  C   UNL     1       4.138   5.740  18.655  0.00  0.00    +0.000 A 
ATOM     12  C   UNL     1       4.356   4.445  19.327  0.00  0.00    +0.000 C 
ATOM     13  N   UNL     1       5.506   3.879  19.415  0.00  0.00    +0.000 NA
ATOM     14  C   UNL     1       6.731   4.539  18.985  0.00  0.00    +0.000 C 
ENDROOT
BRANCH  12  15
ATOM     15  C   UNL     1       3.149   3.748  19.882  0.00  0.00    +0.000 A 
ATOM     16  C   UNL     1       2.874   3.871  21.260  0.00  0.00    +0.000 A 
ATOM     17  C   UNL     1       1.848   3.139  21.856  0.00  0.00    +0.000 A 
ATOM     18  C   UNL     1       1.042   2.319  21.075  0.00  0.00    +0.000 A 
ATOM     19  C   UNL     1       1.252   2.245  19.698  0.00  0.00    +0.000 A 
ATOM     20  C   UNL     1       2.305   2.949  19.096  0.00  0.00    +0.000 A 
ATOM     21 CL   UNL     1       2.507   2.706  17.395  0.00  0.00    +0.000 Cl
ENDBRANCH  12  15
BRANCH   9  22
ATOM     22  C   UNL     1       1.993   8.761  18.225  0.00  0.00    +0.000 C 
ATOM     23  C   UNL     1       1.199   9.664  18.297  0.00  0.00    +0.000 C 
BRANCH  23  24
ATOM     24  C   UNL     1       0.255  10.798  18.321  0.00  0.00    +0.000 C 
BRANCH  24  25
ATOM     25  N   UNL     1       0.701  11.869  19.212  0.00  0.00    +0.000 N 
ATOM     26  C   UNL     1       1.897  12.497  18.871  0.00  0.00    +0.000 C 
ATOM     27  O   UNL     1       2.501  12.260  17.825  0.00  0.00    +0.000 OA
ATOM     28  O   UNL     1       2.434  13.389  19.740  0.00  0.00    +0.000 OA
ATOM     29  C   UNL     1       1.728  13.913  20.863  0.00  0.00    +0.000 C 
ATOM     30  C   UNL     1       0.447  13.228  21.194  0.00  0.00    +0.000 A 
ATOM     31  C   UNL     1      -0.270  13.633  22.334  0.00  0.00    +0.000 A 
ATOM     32  C   UNL     1      -1.491  13.045  22.646  0.00  0.00    +0.000 A 
ATOM     33  C   UNL     1      -1.994  12.045  21.824  0.00  0.00    +0.000 A 
ATOM     34  C   UNL     1      -1.273  11.629  20.698  0.00  0.00    +0.000 A 
ATOM     35  C   UNL     1      -0.045  12.222  20.366  0.00  0.00    +0.000 A 
ENDBRANCH  24  25
ENDBRANCH  23  24
ENDBRANCH   9  22
TORSDOF 4
ENDMDL
MODEL 6
REMARK VINA RESULT:      -8.8      4.044      9.671
REMARK  Name = 
REMARK  5 active torsions:
REMARK  status: ('A' for Active; 'I' for Inactive)
REMARK    1  A    between atoms: C_1  and  C_2
REMARK    2  A    between atoms: C_9  and  C_10
REMARK    3  A    between atoms: C_11  and  C_12
REMARK    4  A    between atoms: C_12  and  N_13
REMARK    5  A    between atoms: C_26  and  C_27
REMARK                            x       y       z     vdW  Elec       q    Type
REMARK                         _______ _______ _______ _____ _____    ______ ____
ROOT
ATOM      1  C   UNL     1      -3.180  10.593  15.241  0.00  0.00    +0.000 C 
ATOM      2  C   UNL     1      -3.689  11.100  16.534  0.00  0.00    +0.000 A 
ATOM      3  N   UNL     1      -4.905  11.581  16.697  0.00  0.00    +0.000 NA
ATOM      4  N   UNL     1      -4.996  12.101  17.951  0.00  0.00    +0.000 NA
ATOM      5  C   UNL     1      -3.834  11.934  18.540  0.00  0.00    +0.000 A 
ATOM      6  N   UNL     1      -2.954  11.274  17.700  0.00  0.00    +0.000 N 
ATOM      7  C   UNL     1      -1.653  10.899  18.067  0.00  0.00    +0.000 A 
ATOM      8  S   UNL     1      -0.892   9.576  17.325  0.00  0.00    +0.000 S 
ATOM      9  C   UNL     1       0.486   9.710  18.319  0.00  0.00    +0.000 A 
ATOM     10  C   UNL     1       0.348  10.747  19.215  0.00  0.00    +0.000 A 
ATOM     11  C   UNL     1      -0.871  11.505  19.040  0.00  0.00    +0.000 A 
ATOM     12  C   UNL     1      -1.169  12.793  19.695  0.00  0.00    +0.000 C 
ATOM     13  N   UNL     1      -2.353  13.155  20.038  0.00  0.00    +0.000 NA
ATOM     14  C   UNL     1      -3.497  12.257  19.945  0.00  0.00    +0.000 C 
ENDROOT
BRANCH  12  15
ATOM     15  C   UNL     1      -0.021  13.734  19.913  0.00  0.00    +0.000 A 
ATOM     16  C   UNL     1       0.660  14.238  18.785  0.00  0.00    +0.000 A 
ATOM     17  C   UNL     1       1.815  15.006  18.928  0.00  0.00    +0.000 A 
ATOM     18  C   UNL     1       2.272  15.334  20.199  0.00  0.00    +0.000 A 
ATOM     19  C   UNL     1       1.567  14.908  21.323  0.00  0.00    +0.000 A 
ATOM     20  C   UNL     1       0.426  14.104  21.190  0.00  0.00    +0.000 A 
ATOM     21 CL   UNL     1      -0.308  13.575  22.664  0.00  0.00    +0.000 Cl
ENDBRANCH  12  15
BRANCH   9  22
ATOM     22  C   UNL     1       1.647   8.881  18.217  0.00  0.00    +0.000 C 
ATOM     23  C   UNL     1       2.656   8.226  18.142  0.00  0.00    +0.000 C 
BRANCH  23  24
ATOM     24  C   UNL     1       3.916   7.460  18.108  0.00  0.00    +0.000 C 
BRANCH  24  25
ATOM     25  N   UNL     1       3.689   6.029  17.905  0.00  0.00    +0.000 N 
ATOM     26  C   UNL     1       4.344   5.449  16.821  0.00  0.00    +0.000 C 
ATOM     27  O   UNL     1       5.162   6.057  16.131  0.00  0.00    +0.000 OA
ATOM     28  O   UNL     1       4.051   4.165  16.495  0.00  0.00    +0.000 OA
ATOM     29  C   UNL     1       3.304   3.293  17.340  0.00  0.00    +0.000 C 
ATOM     30  C   UNL     1       2.626   3.942  18.496  0.00  0.00    +0.000 A 
ATOM     31  C   UNL     1       1.805   3.164  19.333  0.00  0.00    +0.000 A 
ATOM     32  C   UNL     1       1.194   3.729  20.446  0.00  0.00    +0.000 A 
ATOM     33  C   UNL     1       1.394   5.075  20.722  0.00  0.00    +0.000 A 
ATOM     34  C   UNL     1       2.197   5.855  19.882  0.00  0.00    +0.000 A 
ATOM     35  C   UNL     1       2.829   5.294  18.761  0.00  0.00    +0.000 A 
ENDBRANCH  24  25
ENDBRANCH  23  24
ENDBRANCH   9  22
TORSDOF 4
ENDMDL
MODEL 7
REMARK VINA RESULT:      -8.8      2.432      4.728
REMARK  Name = 
REMARK  5 active torsions:
REMARK  status: ('A' for Active; 'I' for Inactive)
REMARK    1  A    between atoms: C_1  and  C_2
REMARK    2  A    between atoms: C_9  and  C_10
REMARK    3  A    between atoms: C_11  and  C_12
REMARK    4  A    between atoms: C_12  and  N_13
REMARK    5  A    between atoms: C_26  and  C_27
REMARK                            x       y       z     vdW  Elec       q    Type
REMARK                         _______ _______ _______ _____ _____    ______ ____
ROOT
ATOM      1  C   UNL     1       1.415   2.796  21.813  0.00  0.00    +0.000 C 
ATOM      2  C   UNL     1       1.723   2.517  20.393  0.00  0.00    +0.000 A 
ATOM      3  N   UNL     1       1.723   1.306  19.874  0.00  0.00    +0.000 NA
ATOM      4  N   UNL     1       2.197   1.384  18.602  0.00  0.00    +0.000 NA
ATOM      5  C   UNL     1       2.484   2.642  18.356  0.00  0.00    +0.000 A 
ATOM      6  N   UNL     1       2.181   3.431  19.452  0.00  0.00    +0.000 N 
ATOM      7  C   UNL     1       2.322   4.827  19.474  0.00  0.00    +0.000 A 
ATOM      8  S   UNL     1       1.360   5.777  20.500  0.00  0.00    +0.000 S 
ATOM      9  C   UNL     1       2.015   7.231  19.898  0.00  0.00    +0.000 A 
ATOM     10  C   UNL     1       2.944   6.982  18.913  0.00  0.00    +0.000 A 
ATOM     11  C   UNL     1       3.193   5.574  18.695  0.00  0.00    +0.000 A 
ATOM     12  C   UNL     1       4.292   5.024  17.878  0.00  0.00    +0.000 C 
ATOM     13  N   UNL     1       4.197   3.934  17.205  0.00  0.00    +0.000 NA
ATOM     14  C   UNL     1       2.937   3.214  17.069  0.00  0.00    +0.000 C 
ENDROOT
BRANCH  12  15
ATOM     15  C   UNL     1       5.596   5.767  17.893  0.00  0.00    +0.000 A 
ATOM     16  C   UNL     1       6.516   5.493  18.926  0.00  0.00    +0.000 A 
ATOM     17  C   UNL     1       7.681   6.245  19.068  0.00  0.00    +0.000 A 
ATOM     18  C   UNL     1       7.975   7.242  18.145  0.00  0.00    +0.000 A 
ATOM     19  C   UNL     1       7.113   7.475  17.075  0.00  0.00    +0.000 A 
ATOM     20  C   UNL     1       5.921   6.749  16.944  0.00  0.00    +0.000 A 
ATOM     21 CL   UNL     1       4.901   7.192  15.619  0.00  0.00    +0.000 Cl
ENDBRANCH  12  15
BRANCH   9  22
ATOM     22  C   UNL     1       1.672   8.536  20.373  0.00  0.00    +0.000 C 
ATOM     23  C   UNL     1       1.413   9.657  20.732  0.00  0.00    +0.000 C 
BRANCH  23  24
ATOM     24  C   UNL     1       1.086  11.047  21.101  0.00  0.00    +0.000 C 
BRANCH  24  25
ATOM     25  N   UNL     1      -0.158  11.505  20.484  0.00  0.00    +0.000 N 
ATOM     26  C   UNL     1      -0.168  11.574  19.093  0.00  0.00    +0.000 C 
ATOM     27  O   UNL     1       0.763  11.170  18.398  0.00  0.00    +0.000 OA
ATOM     28  O   UNL     1      -1.239  12.136  18.477  0.00  0.00    +0.000 OA
ATOM     29  C   UNL     1      -2.463  12.430  19.147  0.00  0.00    +0.000 C 
ATOM     30  C   UNL     1      -2.423  12.335  20.632  0.00  0.00    +0.000 A 
ATOM     31  C   UNL     1      -3.567  12.686  21.371  0.00  0.00    +0.000 A 
ATOM     32  C   UNL     1      -3.578  12.565  22.756  0.00  0.00    +0.000 A 
ATOM     33  C   UNL     1      -2.442  12.103  23.407  0.00  0.00    +0.000 A 
ATOM     34  C   UNL     1      -1.297  11.768  22.675  0.00  0.00    +0.000 A 
ATOM     35  C   UNL     1      -1.277  11.875  21.276  0.00  0.00    +0.000 A 
ENDBRANCH  24  25
ENDBRANCH  23  24
ENDBRANCH   9  22
TORSDOF 4
ENDMDL
MODEL 8
REMARK VINA RESULT:      -8.6      2.574      5.094
REMARK  Name = 
REMARK  5 active torsions:
REMARK  status: ('A' for Active; 'I' for Inactive)
REMARK    1  A    between atoms: C_1  and  C_2
REMARK    2  A    between atoms: C_9  and  C_10
REMARK    3  A    between atoms: C_11  and  C_12
REMARK    4  A    between atoms: C_12  and  N_13
REMARK    5  A    between atoms: C_26  and  C_27
REMARK                            x       y       z     vdW  Elec       q    Type
REMARK                         _______ _______ _______ _____ _____    ______ ____
ROOT
ATOM      1  C   UNL     1       1.428   2.770  21.766  0.00  0.00    +0.000 C 
ATOM      2  C   UNL     1       1.777   2.476  20.359  0.00  0.00    +0.000 A 
ATOM      3  N   UNL     1       1.808   1.258  19.858  0.00  0.00    +0.000 NA
ATOM      4  N   UNL     1       2.315   1.325  18.598  0.00  0.00    +0.000 NA
ATOM      5  C   UNL     1       2.591   2.584  18.342  0.00  0.00    +0.000 A 
ATOM      6  N   UNL     1       2.248   3.384  19.418  0.00  0.00    +0.000 N 
ATOM      7  C   UNL     1       2.368   4.782  19.424  0.00  0.00    +0.000 A 
ATOM      8  S   UNL     1       1.366   5.731  20.411  0.00  0.00    +0.000 S 
ATOM      9  C   UNL     1       2.016   7.187  19.806  0.00  0.00    +0.000 A 
ATOM     10  C   UNL     1       2.976   6.937  18.849  0.00  0.00    +0.000 A 
ATOM     11  C   UNL     1       3.249   5.530  18.658  0.00  0.00    +0.000 A 
ATOM     12  C   UNL     1       4.378   4.985  17.879  0.00  0.00    +0.000 C 
ATOM     13  N   UNL     1       4.316   3.885  17.219  0.00  0.00    +0.000 NA
ATOM     14  C   UNL     1       3.071   3.145  17.059  0.00  0.00    +0.000 C 
ENDROOT
BRANCH  12  15
ATOM     15  C   UNL     1       5.670   5.747  17.918  0.00  0.00    +0.000 A 
ATOM     16  C   UNL     1       6.576   5.484  18.966  0.00  0.00    +0.000 A 
ATOM     17  C   UNL     1       7.727   6.252  19.130  0.00  0.00    +0.000 A 
ATOM     18  C   UNL     1       8.023   7.256  18.215  0.00  0.00    +0.000 A 
ATOM     19  C   UNL     1       7.176   7.478  17.130  0.00  0.00    +0.000 A 
ATOM     20  C   UNL     1       5.997   6.735  16.977  0.00  0.00    +0.000 A 
ATOM     21 CL   UNL     1       4.995   7.166  15.635  0.00  0.00    +0.000 Cl
ENDBRANCH  12  15
BRANCH   9  22
ATOM     22  C   UNL     1       1.643   8.493  20.253  0.00  0.00    +0.000 C 
ATOM     23  C   UNL     1       1.304   9.571  20.672  0.00  0.00    +0.000 C 
BRANCH  23  24
ATOM     24  C   UNL     1       0.908  10.868  21.253  0.00  0.00    +0.000 C 
BRANCH  24  25
ATOM     25  N   UNL     1       0.543  11.845  20.227  0.00  0.00    +0.000 N 
ATOM     26  C   UNL     1      -0.628  11.587  19.519  0.00  0.00    +0.000 C 
ATOM     27  O   UNL     1      -1.389  10.661  19.800  0.00  0.00    +0.000 OA
ATOM     28  O   UNL     1      -0.934  12.374  18.457  0.00  0.00    +0.000 OA
ATOM     29  C   UNL     1      -0.264  13.601  18.173  0.00  0.00    +0.000 C 
ATOM     30  C   UNL     1       0.978  13.852  18.954  0.00  0.00    +0.000 A 
ATOM     31  C   UNL     1       1.739  15.002  18.678  0.00  0.00    +0.000 A 
ATOM     32  C   UNL     1       2.879  15.290  19.420  0.00  0.00    +0.000 A 
ATOM     33  C   UNL     1       3.266  14.425  20.434  0.00  0.00    +0.000 A 
ATOM     34  C   UNL     1       2.519  13.272  20.701  0.00  0.00    +0.000 A 
ATOM     35  C   UNL     1       1.361  12.975  19.967  0.00  0.00    +0.000 A 
ENDBRANCH  24  25
ENDBRANCH  23  24
ENDBRANCH   9  22
TORSDOF 4
ENDMDL
MODEL 9
REMARK VINA RESULT:      -8.5      4.087      9.515
REMARK  Name = 
REMARK  5 active torsions:
REMARK  status: ('A' for Active; 'I' for Inactive)
REMARK    1  A    between atoms: C_1  and  C_2
REMARK    2  A    between atoms: C_9  and  C_10
REMARK    3  A    between atoms: C_11  and  C_12
REMARK    4  A    between atoms: C_12  and  N_13
REMARK    5  A    between atoms: C_26  and  C_27
REMARK                            x       y       z     vdW  Elec       q    Type
REMARK                         _______ _______ _______ _____ _____    ______ ____
ROOT
ATOM      1  C   UNL     1      -2.776  10.111  15.810  0.00  0.00    +0.000 C 
ATOM      2  C   UNL     1      -2.975  10.775  17.117  0.00  0.00    +0.000 A 
ATOM      3  N   UNL     1      -4.103  11.359  17.470  0.00  0.00    +0.000 NA
ATOM      4  N   UNL     1      -3.901  12.000  18.652  0.00  0.00    +0.000 NA
ATOM      5  C   UNL     1      -2.653  11.803  19.009  0.00  0.00    +0.000 A 
ATOM      6  N   UNL     1      -2.005  11.003  18.084  0.00  0.00    +0.000 N 
ATOM      7  C   UNL     1      -0.677  10.568  18.219  0.00  0.00    +0.000 A 
ATOM      8  S   UNL     1      -0.161   9.128  17.486  0.00  0.00    +0.000 S 
ATOM      9  C   UNL     1       1.400   9.251  18.159  0.00  0.00    +0.000 A 
ATOM     10  C   UNL     1       1.508  10.376  18.948  0.00  0.00    +0.000 A 
ATOM     11  C   UNL     1       0.321  11.203  18.942  0.00  0.00    +0.000 A 
ATOM     12  C   UNL     1       0.237  12.566  19.500  0.00  0.00    +0.000 C 
ATOM     13  N   UNL     1      -0.828  13.046  20.035  0.00  0.00    +0.000 NA
ATOM     14  C   UNL     1      -2.013  12.232  20.272  0.00  0.00    +0.000 C 
ENDROOT
BRANCH  12  15
ATOM     15  C   UNL     1       1.454  13.435  19.378  0.00  0.00    +0.000 A 
ATOM     16  C   UNL     1       2.199  13.387  18.181  0.00  0.00    +0.000 A 
ATOM     17  C   UNL     1       3.409  14.067  18.061  0.00  0.00    +0.000 A 
ATOM     18  C   UNL     1       3.865  14.855  19.112  0.00  0.00    +0.000 A 
ATOM     19  C   UNL     1       3.103  14.973  20.273  0.00  0.00    +0.000 A 
ATOM     20  C   UNL     1       1.902  14.264  20.417  0.00  0.00    +0.000 A 
ATOM     21 CL   UNL     1       1.096  14.434  21.938  0.00  0.00    +0.000 Cl
ENDBRANCH  12  15
BRANCH   9  22
ATOM     22  C   UNL     1       2.468   8.332  17.915  0.00  0.00    +0.000 C 
ATOM     23  C   UNL     1       3.347   7.549  17.660  0.00  0.00    +0.000 C 
BRANCH  23  24
ATOM     24  C   UNL     1       4.430   6.621  17.280  0.00  0.00    +0.000 C 
BRANCH  24  25
ATOM     25  N   UNL     1       4.470   5.437  18.139  0.00  0.00    +0.000 N 
ATOM     26  C   UNL     1       5.664   5.211  18.821  0.00  0.00    +0.000 C 
ATOM     27  O   UNL     1       6.602   6.007  18.808  0.00  0.00    +0.000 OA
ATOM     28  O   UNL     1       5.810   4.051  19.508  0.00  0.00    +0.000 OA
ATOM     29  C   UNL     1       4.729   3.162  19.786  0.00  0.00    +0.000 C 
ATOM     30  C   UNL     1       3.464   3.438  19.050  0.00  0.00    +0.000 A 
ATOM     31  C   UNL     1       2.376   2.562  19.209  0.00  0.00    +0.000 A 
ATOM     32  C   UNL     1       1.166   2.815  18.572  0.00  0.00    +0.000 A 
ATOM     33  C   UNL     1       1.044   3.941  17.769  0.00  0.00    +0.000 A 
ATOM     34  C   UNL     1       2.131   4.807  17.597  0.00  0.00    +0.000 A 
ATOM     35  C   UNL     1       3.354   4.568  18.243  0.00  0.00    +0.000 A 
ENDBRANCH  24  25
ENDBRANCH  23  24
ENDBRANCH   9  22
TORSDOF 4
ENDMDL
