MODEL 1
REMARK VINA RESULT:      -7.5      0.000      0.000
REMARK  Name = 
REMARK  6 active torsions:
REMARK  status: ('A' for Active; 'I' for Inactive)
REMARK    1  A    between atoms: C_1  and  C_2
REMARK    2  A    between atoms: C_2  and  C_3
REMARK    3  A    between atoms: C_7  and  C_8
REMARK    4  A    between atoms: N_10  and  C_11
REMARK    5  A    between atoms: C_11  and  C_12
REMARK    6  A    between atoms: C_12  and  N_13
REMARK                            x       y       z     vdW  Elec       q    Type
REMARK                         _______ _______ _______ _____ _____    ______ ____
ROOT
ATOM      1  C   UNL     1       4.195   5.652  18.095  0.00  0.00    +0.000 A 
ATOM      2  N   UNL     1       3.759   6.869  17.915  0.00  0.00    +0.000 NA
ATOM      3  N   UNL     1       2.777   7.393  18.720  0.00  0.00    +0.000 N 
ATOM      4  C   UNL     1       2.222   6.718  19.801  0.00  0.00    +0.000 A 
ATOM      5  O   UNL     1       1.424   7.219  20.587  0.00  0.00    +0.000 OA
ATOM      6  C   UNL     1       2.641   5.321  19.986  0.00  0.00    +0.000 A 
ATOM      7  C   UNL     1       2.022   4.558  20.992  0.00  0.00    +0.000 A 
ATOM      8  C   UNL     1       2.409   3.241  21.211  0.00  0.00    +0.000 A 
ATOM      9  C   UNL     1       3.457   2.710  20.474  0.00  0.00    +0.000 A 
ATOM     10  C   UNL     1       4.098   3.490  19.504  0.00  0.00    +0.000 A 
ATOM     11  C   UNL     1       3.654   4.785  19.196  0.00  0.00    +0.000 A 
ENDROOT
BRANCH   1  16
ATOM     12  C   UNL     1       6.640   5.392  17.261  0.00  0.00    +0.000 A 
ATOM     13  C   UNL     1       7.337   4.620  16.268  0.00  0.00    +0.000 A 
ATOM     14  C   UNL     1       6.488   4.000  15.387  0.00  0.00    +0.000 A 
ATOM     15  S   UNL     1       4.881   4.489  15.647  0.00  0.00    +0.000 S 
ATOM     16  C   UNL     1       5.255   5.198  17.177  0.00  0.00    +0.000 A 
BRANCH  12  18
ATOM     17  C   UNL     1       7.644   7.639  17.664  0.00  0.00    +0.000 C 
ATOM     18  C   UNL     1       7.370   6.258  18.250  0.00  0.00    +0.000 C 
ENDBRANCH  12  18
ENDBRANCH   1  16
BRANCH   3  19
ATOM     19  C   UNL     1       2.428   8.804  18.541  0.00  0.00    +0.000 C 
BRANCH  19  20
ATOM     20  C   UNL     1       1.202   9.048  17.671  0.00  0.00    +0.000 C 
BRANCH  20  21
ATOM     21  N   UNL     1       0.221   9.876  18.349  0.00  0.00    +0.000 N 
ATOM     22  C   UNL     1       0.370  10.476  19.567  0.00  0.00    +0.000 A 
ATOM     23  C   UNL     1      -0.814  11.158  19.768  0.00  0.00    +0.000 A 
ATOM     24  N   UNL     1      -1.666  10.971  18.709  0.00  0.00    +0.000 NA
ATOM     25  C   UNL     1      -1.019  10.191  17.873  0.00  0.00    +0.000 A 
ENDBRANCH  20  21
ENDBRANCH  19  20
ENDBRANCH   3  19
TORSDOF 5
ENDMDL
MODEL 2
REMARK VINA RESULT:      -7.4      2.252      2.913
REMARK  Name = 
REMARK  6 active torsions:
REMARK  status: ('A' for Active; 'I' for Inactive)
REMARK    1  A    between atoms: C_1  and  C_2
REMARK    2  A    between atoms: C_2  and  C_3
REMARK    3  A    between atoms: C_7  and  C_8
REMARK    4  A    between atoms: N_10  and  C_11
REMARK    5  A    between atoms: C_11  and  C_12
REMARK    6  A    between atoms: C_12  and  N_13
REMARK                            x       y       z     vdW  Elec       q    Type
REMARK                         _______ _______ _______ _____ _____    ______ ____
ROOT
ATOM      1  C   UNL     1       4.178   5.446  18.935  0.00  0.00    +0.000 A 
ATOM      2  N   UNL     1       3.482   6.331  19.598  0.00  0.00    +0.000 NA
ATOM      3  N   UNL     1       2.222   6.036  20.057  0.00  0.00    +0.000 N 
ATOM      4  C   UNL     1       1.620   4.792  19.918  0.00  0.00    +0.000 A 
ATOM      5  O   UNL     1       0.541   4.491  20.420  0.00  0.00    +0.000 OA
ATOM      6  C   UNL     1       2.348   3.797  19.117  0.00  0.00    +0.000 A 
ATOM      7  C   UNL     1       1.729   2.564  18.848  0.00  0.00    +0.000 A 
ATOM      8  C   UNL     1       2.397   1.590  18.113  0.00  0.00    +0.000 A 
ATOM      9  C   UNL     1       3.704   1.823  17.708  0.00  0.00    +0.000 A 
ATOM     10  C   UNL     1       4.329   3.037  18.019  0.00  0.00    +0.000 A 
ATOM     11  C   UNL     1       3.636   4.071  18.667  0.00  0.00    +0.000 A 
ENDROOT
BRANCH   1  16
ATOM     12  C   UNL     1       5.919   6.406  17.267  0.00  0.00    +0.000 A 
ATOM     13  C   UNL     1       7.280   6.869  17.315  0.00  0.00    +0.000 A 
ATOM     14  C   UNL     1       7.907   6.547  18.492  0.00  0.00    +0.000 A 
ATOM     15  S   UNL     1       6.924   5.545  19.449  0.00  0.00    +0.000 S 
ATOM     16  C   UNL     1       5.520   5.870  18.497  0.00  0.00    +0.000 A 
BRANCH  12  18
ATOM     17  C   UNL     1       5.309   5.349  15.091  0.00  0.00    +0.000 C 
ATOM     18  C   UNL     1       5.081   6.534  16.025  0.00  0.00    +0.000 C 
ENDBRANCH  12  18
ENDBRANCH   1  16
BRANCH   3  19
ATOM     19  C   UNL     1       1.553   7.032  20.899  0.00  0.00    +0.000 C 
BRANCH  19  20
ATOM     20  C   UNL     1       1.567   8.447  20.337  0.00  0.00    +0.000 C 
BRANCH  20  21
ATOM     21  N   UNL     1       0.845   9.371  21.194  0.00  0.00    +0.000 N 
ATOM     22  C   UNL     1       0.108  10.446  20.787  0.00  0.00    +0.000 A 
ATOM     23  C   UNL     1      -0.388  10.992  21.954  0.00  0.00    +0.000 A 
ATOM     24  N   UNL     1       0.043  10.278  23.044  0.00  0.00    +0.000 NA
ATOM     25  C   UNL     1       0.787   9.312  22.556  0.00  0.00    +0.000 A 
ENDBRANCH  20  21
ENDBRANCH  19  20
ENDBRANCH   3  19
TORSDOF 5
ENDMDL
MODEL 3
REMARK VINA RESULT:      -7.3      2.737      6.233
REMARK  Name = 
REMARK  6 active torsions:
REMARK  status: ('A' for Active; 'I' for Inactive)
REMARK    1  A    between atoms: C_1  and  C_2
REMARK    2  A    between atoms: C_2  and  C_3
REMARK    3  A    between atoms: C_7  and  C_8
REMARK    4  A    between atoms: N_10  and  C_11
REMARK    5  A    between atoms: C_11  and  C_12
REMARK    6  A    between atoms: C_12  and  N_13
REMARK                            x       y       z     vdW  Elec       q    Type
REMARK                         _______ _______ _______ _____ _____    ______ ____
ROOT
ATOM      1  C   UNL     1       3.084   6.347  19.322  0.00  0.00    +0.000 A 
ATOM      2  N   UNL     1       4.375   6.438  19.148  0.00  0.00    +0.000 NA
ATOM      3  N   UNL     1       5.186   5.339  19.295  0.00  0.00    +0.000 N 
ATOM      4  C   UNL     1       4.713   4.062  19.572  0.00  0.00    +0.000 A 
ATOM      5  O   UNL     1       5.421   3.060  19.598  0.00  0.00    +0.000 OA
ATOM      6  C   UNL     1       3.273   3.940  19.842  0.00  0.00    +0.000 A 
ATOM      7  C   UNL     1       2.766   2.692  20.242  0.00  0.00    +0.000 A 
ATOM      8  C   UNL     1       1.405   2.533  20.484  0.00  0.00    +0.000 A 
ATOM      9  C   UNL     1       0.548   3.600  20.261  0.00  0.00    +0.000 A 
ATOM     10  C   UNL     1       1.056   4.828  19.820  0.00  0.00    +0.000 A 
ATOM     11  C   UNL     1       2.435   5.038  19.671  0.00  0.00    +0.000 A 
ENDROOT
BRANCH   1  16
ATOM     12  C   UNL     1       1.516   8.284  20.048  0.00  0.00    +0.000 A 
ATOM     13  C   UNL     1       1.097   9.555  19.520  0.00  0.00    +0.000 A 
ATOM     14  C   UNL     1       1.447   9.722  18.205  0.00  0.00    +0.000 A 
ATOM     15  S   UNL     1       2.111   8.293  17.567  0.00  0.00    +0.000 S 
ATOM     16  C   UNL     1       2.313   7.589  19.131  0.00  0.00    +0.000 A 
BRANCH  12  18
ATOM     17  C   UNL     1      -0.190   8.467  21.859  0.00  0.00    +0.000 C 
ATOM     18  C   UNL     1       1.129   7.833  21.430  0.00  0.00    +0.000 C 
ENDBRANCH  12  18
ENDBRANCH   1  16
BRANCH   3  19
ATOM     19  C   UNL     1       6.604   5.489  18.962  0.00  0.00    +0.000 C 
BRANCH  19  20
ATOM     20  C   UNL     1       6.875   6.263  17.678  0.00  0.00    +0.000 C 
BRANCH  20  21
ATOM     21  N   UNL     1       6.489   5.504  16.503  0.00  0.00    +0.000 N 
ATOM     22  C   UNL     1       7.067   4.348  16.060  0.00  0.00    +0.000 A 
ATOM     23  C   UNL     1       6.347   4.008  14.931  0.00  0.00    +0.000 A 
ATOM     24  N   UNL     1       5.366   4.935  14.685  0.00  0.00    +0.000 NA
ATOM     25  C   UNL     1       5.479   5.826  15.643  0.00  0.00    +0.000 A 
ENDBRANCH  20  21
ENDBRANCH  19  20
ENDBRANCH   3  19
TORSDOF 5
ENDMDL
MODEL 4
REMARK VINA RESULT:      -7.0      1.096      1.235
REMARK  Name = 
REMARK  6 active torsions:
REMARK  status: ('A' for Active; 'I' for Inactive)
REMARK    1  A    between atoms: C_1  and  C_2
REMARK    2  A    between atoms: C_2  and  C_3
REMARK    3  A    between atoms: C_7  and  C_8
REMARK    4  A    between atoms: N_10  and  C_11
REMARK    5  A    between atoms: C_11  and  C_12
REMARK    6  A    between atoms: C_12  and  N_13
REMARK                            x       y       z     vdW  Elec       q    Type
REMARK                         _______ _______ _______ _____ _____    ______ ____
ROOT
ATOM      1  C   UNL     1       4.220   5.281  17.365  0.00  0.00    +0.000 A 
ATOM      2  N   UNL     1       3.835   6.499  17.637  0.00  0.00    +0.000 NA
ATOM      3  N   UNL     1       2.822   6.734  18.534  0.00  0.00    +0.000 N 
ATOM      4  C   UNL     1       2.181   5.734  19.255  0.00  0.00    +0.000 A 
ATOM      5  O   UNL     1       1.352   5.946  20.135  0.00  0.00    +0.000 OA
ATOM      6  C   UNL     1       2.543   4.349  18.920  0.00  0.00    +0.000 A 
ATOM      7  C   UNL     1       1.839   3.300  19.536  0.00  0.00    +0.000 A 
ATOM      8  C   UNL     1       2.170   1.977  19.261  0.00  0.00    +0.000 A 
ATOM      9  C   UNL     1       3.245   1.707  18.426  0.00  0.00    +0.000 A 
ATOM     10  C   UNL     1       3.969   2.758  17.851  0.00  0.00    +0.000 A 
ATOM     11  C   UNL     1       3.585   4.095  18.033  0.00  0.00    +0.000 A 
ENDROOT
BRANCH   1  16
ATOM     12  C   UNL     1       6.646   5.590  16.493  0.00  0.00    +0.000 A 
ATOM     13  C   UNL     1       7.447   5.088  15.409  0.00  0.00    +0.000 A 
ATOM     14  C   UNL     1       6.705   4.428  14.464  0.00  0.00    +0.000 A 
ATOM     15  S   UNL     1       5.043   4.568  14.790  0.00  0.00    +0.000 S 
ATOM     16  C   UNL     1       5.321   5.149  16.393  0.00  0.00    +0.000 A 
BRANCH  12  18
ATOM     17  C   UNL     1       7.647   5.613  18.778  0.00  0.00    +0.000 C 
ATOM     18  C   UNL     1       7.228   6.455  17.576  0.00  0.00    +0.000 C 
ENDBRANCH  12  18
ENDBRANCH   1  16
BRANCH   3  19
ATOM     19  C   UNL     1       2.530   8.126  18.883  0.00  0.00    +0.000 C 
BRANCH  19  20
ATOM     20  C   UNL     1       1.675   8.868  17.865  0.00  0.00    +0.000 C 
BRANCH  20  21
ATOM     21  N   UNL     1       0.633   9.650  18.507  0.00  0.00    +0.000 N 
ATOM     22  C   UNL     1       0.648  10.121  19.789  0.00  0.00    +0.000 A 
ATOM     23  C   UNL     1      -0.542  10.809  19.922  0.00  0.00    +0.000 A 
ATOM     24  N   UNL     1      -1.268  10.751  18.759  0.00  0.00    +0.000 NA
ATOM     25  C   UNL     1      -0.538  10.043  17.928  0.00  0.00    +0.000 A 
ENDBRANCH  20  21
ENDBRANCH  19  20
ENDBRANCH   3  19
TORSDOF 5
ENDMDL
MODEL 5
REMARK VINA RESULT:      -7.0      1.813      2.495
REMARK  Name = 
REMARK  6 active torsions:
REMARK  status: ('A' for Active; 'I' for Inactive)
REMARK    1  A    between atoms: C_1  and  C_2
REMARK    2  A    between atoms: C_2  and  C_3
REMARK    3  A    between atoms: C_7  and  C_8
REMARK    4  A    between atoms: N_10  and  C_11
REMARK    5  A    between atoms: C_11  and  C_12
REMARK    6  A    between atoms: C_12  and  N_13
REMARK                            x       y       z     vdW  Elec       q    Type
REMARK                         _______ _______ _______ _____ _____    ______ ____
ROOT
ATOM      1  C   UNL     1       4.129   5.418  18.925  0.00  0.00    +0.000 A 
ATOM      2  N   UNL     1       3.417   6.340  19.515  0.00  0.00    +0.000 NA
ATOM      3  N   UNL     1       2.155   6.065  19.983  0.00  0.00    +0.000 N 
ATOM      4  C   UNL     1       1.568   4.807  19.928  0.00  0.00    +0.000 A 
ATOM      5  O   UNL     1       0.487   4.531  20.441  0.00  0.00    +0.000 OA
ATOM      6  C   UNL     1       2.315   3.766  19.208  0.00  0.00    +0.000 A 
ATOM      7  C   UNL     1       1.713   2.509  19.023  0.00  0.00    +0.000 A 
ATOM      8  C   UNL     1       2.399   1.492  18.368  0.00  0.00    +0.000 A 
ATOM      9  C   UNL     1       3.707   1.711  17.960  0.00  0.00    +0.000 A 
ATOM     10  C   UNL     1       4.315   2.951  18.187  0.00  0.00    +0.000 A 
ATOM     11  C   UNL     1       3.605   4.021  18.752  0.00  0.00    +0.000 A 
ENDROOT
BRANCH   1  16
ATOM     12  C   UNL     1       5.870   6.307  17.218  0.00  0.00    +0.000 A 
ATOM     13  C   UNL     1       7.231   6.774  17.247  0.00  0.00    +0.000 A 
ATOM     14  C   UNL     1       7.857   6.505  18.437  0.00  0.00    +0.000 A 
ATOM     15  S   UNL     1       6.874   5.544  19.436  0.00  0.00    +0.000 S 
ATOM     16  C   UNL     1       5.471   5.824  18.470  0.00  0.00    +0.000 A 
BRANCH  12  18
ATOM     17  C   UNL     1       5.414   5.269  14.996  0.00  0.00    +0.000 C 
ATOM     18  C   UNL     1       5.033   6.379  15.970  0.00  0.00    +0.000 C 
ENDBRANCH  12  18
ENDBRANCH   1  16
BRANCH   3  19
ATOM     19  C   UNL     1       1.467   7.111  20.743  0.00  0.00    +0.000 C 
BRANCH  19  20
ATOM     20  C   UNL     1       1.927   8.529  20.430  0.00  0.00    +0.000 C 
BRANCH  20  21
ATOM     21  N   UNL     1       0.869   9.313  19.819  0.00  0.00    +0.000 N 
ATOM     22  C   UNL     1      -0.279   9.737  20.426  0.00  0.00    +0.000 A 
ATOM     23  C   UNL     1      -0.947  10.450  19.451  0.00  0.00    +0.000 A 
ATOM     24  N   UNL     1      -0.234  10.453  18.279  0.00  0.00    +0.000 NA
ATOM     25  C   UNL     1       0.851   9.757  18.528  0.00  0.00    +0.000 A 
ENDBRANCH  20  21
ENDBRANCH  19  20
ENDBRANCH   3  19
TORSDOF 5
ENDMDL
MODEL 6
REMARK VINA RESULT:      -6.8      1.234      1.536
REMARK  Name = 
REMARK  6 active torsions:
REMARK  status: ('A' for Active; 'I' for Inactive)
REMARK    1  A    between atoms: C_1  and  C_2
REMARK    2  A    between atoms: C_2  and  C_3
REMARK    3  A    between atoms: C_7  and  C_8
REMARK    4  A    between atoms: N_10  and  C_11
REMARK    5  A    between atoms: C_11  and  C_12
REMARK    6  A    between atoms: C_12  and  N_13
REMARK                            x       y       z     vdW  Elec       q    Type
REMARK                         _______ _______ _______ _____ _____    ______ ____
ROOT
ATOM      1  C   UNL     1       4.221   5.548  18.159  0.00  0.00    +0.000 A 
ATOM      2  N   UNL     1       3.565   6.677  18.176  0.00  0.00    +0.000 NA
ATOM      3  N   UNL     1       2.565   6.897  19.091  0.00  0.00    +0.000 N 
ATOM      4  C   UNL     1       2.218   5.994  20.088  0.00  0.00    +0.000 A 
ATOM      5  O   UNL     1       1.401   6.230  20.974  0.00  0.00    +0.000 OA
ATOM      6  C   UNL     1       2.889   4.687  20.052  0.00  0.00    +0.000 A 
ATOM      7  C   UNL     1       2.489   3.696  20.966  0.00  0.00    +0.000 A 
ATOM      8  C   UNL     1       3.118   2.456  20.976  0.00  0.00    +0.000 A 
ATOM      9  C   UNL     1       4.188   2.232  20.122  0.00  0.00    +0.000 A 
ATOM     10  C   UNL     1       4.610   3.238  19.246  0.00  0.00    +0.000 A 
ATOM     11  C   UNL     1       3.923   4.458  19.148  0.00  0.00    +0.000 A 
ENDROOT
BRANCH   1  16
ATOM     12  C   UNL     1       6.619   5.818  17.202  0.00  0.00    +0.000 A 
ATOM     13  C   UNL     1       7.360   5.340  16.065  0.00  0.00    +0.000 A 
ATOM     14  C   UNL     1       6.559   4.747  15.123  0.00  0.00    +0.000 A 
ATOM     15  S   UNL     1       4.917   4.926  15.524  0.00  0.00    +0.000 S 
ATOM     16  C   UNL     1       5.277   5.425  17.137  0.00  0.00    +0.000 A 
BRANCH  12  18
ATOM     17  C   UNL     1       7.840   5.695  19.374  0.00  0.00    +0.000 C 
ATOM     18  C   UNL     1       7.273   6.615  18.297  0.00  0.00    +0.000 C 
ENDBRANCH  12  18
ENDBRANCH   1  16
BRANCH   3  19
ATOM     19  C   UNL     1       1.960   8.230  19.132  0.00  0.00    +0.000 C 
BRANCH  19  20
ATOM     20  C   UNL     1       2.260   9.100  17.918  0.00  0.00    +0.000 C 
BRANCH  20  21
ATOM     21  N   UNL     1       1.893  10.485  18.147  0.00  0.00    +0.000 N 
ATOM     22  C   UNL     1       0.730  10.933  18.708  0.00  0.00    +0.000 A 
ATOM     23  C   UNL     1       0.857  12.308  18.724  0.00  0.00    +0.000 A 
ATOM     24  N   UNL     1       2.057  12.690  18.178  0.00  0.00    +0.000 NA
ATOM     25  C   UNL     1       2.656  11.573  17.835  0.00  0.00    +0.000 A 
ENDBRANCH  20  21
ENDBRANCH  19  20
ENDBRANCH   3  19
TORSDOF 5
ENDMDL
MODEL 7
REMARK VINA RESULT:      -6.8      2.771      6.407
REMARK  Name = 
REMARK  6 active torsions:
REMARK  status: ('A' for Active; 'I' for Inactive)
REMARK    1  A    between atoms: C_1  and  C_2
REMARK    2  A    between atoms: C_2  and  C_3
REMARK    3  A    between atoms: C_7  and  C_8
REMARK    4  A    between atoms: N_10  and  C_11
REMARK    5  A    between atoms: C_11  and  C_12
REMARK    6  A    between atoms: C_12  and  N_13
REMARK                            x       y       z     vdW  Elec       q    Type
REMARK                         _______ _______ _______ _____ _____    ______ ____
ROOT
ATOM      1  C   UNL     1       2.455   6.616  19.017  0.00  0.00    +0.000 A 
ATOM      2  N   UNL     1       3.340   6.936  18.112  0.00  0.00    +0.000 NA
ATOM      3  N   UNL     1       3.996   5.965  17.393  0.00  0.00    +0.000 N 
ATOM      4  C   UNL     1       3.738   4.605  17.518  0.00  0.00    +0.000 A 
ATOM      5  O   UNL     1       4.242   3.743  16.804  0.00  0.00    +0.000 OA
ATOM      6  C   UNL     1       2.799   4.210  18.578  0.00  0.00    +0.000 A 
ATOM      7  C   UNL     1       2.595   2.841  18.823  0.00  0.00    +0.000 A 
ATOM      8  C   UNL     1       1.697   2.430  19.802  0.00  0.00    +0.000 A 
ATOM      9  C   UNL     1       0.956   3.383  20.485  0.00  0.00    +0.000 A 
ATOM     10  C   UNL     1       1.132   4.743  20.204  0.00  0.00    +0.000 A 
ATOM     11  C   UNL     1       2.108   5.182  19.296  0.00  0.00    +0.000 A 
ENDROOT
BRANCH   1  16
ATOM     12  C   UNL     1       1.395   8.977  19.214  0.00  0.00    +0.000 A 
ATOM     13  C   UNL     1       0.633   9.712  20.189  0.00  0.00    +0.000 A 
ATOM     14  C   UNL     1       0.617   9.103  21.417  0.00  0.00    +0.000 A 
ATOM     15  S   UNL     1       1.657   7.758  21.441  0.00  0.00    +0.000 S 
ATOM     16  C   UNL     1       1.810   7.740  19.721  0.00  0.00    +0.000 A 
BRANCH  12  18
ATOM     17  C   UNL     1       2.164  10.956  17.905  0.00  0.00    +0.000 C 
ATOM     18  C   UNL     1       1.654   9.520  17.836  0.00  0.00    +0.000 C 
ENDBRANCH  12  18
ENDBRANCH   1  16
BRANCH   3  19
ATOM     19  C   UNL     1       4.879   6.399  16.309  0.00  0.00    +0.000 C 
BRANCH  19  20
ATOM     20  C   UNL     1       6.190   7.022  16.772  0.00  0.00    +0.000 C 
BRANCH  20  21
ATOM     21  N   UNL     1       7.028   6.057  17.461  0.00  0.00    +0.000 N 
ATOM     22  C   UNL     1       7.546   6.186  18.719  0.00  0.00    +0.000 A 
ATOM     23  C   UNL     1       8.249   5.017  18.928  0.00  0.00    +0.000 A 
ATOM     24  N   UNL     1       8.174   4.202  17.827  0.00  0.00    +0.000 NA
ATOM     25  C   UNL     1       7.437   4.856  16.959  0.00  0.00    +0.000 A 
ENDBRANCH  20  21
ENDBRANCH  19  20
ENDBRANCH   3  19
TORSDOF 5
ENDMDL
MODEL 8
REMARK VINA RESULT:      -6.8      2.512      5.143
REMARK  Name = 
REMARK  6 active torsions:
REMARK  status: ('A' for Active; 'I' for Inactive)
REMARK    1  A    between atoms: C_1  and  C_2
REMARK    2  A    between atoms: C_2  and  C_3
REMARK    3  A    between atoms: C_7  and  C_8
REMARK    4  A    between atoms: N_10  and  C_11
REMARK    5  A    between atoms: C_11  and  C_12
REMARK    6  A    between atoms: C_12  and  N_13
REMARK                            x       y       z     vdW  Elec       q    Type
REMARK                         _______ _______ _______ _____ _____    ______ ____
ROOT
ATOM      1  C   UNL     1       4.123   5.503  18.650  0.00  0.00    +0.000 A 
ATOM      2  N   UNL     1       3.853   4.669  19.618  0.00  0.00    +0.000 NA
ATOM      3  N   UNL     1       2.849   4.933  20.517  0.00  0.00    +0.000 N 
ATOM      4  C   UNL     1       2.018   6.044  20.442  0.00  0.00    +0.000 A 
ATOM      5  O   UNL     1       1.052   6.229  21.178  0.00  0.00    +0.000 OA
ATOM      6  C   UNL     1       2.341   7.036  19.407  0.00  0.00    +0.000 A 
ATOM      7  C   UNL     1       1.603   8.233  19.366  0.00  0.00    +0.000 A 
ATOM      8  C   UNL     1       1.866   9.184  18.386  0.00  0.00    +0.000 A 
ATOM      9  C   UNL     1       2.814   8.910  17.411  0.00  0.00    +0.000 A 
ATOM     10  C   UNL     1       3.513   7.697  17.433  0.00  0.00    +0.000 A 
ATOM     11  C   UNL     1       3.337   6.771  18.472  0.00  0.00    +0.000 A 
ENDROOT
BRANCH   1  16
ATOM     12  C   UNL     1       6.599   5.261  17.908  0.00  0.00    +0.000 A 
ATOM     13  C   UNL     1       7.326   4.570  16.877  0.00  0.00    +0.000 A 
ATOM     14  C   UNL     1       6.507   4.061  15.902  0.00  0.00    +0.000 A 
ATOM     15  S   UNL     1       4.901   4.565  16.135  0.00  0.00    +0.000 S 
ATOM     16  C   UNL     1       5.216   5.113  17.742  0.00  0.00    +0.000 A 
BRANCH  12  18
ATOM     17  C   UNL     1       8.046   7.217  18.455  0.00  0.00    +0.000 C 
ATOM     18  C   UNL     1       7.299   6.008  19.009  0.00  0.00    +0.000 C 
ENDBRANCH  12  18
ENDBRANCH   1  16
BRANCH   3  19
ATOM     19  C   UNL     1       2.521   3.895  21.497  0.00  0.00    +0.000 C 
BRANCH  19  20
ATOM     20  C   UNL     1       1.714   2.730  20.939  0.00  0.00    +0.000 C 
BRANCH  20  21
ATOM     21  N   UNL     1       2.149   2.368  19.603  0.00  0.00    +0.000 N 
ATOM     22  C   UNL     1       3.307   1.721  19.275  0.00  0.00    +0.000 A 
ATOM     23  C   UNL     1       3.259   1.593  17.902  0.00  0.00    +0.000 A 
ATOM     24  N   UNL     1       2.111   2.154  17.402  0.00  0.00    +0.000 NA
ATOM     25  C   UNL     1       1.466   2.617  18.448  0.00  0.00    +0.000 A 
ENDBRANCH  20  21
ENDBRANCH  19  20
ENDBRANCH   3  19
TORSDOF 5
ENDMDL
MODEL 9
REMARK VINA RESULT:      -6.7      1.042      1.244
REMARK  Name = 
REMARK  6 active torsions:
REMARK  status: ('A' for Active; 'I' for Inactive)
REMARK    1  A    between atoms: C_1  and  C_2
REMARK    2  A    between atoms: C_2  and  C_3
REMARK    3  A    between atoms: C_7  and  C_8
REMARK    4  A    between atoms: N_10  and  C_11
REMARK    5  A    between atoms: C_11  and  C_12
REMARK    6  A    between atoms: C_12  and  N_13
REMARK                            x       y       z     vdW  Elec       q    Type
REMARK                         _______ _______ _______ _____ _____    ______ ____
ROOT
ATOM      1  C   UNL     1       4.167   5.663  18.112  0.00  0.00    +0.000 A 
ATOM      2  N   UNL     1       3.757   6.888  17.925  0.00  0.00    +0.000 NA
ATOM      3  N   UNL     1       2.785   7.436  18.727  0.00  0.00    +0.000 N 
ATOM      4  C   UNL     1       2.216   6.778  19.810  0.00  0.00    +0.000 A 
ATOM      5  O   UNL     1       1.428   7.300  20.593  0.00  0.00    +0.000 OA
ATOM      6  C   UNL     1       2.605   5.374  20.003  0.00  0.00    +0.000 A 
ATOM      7  C   UNL     1       1.970   4.630  21.013  0.00  0.00    +0.000 A 
ATOM      8  C   UNL     1       2.329   3.306  21.239  0.00  0.00    +0.000 A 
ATOM      9  C   UNL     1       3.367   2.750  20.505  0.00  0.00    +0.000 A 
ATOM     10  C   UNL     1       4.025   3.511  19.532  0.00  0.00    +0.000 A 
ATOM     11  C   UNL     1       3.608   4.813  19.217  0.00  0.00    +0.000 A 
ENDROOT
BRANCH   1  16
ATOM     12  C   UNL     1       6.604   5.371  17.266  0.00  0.00    +0.000 A 
ATOM     13  C   UNL     1       7.290   4.572  16.286  0.00  0.00    +0.000 A 
ATOM     14  C   UNL     1       6.431   3.937  15.426  0.00  0.00    +0.000 A 
ATOM     15  S   UNL     1       4.829   4.439  15.687  0.00  0.00    +0.000 S 
ATOM     16  C   UNL     1       5.218   5.183  17.196  0.00  0.00    +0.000 A 
BRANCH  12  18
ATOM     17  C   UNL     1       7.619   7.623  17.610  0.00  0.00    +0.000 C 
ATOM     18  C   UNL     1       7.346   6.256  18.229  0.00  0.00    +0.000 C 
ENDBRANCH  12  18
ENDBRANCH   1  16
BRANCH   3  19
ATOM     19  C   UNL     1       2.466   8.853  18.540  0.00  0.00    +0.000 C 
BRANCH  19  20
ATOM     20  C   UNL     1       1.035   9.233  18.896  0.00  0.00    +0.000 C 
BRANCH  20  21
ATOM     21  N   UNL     1       0.978  10.489  19.622  0.00  0.00    +0.000 N 
ATOM     22  C   UNL     1       1.082  11.740  19.085  0.00  0.00    +0.000 A 
ATOM     23  C   UNL     1       0.952  12.595  20.162  0.00  0.00    +0.000 A 
ATOM     24  N   UNL     1       0.785  11.886  21.325  0.00  0.00    +0.000 NA
ATOM     25  C   UNL     1       0.811  10.622  20.970  0.00  0.00    +0.000 A 
ENDBRANCH  20  21
ENDBRANCH  19  20
ENDBRANCH   3  19
TORSDOF 5
ENDMDL
