MODEL 1
REMARK VINA RESULT:      -8.2      0.000      0.000
REMARK  Name = 
REMARK  11 active torsions:
REMARK  status: ('A' for Active; 'I' for Inactive)
REMARK    1  A    between atoms: C_1  and  O_2
REMARK    2  A    between atoms: O_2  and  C_3
REMARK    3  A    between atoms: C_6  and  C_7
REMARK    4  A    between atoms: C_8  and  C_9
REMARK    5  A    between atoms: N_11  and  C_12
REMARK    6  A    between atoms: C_15  and  N_16
REMARK    7  A    between atoms: N_16  and  C_17
REMARK    8  A    between atoms: N_16  and  C_18
REMARK    9  A    between atoms: C_23  and  C_24
REMARK   10  A    between atoms: C_28  and  O_29
REMARK   11  A    between atoms: C_31  and  O_32
REMARK                            x       y       z     vdW  Elec       q    Type
REMARK                         _______ _______ _______ _____ _____    ______ ____
ROOT
ATOM      1  C   UNL     1      -0.291  10.403  21.090  0.00  0.00    +0.000 A 
ATOM      2  C   UNL     1       0.686   9.399  21.427  0.00  0.00    +0.000 A 
ATOM      3  N   UNL     1       1.085   9.526  22.706  0.00  0.00    +0.000 NA
ATOM      4  O   UNL     1       0.315  10.534  23.239  0.00  0.00    +0.000 OA
ATOM      5  C   UNL     1      -0.514  11.061  22.293  0.00  0.00    +0.000 A 
ENDROOT
BRANCH   5   6
ATOM      6  C   UNL     1      -1.415  12.122  22.779  0.00  0.00    +0.000 A 
ATOM      7  C   UNL     1      -2.621  11.775  23.415  0.00  0.00    +0.000 A 
ATOM      8  C   UNL     1      -3.508  12.756  23.863  0.00  0.00    +0.000 A 
ATOM      9 CL   UNL     1      -5.012  12.285  24.564  0.00  0.00    +0.000 Cl
ATOM     10  C   UNL     1      -3.184  14.103  23.729  0.00  0.00    +0.000 A 
ATOM     11  C   UNL     1      -1.992  14.480  23.125  0.00  0.00    +0.000 A 
ATOM     12  C   UNL     1      -1.121  13.495  22.643  0.00  0.00    +0.000 A 
BRANCH  10  13
ATOM     13  O   UNL     1      -4.009  15.099  24.175  0.00  0.00    +0.000 OA
ATOM     14  H   UNL     1      -4.819  15.071  23.631  0.00  0.00    +0.000 HD
ENDBRANCH  10  13
BRANCH  12  15
ATOM     15  O   UNL     1       0.024  13.893  22.007  0.00  0.00    +0.000 OA
ATOM     16  H   UNL     1       0.761  13.908  22.641  0.00  0.00    +0.000 HD
ENDBRANCH  12  15
ENDBRANCH   5   6
BRANCH   1  20
ATOM     17  C   UNL     1      -2.025  11.394  17.282  0.00  0.00    +0.000 A 
ATOM     18  C   UNL     1      -2.214  10.136  17.839  0.00  0.00    +0.000 A 
ATOM     19  C   UNL     1      -1.714   9.841  19.110  0.00  0.00    +0.000 A 
ATOM     20  C   UNL     1      -0.912  10.750  19.807  0.00  0.00    +0.000 A 
ATOM     21  C   UNL     1      -0.700  12.006  19.215  0.00  0.00    +0.000 A 
ATOM     22  C   UNL     1      -1.283  12.340  17.981  0.00  0.00    +0.000 A 
BRANCH  17  24
ATOM     23  C   UNL     1      -3.677  10.733  15.734  0.00  0.00    +0.000 C 
ATOM     24  O   UNL     1      -2.566  11.565  16.039  0.00  0.00    +0.000 OA
ENDBRANCH  17  24
ENDBRANCH   1  20
BRANCH   2  25
ATOM     25  C   UNL     1       1.252   8.326  20.592  0.00  0.00    +0.000 C 
ATOM     26  O   UNL     1       1.595   8.541  19.437  0.00  0.00    +0.000 OA
ATOM     27  N   UNL     1       1.321   7.075  21.191  0.00  0.00    +0.000 N 
ATOM     28  H   UNL     1       0.842   6.978  22.080  0.00  0.00    +0.000 HD
BRANCH  27  29
ATOM     29  C   UNL     1       1.894   5.929  20.595  0.00  0.00    +0.000 A 
ATOM     30  C   UNL     1       1.262   4.690  20.567  0.00  0.00    +0.000 A 
ATOM     31  C   UNL     1       1.884   3.569  20.002  0.00  0.00    +0.000 A 
ATOM     32  C   UNL     1       3.147   3.629  19.405  0.00  0.00    +0.000 A 
ATOM     33  C   UNL     1       3.764   4.893  19.429  0.00  0.00    +0.000 A 
ATOM     34  C   UNL     1       3.150   6.027  20.004  0.00  0.00    +0.000 A 
BRANCH  32  35
ATOM     35  N   UNL     1       3.748   2.486  18.892  0.00  0.00    +0.000 N 
ATOM     36  C   UNL     1       4.599   1.654  19.747  0.00  0.00    +0.000 C 
ATOM     37  C   UNL     1       3.201   1.781  17.737  0.00  0.00    +0.000 C 
ENDBRANCH  32  35
ENDBRANCH  27  29
ENDBRANCH   2  25
TORSDOF 8
ENDMDL
MODEL 2
REMARK VINA RESULT:      -7.9      2.505      2.969
REMARK  Name = 
REMARK  11 active torsions:
REMARK  status: ('A' for Active; 'I' for Inactive)
REMARK    1  A    between atoms: C_1  and  O_2
REMARK    2  A    between atoms: O_2  and  C_3
REMARK    3  A    between atoms: C_6  and  C_7
REMARK    4  A    between atoms: C_8  and  C_9
REMARK    5  A    between atoms: N_11  and  C_12
REMARK    6  A    between atoms: C_15  and  N_16
REMARK    7  A    between atoms: N_16  and  C_17
REMARK    8  A    between atoms: N_16  and  C_18
REMARK    9  A    between atoms: C_23  and  C_24
REMARK   10  A    between atoms: C_28  and  O_29
REMARK   11  A    between atoms: C_31  and  O_32
REMARK                            x       y       z     vdW  Elec       q    Type
REMARK                         _______ _______ _______ _____ _____    ______ ____
ROOT
ATOM      1  C   UNL     1      -0.496  11.360  20.114  0.00  0.00    +0.000 A 
ATOM      2  C   UNL     1       0.393  10.463  20.807  0.00  0.00    +0.000 A 
ATOM      3  N   UNL     1       1.198  11.139  21.648  0.00  0.00    +0.000 NA
ATOM      4  O   UNL     1       0.786  12.451  21.587  0.00  0.00    +0.000 OA
ATOM      5  C   UNL     1      -0.226  12.597  20.685  0.00  0.00    +0.000 A 
ENDROOT
BRANCH   5   6
ATOM      6  C   UNL     1      -0.769  13.964  20.580  0.00  0.00    +0.000 A 
ATOM      7  C   UNL     1      -0.462  14.752  19.455  0.00  0.00    +0.000 A 
ATOM      8  C   UNL     1      -0.939  16.059  19.338  0.00  0.00    +0.000 A 
ATOM      9 CL   UNL     1      -0.471  17.015  17.982  0.00  0.00    +0.000 Cl
ATOM     10  C   UNL     1      -1.773  16.587  20.319  0.00  0.00    +0.000 A 
ATOM     11  C   UNL     1      -2.114  15.829  21.431  0.00  0.00    +0.000 A 
ATOM     12  C   UNL     1      -1.604  14.532  21.565  0.00  0.00    +0.000 A 
BRANCH  10  13
ATOM     13  O   UNL     1      -2.285  17.853  20.236  0.00  0.00    +0.000 OA
ATOM     14  H   UNL     1      -2.091  18.187  19.339  0.00  0.00    +0.000 HD
ENDBRANCH  10  13
BRANCH  12  15
ATOM     15  O   UNL     1      -1.914  13.824  22.694  0.00  0.00    +0.000 OA
ATOM     16  H   UNL     1      -2.692  14.218  23.124  0.00  0.00    +0.000 HD
ENDBRANCH  12  15
ENDBRANCH   5   6
BRANCH   1  20
ATOM     17  C   UNL     1      -3.250  10.741  16.869  0.00  0.00    +0.000 A 
ATOM     18  C   UNL     1      -2.003  10.128  16.865  0.00  0.00    +0.000 A 
ATOM     19  C   UNL     1      -1.140  10.270  17.956  0.00  0.00    +0.000 A 
ATOM     20  C   UNL     1      -1.447  11.121  19.022  0.00  0.00    +0.000 A 
ATOM     21  C   UNL     1      -2.697  11.761  18.995  0.00  0.00    +0.000 A 
ATOM     22  C   UNL     1      -3.607  11.544  17.948  0.00  0.00    +0.000 A 
BRANCH  17  24
ATOM     23  C   UNL     1      -3.281  10.170  14.581  0.00  0.00    +0.000 C 
ATOM     24  O   UNL     1      -4.005  10.524  15.753  0.00  0.00    +0.000 OA
ENDBRANCH  17  24
ENDBRANCH   1  20
BRANCH   2  25
ATOM     25  C   UNL     1       0.508   8.998  20.711  0.00  0.00    +0.000 C 
ATOM     26  O   UNL     1      -0.339   8.267  21.205  0.00  0.00    +0.000 OA
ATOM     27  N   UNL     1       1.648   8.528  20.071  0.00  0.00    +0.000 N 
ATOM     28  H   UNL     1       2.362   9.218  19.867  0.00  0.00    +0.000 HD
BRANCH  27  29
ATOM     29  C   UNL     1       1.918   7.167  19.808  0.00  0.00    +0.000 A 
ATOM     30  C   UNL     1       1.768   6.163  20.760  0.00  0.00    +0.000 A 
ATOM     31  C   UNL     1       2.086   4.831  20.468  0.00  0.00    +0.000 A 
ATOM     32  C   UNL     1       2.535   4.422  19.209  0.00  0.00    +0.000 A 
ATOM     33  C   UNL     1       2.666   5.447  18.255  0.00  0.00    +0.000 A 
ATOM     34  C   UNL     1       2.356   6.794  18.540  0.00  0.00    +0.000 A 
BRANCH  32  35
ATOM     35  N   UNL     1       2.880   3.097  18.971  0.00  0.00    +0.000 N 
ATOM     36  C   UNL     1       2.455   2.433  17.735  0.00  0.00    +0.000 C 
ATOM     37  C   UNL     1       4.041   2.479  19.605  0.00  0.00    +0.000 C 
ENDBRANCH  32  35
ENDBRANCH  27  29
ENDBRANCH   2  25
TORSDOF 8
ENDMDL
MODEL 3
REMARK VINA RESULT:      -7.8      0.761      1.493
REMARK  Name = 
REMARK  11 active torsions:
REMARK  status: ('A' for Active; 'I' for Inactive)
REMARK    1  A    between atoms: C_1  and  O_2
REMARK    2  A    between atoms: O_2  and  C_3
REMARK    3  A    between atoms: C_6  and  C_7
REMARK    4  A    between atoms: C_8  and  C_9
REMARK    5  A    between atoms: N_11  and  C_12
REMARK    6  A    between atoms: C_15  and  N_16
REMARK    7  A    between atoms: N_16  and  C_17
REMARK    8  A    between atoms: N_16  and  C_18
REMARK    9  A    between atoms: C_23  and  C_24
REMARK   10  A    between atoms: C_28  and  O_29
REMARK   11  A    between atoms: C_31  and  O_32
REMARK                            x       y       z     vdW  Elec       q    Type
REMARK                         _______ _______ _______ _____ _____    ______ ____
ROOT
ATOM      1  C   UNL     1      -0.327  10.543  20.622  0.00  0.00    +0.000 A 
ATOM      2  C   UNL     1       0.705   9.630  21.039  0.00  0.00    +0.000 A 
ATOM      3  N   UNL     1       1.133   9.923  22.281  0.00  0.00    +0.000 NA
ATOM      4  O   UNL     1       0.331  10.952  22.719  0.00  0.00    +0.000 OA
ATOM      5  C   UNL     1      -0.548  11.327  21.746  0.00  0.00    +0.000 A 
ENDROOT
BRANCH   5   6
ATOM      6  C   UNL     1      -1.484  12.397  22.136  0.00  0.00    +0.000 A 
ATOM      7  C   UNL     1      -2.871  12.161  22.091  0.00  0.00    +0.000 A 
ATOM      8  C   UNL     1      -3.785  13.162  22.428  0.00  0.00    +0.000 A 
ATOM      9 CL   UNL     1      -5.475  12.853  22.281  0.00  0.00    +0.000 Cl
ATOM     10  C   UNL     1      -3.329  14.402  22.865  0.00  0.00    +0.000 A 
ATOM     11  C   UNL     1      -1.968  14.662  22.941  0.00  0.00    +0.000 A 
ATOM     12  C   UNL     1      -1.054  13.670  22.567  0.00  0.00    +0.000 A 
BRANCH  10  13
ATOM     13  O   UNL     1      -4.185  15.405  23.230  0.00  0.00    +0.000 OA
ATOM     14  H   UNL     1      -4.260  16.015  22.470  0.00  0.00    +0.000 HD
ENDBRANCH  10  13
BRANCH  12  15
ATOM     15  O   UNL     1       0.282  13.967  22.603  0.00  0.00    +0.000 OA
ATOM     16  H   UNL     1       0.577  14.028  23.528  0.00  0.00    +0.000 HD
ENDBRANCH  12  15
ENDBRANCH   5   6
BRANCH   1  20
ATOM     17  C   UNL     1      -2.380  11.065  16.878  0.00  0.00    +0.000 A 
ATOM     18  C   UNL     1      -1.554  12.064  17.377  0.00  0.00    +0.000 A 
ATOM     19  C   UNL     1      -0.829  11.863  18.555  0.00  0.00    +0.000 A 
ATOM     20  C   UNL     1      -1.000  10.710  19.328  0.00  0.00    +0.000 A 
ATOM     21  C   UNL     1      -1.865   9.723  18.827  0.00  0.00    +0.000 A 
ATOM     22  C   UNL     1      -2.520   9.881  17.595  0.00  0.00    +0.000 A 
BRANCH  17  24
ATOM     23  C   UNL     1      -3.044  10.353  14.730  0.00  0.00    +0.000 C 
ATOM     24  O   UNL     1      -3.030  11.376  15.718  0.00  0.00    +0.000 OA
ENDBRANCH  17  24
ENDBRANCH   1  20
BRANCH   2  25
ATOM     25  C   UNL     1       1.298   8.492  20.316  0.00  0.00    +0.000 C 
ATOM     26  O   UNL     1       1.671   8.609  19.157  0.00  0.00    +0.000 OA
ATOM     27  N   UNL     1       1.355   7.298  21.022  0.00  0.00    +0.000 N 
ATOM     28  H   UNL     1       0.853   7.275  21.903  0.00  0.00    +0.000 HD
BRANCH  27  29
ATOM     29  C   UNL     1       1.949   6.108  20.544  0.00  0.00    +0.000 A 
ATOM     30  C   UNL     1       3.105   6.093  19.771  0.00  0.00    +0.000 A 
ATOM     31  C   UNL     1       3.638   4.893  19.282  0.00  0.00    +0.000 A 
ATOM     32  C   UNL     1       3.071   3.647  19.566  0.00  0.00    +0.000 A 
ATOM     33  C   UNL     1       1.911   3.681  20.361  0.00  0.00    +0.000 A 
ATOM     34  C   UNL     1       1.361   4.885  20.851  0.00  0.00    +0.000 A 
BRANCH  32  35
ATOM     35  N   UNL     1       3.605   2.482  19.028  0.00  0.00    +0.000 N 
ATOM     36  C   UNL     1       3.686   2.310  17.574  0.00  0.00    +0.000 C 
ATOM     37  C   UNL     1       4.541   1.648  19.774  0.00  0.00    +0.000 C 
ENDBRANCH  32  35
ENDBRANCH  27  29
ENDBRANCH   2  25
TORSDOF 8
ENDMDL
MODEL 4
REMARK VINA RESULT:      -7.8      1.514      1.831
REMARK  Name = 
REMARK  11 active torsions:
REMARK  status: ('A' for Active; 'I' for Inactive)
REMARK    1  A    between atoms: C_1  and  O_2
REMARK    2  A    between atoms: O_2  and  C_3
REMARK    3  A    between atoms: C_6  and  C_7
REMARK    4  A    between atoms: C_8  and  C_9
REMARK    5  A    between atoms: N_11  and  C_12
REMARK    6  A    between atoms: C_15  and  N_16
REMARK    7  A    between atoms: N_16  and  C_17
REMARK    8  A    between atoms: N_16  and  C_18
REMARK    9  A    between atoms: C_23  and  C_24
REMARK   10  A    between atoms: C_28  and  O_29
REMARK   11  A    between atoms: C_31  and  O_32
REMARK                            x       y       z     vdW  Elec       q    Type
REMARK                         _______ _______ _______ _____ _____    ______ ____
ROOT
ATOM      1  C   UNL     1      -0.635  10.966  19.974  0.00  0.00    +0.000 A 
ATOM      2  C   UNL     1       0.650  10.356  20.202  0.00  0.00    +0.000 A 
ATOM      3  N   UNL     1       1.209  10.822  21.334  0.00  0.00    +0.000 NA
ATOM      4  O   UNL     1       0.271  11.655  21.899  0.00  0.00    +0.000 OA
ATOM      5  C   UNL     1      -0.835  11.745  21.106  0.00  0.00    +0.000 A 
ENDROOT
BRANCH   5   6
ATOM      6  C   UNL     1      -1.921  12.582  21.649  0.00  0.00    +0.000 A 
ATOM      7  C   UNL     1      -2.609  12.168  22.805  0.00  0.00    +0.000 A 
ATOM      8  C   UNL     1      -3.659  12.925  23.329  0.00  0.00    +0.000 A 
ATOM      9 CL   UNL     1      -4.526  12.339  24.699  0.00  0.00    +0.000 Cl
ATOM     10  C   UNL     1      -4.010  14.134  22.736  0.00  0.00    +0.000 A 
ATOM     11  C   UNL     1      -3.338  14.582  21.607  0.00  0.00    +0.000 A 
ATOM     12  C   UNL     1      -2.310  13.804  21.062  0.00  0.00    +0.000 A 
BRANCH  10  13
ATOM     13  O   UNL     1      -5.014  14.922  23.228  0.00  0.00    +0.000 OA
ATOM     14  H   UNL     1      -5.778  14.341  23.408  0.00  0.00    +0.000 HD
ENDBRANCH  10  13
BRANCH  12  15
ATOM     15  O   UNL     1      -1.696  14.243  19.920  0.00  0.00    +0.000 OA
ATOM     16  H   UNL     1      -1.779  15.210  19.855  0.00  0.00    +0.000 HD
ENDBRANCH  12  15
ENDBRANCH   5   6
BRANCH   1  20
ATOM     17  C   UNL     1      -3.247  10.674  16.570  0.00  0.00    +0.000 A 
ATOM     18  C   UNL     1      -3.284   9.715  17.574  0.00  0.00    +0.000 A 
ATOM     19  C   UNL     1      -2.489   9.852  18.715  0.00  0.00    +0.000 A 
ATOM     20  C   UNL     1      -1.551  10.882  18.830  0.00  0.00    +0.000 A 
ATOM     21  C   UNL     1      -1.501  11.825  17.790  0.00  0.00    +0.000 A 
ATOM     22  C   UNL     1      -2.367  11.745  16.688  0.00  0.00    +0.000 A 
BRANCH  17  24
ATOM     23  C   UNL     1      -3.423  10.137  14.280  0.00  0.00    +0.000 C 
ATOM     24  O   UNL     1      -4.073  10.434  15.509  0.00  0.00    +0.000 OA
ENDBRANCH  17  24
ENDBRANCH   1  20
BRANCH   2  25
ATOM     25  C   UNL     1       1.365   9.349  19.399  0.00  0.00    +0.000 C 
ATOM     26  O   UNL     1       1.722   9.595  18.255  0.00  0.00    +0.000 OA
ATOM     27  N   UNL     1       1.555   8.118  20.013  0.00  0.00    +0.000 N 
ATOM     28  H   UNL     1       1.058   7.973  20.885  0.00  0.00    +0.000 HD
BRANCH  27  29
ATOM     29  C   UNL     1       2.276   7.042  19.449  0.00  0.00    +0.000 A 
ATOM     30  C   UNL     1       3.045   7.162  18.296  0.00  0.00    +0.000 A 
ATOM     31  C   UNL     1       3.712   6.059  17.749  0.00  0.00    +0.000 A 
ATOM     32  C   UNL     1       3.679   4.791  18.337  0.00  0.00    +0.000 A 
ATOM     33  C   UNL     1       2.910   4.692  19.510  0.00  0.00    +0.000 A 
ATOM     34  C   UNL     1       2.226   5.795  20.065  0.00  0.00    +0.000 A 
BRANCH  32  35
ATOM     35  N   UNL     1       4.320   3.712  17.739  0.00  0.00    +0.000 N 
ATOM     36  C   UNL     1       3.810   2.351  17.934  0.00  0.00    +0.000 C 
ATOM     37  C   UNL     1       5.140   3.870  16.543  0.00  0.00    +0.000 C 
ENDBRANCH  32  35
ENDBRANCH  27  29
ENDBRANCH   2  25
TORSDOF 8
ENDMDL
MODEL 5
REMARK VINA RESULT:      -7.7      2.170      2.576
REMARK  Name = 
REMARK  11 active torsions:
REMARK  status: ('A' for Active; 'I' for Inactive)
REMARK    1  A    between atoms: C_1  and  O_2
REMARK    2  A    between atoms: O_2  and  C_3
REMARK    3  A    between atoms: C_6  and  C_7
REMARK    4  A    between atoms: C_8  and  C_9
REMARK    5  A    between atoms: N_11  and  C_12
REMARK    6  A    between atoms: C_15  and  N_16
REMARK    7  A    between atoms: N_16  and  C_17
REMARK    8  A    between atoms: N_16  and  C_18
REMARK    9  A    between atoms: C_23  and  C_24
REMARK   10  A    between atoms: C_28  and  O_29
REMARK   11  A    between atoms: C_31  and  O_32
REMARK                            x       y       z     vdW  Elec       q    Type
REMARK                         _______ _______ _______ _____ _____    ______ ____
ROOT
ATOM      1  C   UNL     1      -0.559  11.405  20.085  0.00  0.00    +0.000 A 
ATOM      2  C   UNL     1       0.344  10.533  20.793  0.00  0.00    +0.000 A 
ATOM      3  N   UNL     1       1.124  11.232  21.637  0.00  0.00    +0.000 NA
ATOM      4  O   UNL     1       0.681  12.534  21.565  0.00  0.00    +0.000 OA
ATOM      5  C   UNL     1      -0.325  12.651  20.652  0.00  0.00    +0.000 A 
ENDROOT
BRANCH   5   6
ATOM      6  C   UNL     1      -0.900  14.003  20.533  0.00  0.00    +0.000 A 
ATOM      7  C   UNL     1      -1.952  14.391  21.384  0.00  0.00    +0.000 A 
ATOM      8  C   UNL     1      -2.535  15.656  21.279  0.00  0.00    +0.000 A 
ATOM      9 CL   UNL     1      -3.875  16.059  22.286  0.00  0.00    +0.000 Cl
ATOM     10  C   UNL     1      -2.045  16.575  20.355  0.00  0.00    +0.000 A 
ATOM     11  C   UNL     1      -0.994  16.232  19.515  0.00  0.00    +0.000 A 
ATOM     12  C   UNL     1      -0.436  14.951  19.597  0.00  0.00    +0.000 A 
BRANCH  10  13
ATOM     13  O   UNL     1      -2.567  17.833  20.233  0.00  0.00    +0.000 OA
ATOM     14  H   UNL     1      -3.377  17.761  19.691  0.00  0.00    +0.000 HD
ENDBRANCH  10  13
BRANCH  12  15
ATOM     15  O   UNL     1       0.566  14.621  18.724  0.00  0.00    +0.000 OA
ATOM     16  H   UNL     1       0.837  15.410  18.224  0.00  0.00    +0.000 HD
ENDBRANCH  12  15
ENDBRANCH   5   6
BRANCH   1  20
ATOM     17  C   UNL     1      -3.264  10.701  16.817  0.00  0.00    +0.000 A 
ATOM     18  C   UNL     1      -2.002  10.121  16.827  0.00  0.00    +0.000 A 
ATOM     19  C   UNL     1      -1.153  10.290  17.926  0.00  0.00    +0.000 A 
ATOM     20  C   UNL     1      -1.493  11.136  18.986  0.00  0.00    +0.000 A 
ATOM     21  C   UNL     1      -2.759  11.743  18.944  0.00  0.00    +0.000 A 
ATOM     22  C   UNL     1      -3.653  11.498  17.889  0.00  0.00    +0.000 A 
BRANCH  17  24
ATOM     23  C   UNL     1      -3.257  10.151  14.523  0.00  0.00    +0.000 C 
ATOM     24  O   UNL     1      -4.003  10.460  15.694  0.00  0.00    +0.000 OA
ENDBRANCH  17  24
ENDBRANCH   1  20
BRANCH   2  25
ATOM     25  C   UNL     1       0.495   9.070  20.706  0.00  0.00    +0.000 C 
ATOM     26  O   UNL     1      -0.328   8.322  21.216  0.00  0.00    +0.000 OA
ATOM     27  N   UNL     1       1.638   8.624  20.057  0.00  0.00    +0.000 N 
ATOM     28  H   UNL     1       2.333   9.331  19.839  0.00  0.00    +0.000 HD
BRANCH  27  29
ATOM     29  C   UNL     1       1.940   7.268  19.801  0.00  0.00    +0.000 A 
ATOM     30  C   UNL     1       1.757   6.258  20.740  0.00  0.00    +0.000 A 
ATOM     31  C   UNL     1       2.108   4.931  20.458  0.00  0.00    +0.000 A 
ATOM     32  C   UNL     1       2.623   4.535  19.220  0.00  0.00    +0.000 A 
ATOM     33  C   UNL     1       2.787   5.567  18.279  0.00  0.00    +0.000 A 
ATOM     34  C   UNL     1       2.445   6.908  18.555  0.00  0.00    +0.000 A 
BRANCH  32  35
ATOM     35  N   UNL     1       2.998   3.216  18.994  0.00  0.00    +0.000 N 
ATOM     36  C   UNL     1       2.644   2.554  17.735  0.00  0.00    +0.000 C 
ATOM     37  C   UNL     1       4.134   2.610  19.681  0.00  0.00    +0.000 C 
ENDBRANCH  32  35
ENDBRANCH  27  29
ENDBRANCH   2  25
TORSDOF 8
ENDMDL
MODEL 6
REMARK VINA RESULT:      -7.6      1.030      1.285
REMARK  Name = 
REMARK  11 active torsions:
REMARK  status: ('A' for Active; 'I' for Inactive)
REMARK    1  A    between atoms: C_1  and  O_2
REMARK    2  A    between atoms: O_2  and  C_3
REMARK    3  A    between atoms: C_6  and  C_7
REMARK    4  A    between atoms: C_8  and  C_9
REMARK    5  A    between atoms: N_11  and  C_12
REMARK    6  A    between atoms: C_15  and  N_16
REMARK    7  A    between atoms: N_16  and  C_17
REMARK    8  A    between atoms: N_16  and  C_18
REMARK    9  A    between atoms: C_23  and  C_24
REMARK   10  A    between atoms: C_28  and  O_29
REMARK   11  A    between atoms: C_31  and  O_32
REMARK                            x       y       z     vdW  Elec       q    Type
REMARK                         _______ _______ _______ _____ _____    ______ ____
ROOT
ATOM      1  C   UNL     1      -0.476  10.664  21.058  0.00  0.00    +0.000 A 
ATOM      2  C   UNL     1       0.654   9.781  21.198  0.00  0.00    +0.000 A 
ATOM      3  N   UNL     1       1.252   9.952  22.391  0.00  0.00    +0.000 NA
ATOM      4  O   UNL     1       0.476  10.863  23.071  0.00  0.00    +0.000 OA
ATOM      5  C   UNL     1      -0.560  11.290  22.294  0.00  0.00    +0.000 A 
ENDROOT
BRANCH   5   6
ATOM      6  C   UNL     1      -1.478  12.237  22.952  0.00  0.00    +0.000 A 
ATOM      7  C   UNL     1      -2.718  11.783  23.440  0.00  0.00    +0.000 A 
ATOM      8  C   UNL     1      -3.621  12.660  24.044  0.00  0.00    +0.000 A 
ATOM      9 CL   UNL     1      -5.161  12.076  24.553  0.00  0.00    +0.000 Cl
ATOM     10  C   UNL     1      -3.282  13.999  24.218  0.00  0.00    +0.000 A 
ATOM     11  C   UNL     1      -2.058  14.476  23.767  0.00  0.00    +0.000 A 
ATOM     12  C   UNL     1      -1.170  13.603  23.129  0.00  0.00    +0.000 A 
BRANCH  10  13
ATOM     13  O   UNL     1      -4.122  14.890  24.826  0.00  0.00    +0.000 OA
ATOM     14  H   UNL     1      -4.305  14.552  25.723  0.00  0.00    +0.000 HD
ENDBRANCH  10  13
BRANCH  12  15
ATOM     15  O   UNL     1       0.009  14.108  22.650  0.00  0.00    +0.000 OA
ATOM     16  H   UNL     1       0.705  14.007  23.321  0.00  0.00    +0.000 HD
ENDBRANCH  12  15
ENDBRANCH   5   6
BRANCH   1  20
ATOM     17  C   UNL     1      -3.102  11.410  17.734  0.00  0.00    +0.000 A 
ATOM     18  C   UNL     1      -3.025  12.309  18.791  0.00  0.00    +0.000 A 
ATOM     19  C   UNL     1      -2.116  12.103  19.833  0.00  0.00    +0.000 A 
ATOM     20  C   UNL     1      -1.347  10.937  19.909  0.00  0.00    +0.000 A 
ATOM     21  C   UNL     1      -1.462  10.021  18.850  0.00  0.00    +0.000 A 
ATOM     22  C   UNL     1      -2.302  10.272  17.754  0.00  0.00    +0.000 A 
BRANCH  17  24
ATOM     23  C   UNL     1      -5.354  11.906  17.237  0.00  0.00    +0.000 C 
ATOM     24  O   UNL     1      -4.022  11.722  16.774  0.00  0.00    +0.000 OA
ENDBRANCH  17  24
ENDBRANCH   1  20
BRANCH   2  25
ATOM     25  C   UNL     1       1.185   8.782  20.254  0.00  0.00    +0.000 C 
ATOM     26  O   UNL     1       1.317   9.046  19.067  0.00  0.00    +0.000 OA
ATOM     27  N   UNL     1       1.473   7.538  20.799  0.00  0.00    +0.000 N 
ATOM     28  H   UNL     1       1.153   7.381  21.749  0.00  0.00    +0.000 HD
BRANCH  27  29
ATOM     29  C   UNL     1       2.056   6.465  20.088  0.00  0.00    +0.000 A 
ATOM     30  C   UNL     1       1.889   5.133  20.451  0.00  0.00    +0.000 A 
ATOM     31  C   UNL     1       2.519   4.102  19.743  0.00  0.00    +0.000 A 
ATOM     32  C   UNL     1       3.316   4.338  18.619  0.00  0.00    +0.000 A 
ATOM     33  C   UNL     1       3.462   5.689  18.258  0.00  0.00    +0.000 A 
ATOM     34  C   UNL     1       2.839   6.737  18.970  0.00  0.00    +0.000 A 
BRANCH  32  35
ATOM     35  N   UNL     1       3.958   3.291  17.968  0.00  0.00    +0.000 N 
ATOM     36  C   UNL     1       3.421   1.929  18.053  0.00  0.00    +0.000 C 
ATOM     37  C   UNL     1       4.818   3.516  16.811  0.00  0.00    +0.000 C 
ENDBRANCH  32  35
ENDBRANCH  27  29
ENDBRANCH   2  25
TORSDOF 8
ENDMDL
MODEL 7
REMARK VINA RESULT:      -7.6      2.022      2.348
REMARK  Name = 
REMARK  11 active torsions:
REMARK  status: ('A' for Active; 'I' for Inactive)
REMARK    1  A    between atoms: C_1  and  O_2
REMARK    2  A    between atoms: O_2  and  C_3
REMARK    3  A    between atoms: C_6  and  C_7
REMARK    4  A    between atoms: C_8  and  C_9
REMARK    5  A    between atoms: N_11  and  C_12
REMARK    6  A    between atoms: C_15  and  N_16
REMARK    7  A    between atoms: N_16  and  C_17
REMARK    8  A    between atoms: N_16  and  C_18
REMARK    9  A    between atoms: C_23  and  C_24
REMARK   10  A    between atoms: C_28  and  O_29
REMARK   11  A    between atoms: C_31  and  O_32
REMARK                            x       y       z     vdW  Elec       q    Type
REMARK                         _______ _______ _______ _____ _____    ______ ____
ROOT
ATOM      1  C   UNL     1      -0.691  11.297  20.231  0.00  0.00    +0.000 A 
ATOM      2  C   UNL     1       0.168  10.398  20.959  0.00  0.00    +0.000 A 
ATOM      3  N   UNL     1       0.838  11.052  21.926  0.00  0.00    +0.000 NA
ATOM      4  O   UNL     1       0.360  12.343  21.906  0.00  0.00    +0.000 OA
ATOM      5  C   UNL     1      -0.556  12.502  20.908  0.00  0.00    +0.000 A 
ENDROOT
BRANCH   5   6
ATOM      6  C   UNL     1      -1.162  13.844  20.832  0.00  0.00    +0.000 A 
ATOM      7  C   UNL     1      -2.193  14.195  21.723  0.00  0.00    +0.000 A 
ATOM      8  C   UNL     1      -2.806  15.448  21.659  0.00  0.00    +0.000 A 
ATOM      9 CL   UNL     1      -4.120  15.805  22.717  0.00  0.00    +0.000 Cl
ATOM     10  C   UNL     1      -2.366  16.393  20.737  0.00  0.00    +0.000 A 
ATOM     11  C   UNL     1      -1.336  16.087  19.858  0.00  0.00    +0.000 A 
ATOM     12  C   UNL     1      -0.748  14.818  19.898  0.00  0.00    +0.000 A 
BRANCH  10  13
ATOM     13  O   UNL     1      -2.917  17.642  20.654  0.00  0.00    +0.000 OA
ATOM     14  H   UNL     1      -2.981  17.869  19.707  0.00  0.00    +0.000 HD
ENDBRANCH  10  13
BRANCH  12  15
ATOM     15  O   UNL     1       0.231  14.523  18.988  0.00  0.00    +0.000 OA
ATOM     16  H   UNL     1      -0.035  13.751  18.460  0.00  0.00    +0.000 HD
ENDBRANCH  12  15
ENDBRANCH   5   6
BRANCH   1  20
ATOM     17  C   UNL     1      -3.113  10.602  16.746  0.00  0.00    +0.000 A 
ATOM     18  C   UNL     1      -3.550  11.453  17.753  0.00  0.00    +0.000 A 
ATOM     19  C   UNL     1      -2.729  11.737  18.848  0.00  0.00    +0.000 A 
ATOM     20  C   UNL     1      -1.504  11.088  19.027  0.00  0.00    +0.000 A 
ATOM     21  C   UNL     1      -1.091  10.203  18.017  0.00  0.00    +0.000 A 
ATOM     22  C   UNL     1      -1.869   9.991  16.868  0.00  0.00    +0.000 A 
BRANCH  17  24
ATOM     23  C   UNL     1      -3.422  10.154  14.451  0.00  0.00    +0.000 C 
ATOM     24  O   UNL     1      -3.999  10.408  15.725  0.00  0.00    +0.000 OA
ENDBRANCH  17  24
ENDBRANCH   1  20
BRANCH   2  25
ATOM     25  C   UNL     1       0.377   8.951  20.781  0.00  0.00    +0.000 C 
ATOM     26  O   UNL     1      -0.430   8.141  21.217  0.00  0.00    +0.000 OA
ATOM     27  N   UNL     1       1.552   8.591  20.137  0.00  0.00    +0.000 N 
ATOM     28  H   UNL     1       2.225   9.335  19.985  0.00  0.00    +0.000 HD
BRANCH  27  29
ATOM     29  C   UNL     1       1.912   7.266  19.801  0.00  0.00    +0.000 A 
ATOM     30  C   UNL     1       1.829   6.205  20.697  0.00  0.00    +0.000 A 
ATOM     31  C   UNL     1       2.235   4.914  20.335  0.00  0.00    +0.000 A 
ATOM     32  C   UNL     1       2.708   4.604  19.056  0.00  0.00    +0.000 A 
ATOM     33  C   UNL     1       2.770   5.685  18.159  0.00  0.00    +0.000 A 
ATOM     34  C   UNL     1       2.372   6.992  18.517  0.00  0.00    +0.000 A 
BRANCH  32  35
ATOM     35  N   UNL     1       3.140   3.320  18.749  0.00  0.00    +0.000 N 
ATOM     36  C   UNL     1       4.083   2.627  19.632  0.00  0.00    +0.000 C 
ATOM     37  C   UNL     1       2.354   2.425  17.905  0.00  0.00    +0.000 C 
ENDBRANCH  32  35
ENDBRANCH  27  29
ENDBRANCH   2  25
TORSDOF 8
ENDMDL
MODEL 8
REMARK VINA RESULT:      -7.5      1.976      2.380
REMARK  Name = 
REMARK  11 active torsions:
REMARK  status: ('A' for Active; 'I' for Inactive)
REMARK    1  A    between atoms: C_1  and  O_2
REMARK    2  A    between atoms: O_2  and  C_3
REMARK    3  A    between atoms: C_6  and  C_7
REMARK    4  A    between atoms: C_8  and  C_9
REMARK    5  A    between atoms: N_11  and  C_12
REMARK    6  A    between atoms: C_15  and  N_16
REMARK    7  A    between atoms: N_16  and  C_17
REMARK    8  A    between atoms: N_16  and  C_18
REMARK    9  A    between atoms: C_23  and  C_24
REMARK   10  A    between atoms: C_28  and  O_29
REMARK   11  A    between atoms: C_31  and  O_32
REMARK                            x       y       z     vdW  Elec       q    Type
REMARK                         _______ _______ _______ _____ _____    ______ ____
ROOT
ATOM      1  C   UNL     1      -1.063  11.022  21.034  0.00  0.00    +0.000 A 
ATOM      2  C   UNL     1      -0.282  10.018  21.712  0.00  0.00    +0.000 A 
ATOM      3  N   UNL     1       0.095  10.445  22.931  0.00  0.00    +0.000 NA
ATOM      4  O   UNL     1      -0.506  11.672  23.100  0.00  0.00    +0.000 OA
ATOM      5  C   UNL     1      -1.205  12.025  21.983  0.00  0.00    +0.000 A 
ENDROOT
BRANCH   5   6
ATOM      6  C   UNL     1      -1.924  13.308  22.083  0.00  0.00    +0.000 A 
ATOM      7  C   UNL     1      -1.343  14.476  21.556  0.00  0.00    +0.000 A 
ATOM      8  C   UNL     1      -1.987  15.711  21.657  0.00  0.00    +0.000 A 
ATOM      9 CL   UNL     1      -1.201  17.129  21.069  0.00  0.00    +0.000 Cl
ATOM     10  C   UNL     1      -3.247  15.795  22.243  0.00  0.00    +0.000 A 
ATOM     11  C   UNL     1      -3.858  14.658  22.754  0.00  0.00    +0.000 A 
ATOM     12  C   UNL     1      -3.195  13.427  22.684  0.00  0.00    +0.000 A 
BRANCH  10  13
ATOM     13  O   UNL     1      -3.927  16.977  22.343  0.00  0.00    +0.000 OA
ATOM     14  H   UNL     1      -4.122  17.278  21.434  0.00  0.00    +0.000 HD
ENDBRANCH  10  13
BRANCH  12  15
ATOM     15  O   UNL     1      -3.797  12.330  23.240  0.00  0.00    +0.000 OA
ATOM     16  H   UNL     1      -4.693  12.565  23.537  0.00  0.00    +0.000 HD
ENDBRANCH  12  15
ENDBRANCH   5   6
BRANCH   1  20
ATOM     17  C   UNL     1      -2.624  11.095  17.027  0.00  0.00    +0.000 A 
ATOM     18  C   UNL     1      -3.255  11.800  18.045  0.00  0.00    +0.000 A 
ATOM     19  C   UNL     1      -2.703  11.836  19.329  0.00  0.00    +0.000 A 
ATOM     20  C   UNL     1      -1.578  11.076  19.661  0.00  0.00    +0.000 A 
ATOM     21  C   UNL     1      -0.971  10.340  18.629  0.00  0.00    +0.000 A 
ATOM     22  C   UNL     1      -1.466  10.379  17.315  0.00  0.00    +0.000 A 
BRANCH  17  24
ATOM     23  C   UNL     1      -2.906  10.103  14.906  0.00  0.00    +0.000 C 
ATOM     24  O   UNL     1      -3.253  11.139  15.816  0.00  0.00    +0.000 OA
ENDBRANCH  17  24
ENDBRANCH   1  20
BRANCH   2  25
ATOM     25  C   UNL     1       0.116   8.675  21.257  0.00  0.00    +0.000 C 
ATOM     26  O   UNL     1      -0.599   7.704  21.462  0.00  0.00    +0.000 OA
ATOM     27  N   UNL     1       1.355   8.597  20.634  0.00  0.00    +0.000 N 
ATOM     28  H   UNL     1       1.934   9.429  20.684  0.00  0.00    +0.000 HD
BRANCH  27  29
ATOM     29  C   UNL     1       1.893   7.424  20.060  0.00  0.00    +0.000 A 
ATOM     30  C   UNL     1       1.944   6.205  20.728  0.00  0.00    +0.000 A 
ATOM     31  C   UNL     1       2.525   5.075  20.137  0.00  0.00    +0.000 A 
ATOM     32  C   UNL     1       3.050   5.089  18.841  0.00  0.00    +0.000 A 
ATOM     33  C   UNL     1       2.976   6.326  18.176  0.00  0.00    +0.000 A 
ATOM     34  C   UNL     1       2.402   7.473  18.766  0.00  0.00    +0.000 A 
BRANCH  32  35
ATOM     35  N   UNL     1       3.655   3.959  18.306  0.00  0.00    +0.000 N 
ATOM     36  C   UNL     1       3.256   2.623  18.759  0.00  0.00    +0.000 C 
ATOM     37  C   UNL     1       4.282   3.973  16.988  0.00  0.00    +0.000 C 
ENDBRANCH  32  35
ENDBRANCH  27  29
ENDBRANCH   2  25
TORSDOF 8
ENDMDL
MODEL 9
REMARK VINA RESULT:      -7.5      3.260      9.027
REMARK  Name = 
REMARK  11 active torsions:
REMARK  status: ('A' for Active; 'I' for Inactive)
REMARK    1  A    between atoms: C_1  and  O_2
REMARK    2  A    between atoms: O_2  and  C_3
REMARK    3  A    between atoms: C_6  and  C_7
REMARK    4  A    between atoms: C_8  and  C_9
REMARK    5  A    between atoms: N_11  and  C_12
REMARK    6  A    between atoms: C_15  and  N_16
REMARK    7  A    between atoms: N_16  and  C_17
REMARK    8  A    between atoms: N_16  and  C_18
REMARK    9  A    between atoms: C_23  and  C_24
REMARK   10  A    between atoms: C_28  and  O_29
REMARK   11  A    between atoms: C_31  and  O_32
REMARK                            x       y       z     vdW  Elec       q    Type
REMARK                         _______ _______ _______ _____ _____    ______ ____
ROOT
ATOM      1  C   UNL     1      -0.097  10.199  20.739  0.00  0.00    +0.000 A 
ATOM      2  C   UNL     1      -0.232  10.710  22.079  0.00  0.00    +0.000 A 
ATOM      3  N   UNL     1       0.535  10.013  22.938  0.00  0.00    +0.000 NA
ATOM      4  O   UNL     1       1.242   9.118  22.168  0.00  0.00    +0.000 OA
ATOM      5  C   UNL     1       0.883   9.222  20.856  0.00  0.00    +0.000 A 
ENDROOT
BRANCH   5   6
ATOM      6  C   UNL     1       1.620   8.332  19.940  0.00  0.00    +0.000 A 
ATOM      7  C   UNL     1       1.823   6.984  20.290  0.00  0.00    +0.000 A 
ATOM      8  C   UNL     1       2.539   6.123  19.457  0.00  0.00    +0.000 A 
ATOM      9 CL   UNL     1       2.833   4.501  19.963  0.00  0.00    +0.000 Cl
ATOM     10  C   UNL     1       3.024   6.579  18.234  0.00  0.00    +0.000 A 
ATOM     11  C   UNL     1       2.823   7.897  17.848  0.00  0.00    +0.000 A 
ATOM     12  C   UNL     1       2.137   8.769  18.702  0.00  0.00    +0.000 A 
BRANCH  10  13
ATOM     13  O   UNL     1       3.709   5.766  17.373  0.00  0.00    +0.000 OA
ATOM     14  H   UNL     1       4.662   5.906  17.537  0.00  0.00    +0.000 HD
ENDBRANCH  10  13
BRANCH  12  15
ATOM     15  O   UNL     1       1.995  10.076  18.321  0.00  0.00    +0.000 OA
ATOM     16  H   UNL     1       2.206  10.659  19.070  0.00  0.00    +0.000 HD
ENDBRANCH  12  15
ENDBRANCH   5   6
BRANCH   1  20
ATOM     17  C   UNL     1      -2.117  11.171  17.069  0.00  0.00    +0.000 A 
ATOM     18  C   UNL     1      -2.099   9.865  17.541  0.00  0.00    +0.000 A 
ATOM     19  C   UNL     1      -1.507   9.564  18.772  0.00  0.00    +0.000 A 
ATOM     20  C   UNL     1      -0.815  10.534  19.504  0.00  0.00    +0.000 A 
ATOM     21  C   UNL     1      -0.813  11.844  18.996  0.00  0.00    +0.000 A 
ATOM     22  C   UNL     1      -1.490  12.168  17.809  0.00  0.00    +0.000 A 
BRANCH  17  24
ATOM     23  C   UNL     1      -2.955  10.152  15.114  0.00  0.00    +0.000 C 
ATOM     24  O   UNL     1      -2.729  11.341  15.860  0.00  0.00    +0.000 OA
ENDBRANCH  17  24
ENDBRANCH   1  20
BRANCH   2  25
ATOM     25  C   UNL     1      -1.050  11.829  22.578  0.00  0.00    +0.000 C 
ATOM     26  O   UNL     1      -0.532  12.788  23.133  0.00  0.00    +0.000 OA
ATOM     27  N   UNL     1      -2.421  11.688  22.411  0.00  0.00    +0.000 N 
ATOM     28  H   UNL     1      -2.743  10.775  22.106  0.00  0.00    +0.000 HD
BRANCH  27  29
ATOM     29  C   UNL     1      -3.377  12.671  22.751  0.00  0.00    +0.000 A 
ATOM     30  C   UNL     1      -4.066  12.677  23.959  0.00  0.00    +0.000 A 
ATOM     31  C   UNL     1      -5.036  13.648  24.238  0.00  0.00    +0.000 A 
ATOM     32  C   UNL     1      -5.346  14.681  23.349  0.00  0.00    +0.000 A 
ATOM     33  C   UNL     1      -4.629  14.668  22.139  0.00  0.00    +0.000 A 
ATOM     34  C   UNL     1      -3.656  13.689  21.843  0.00  0.00    +0.000 A 
BRANCH  32  35
ATOM     35  N   UNL     1      -6.344  15.601  23.645  0.00  0.00    +0.000 N 
ATOM     36  C   UNL     1      -6.116  17.033  23.430  0.00  0.00    +0.000 C 
ATOM     37  C   UNL     1      -7.754  15.225  23.671  0.00  0.00    +0.000 C 
ENDBRANCH  32  35
ENDBRANCH  27  29
ENDBRANCH   2  25
TORSDOF 8
ENDMDL
