MODEL 1
REMARK VINA RESULT:      -6.7      0.000      0.000
REMARK  Name = 
REMARK  9 active torsions:
REMARK  status: ('A' for Active; 'I' for Inactive)
REMARK    1  A    between atoms: C_1  and  C_2
REMARK    2  A    between atoms: C_2  and  C_3
REMARK    3  A    between atoms: C_3  and  N_4
REMARK    4  A    between atoms: N_7  and  C_8
REMARK    5  A    between atoms: C_8  and  C_9
REMARK    6  A    between atoms: C_9  and  C_10
REMARK    7  A    between atoms: C_10  and  N_11
REMARK    8  A    between atoms: N_11  and  C_12
REMARK    9  A    between atoms: N_11  and  C_13
REMARK                            x       y       z     vdW  Elec       q    Type
REMARK                         _______ _______ _______ _____ _____    ______ ____
ROOT
ATOM      1  N   UNL     1       6.805   5.691  17.622  0.00  0.00    +0.000 N 
ATOM      2  C   UNL     1       5.900   5.303  18.621  0.00  0.00    +0.000 A 
ATOM      3  O   UNL     1       5.963   5.780  19.757  0.00  0.00    +0.000 OA
ATOM      4  N   UNL     1       4.913   4.355  18.268  0.00  0.00    +0.000 N 
ATOM      5  C   UNL     1       4.706   3.852  16.979  0.00  0.00    +0.000 A 
ATOM      6  O   UNL     1       3.805   3.085  16.655  0.00  0.00    +0.000 OA
ATOM      7  C   UNL     1       5.662   4.319  16.046  0.00  0.00    +0.000 A 
ATOM      8  N   UNL     1       5.797   4.056  14.714  0.00  0.00    +0.000 N 
ATOM      9  C   UNL     1       6.884   4.773  14.285  0.00  0.00    +0.000 A 
ATOM     10  N   UNL     1       7.436   5.459  15.262  0.00  0.00    +0.000 NA
ATOM     11  C   UNL     1       6.664   5.181  16.353  0.00  0.00    +0.000 A 
ATOM     12  H   UNL     1       5.202   3.455  14.159  0.00  0.00    +0.000 HD
ENDROOT
BRANCH   1  13
ATOM     13  C   UNL     1       7.881   6.622  17.944  0.00  0.00    +0.000 C 
BRANCH  13  15
ATOM     14  C   UNL     1       8.421   9.070  18.237  0.00  0.00    +0.000 C 
ATOM     15  C   UNL     1       7.547   8.053  17.519  0.00  0.00    +0.000 C 
ENDBRANCH  13  15
ENDBRANCH   1  13
BRANCH   4  16
ATOM     16  C   UNL     1       3.976   3.909  19.304  0.00  0.00    +0.000 C 
BRANCH  16  17
ATOM     17  C   UNL     1       2.695   4.754  19.329  0.00  0.00    +0.000 C 
BRANCH  17  18
ATOM     18  C   UNL     1       1.942   4.666  20.666  0.00  0.00    +0.000 C 
BRANCH  18  19
ATOM     19  N   UNL     1       1.023   3.521  20.790  0.00  0.00    +0.000 NA
ATOM     20  C   UNL     1       0.734   2.893  19.498  0.00  0.00    +0.000 C 
ATOM     21  C   UNL     1       1.584   2.521  21.704  0.00  0.00    +0.000 C 
ENDBRANCH  18  19
ENDBRANCH  17  18
ENDBRANCH  16  17
ENDBRANCH   4  16
TORSDOF 6
ENDMDL
MODEL 2
REMARK VINA RESULT:      -6.3      1.927      6.324
REMARK  Name = 
REMARK  9 active torsions:
REMARK  status: ('A' for Active; 'I' for Inactive)
REMARK    1  A    between atoms: C_1  and  C_2
REMARK    2  A    between atoms: C_2  and  C_3
REMARK    3  A    between atoms: C_3  and  N_4
REMARK    4  A    between atoms: N_7  and  C_8
REMARK    5  A    between atoms: C_8  and  C_9
REMARK    6  A    between atoms: C_9  and  C_10
REMARK    7  A    between atoms: C_10  and  N_11
REMARK    8  A    between atoms: N_11  and  C_12
REMARK    9  A    between atoms: N_11  and  C_13
REMARK                            x       y       z     vdW  Elec       q    Type
REMARK                         _______ _______ _______ _____ _____    ______ ____
ROOT
ATOM      1  N   UNL     1       2.922   4.159  19.548  0.00  0.00    +0.000 N 
ATOM      2  C   UNL     1       3.704   3.816  18.435  0.00  0.00    +0.000 A 
ATOM      3  O   UNL     1       4.000   2.640  18.202  0.00  0.00    +0.000 OA
ATOM      4  N   UNL     1       4.128   4.868  17.592  0.00  0.00    +0.000 N 
ATOM      5  C   UNL     1       3.746   6.208  17.724  0.00  0.00    +0.000 A 
ATOM      6  O   UNL     1       4.053   7.111  16.953  0.00  0.00    +0.000 OA
ATOM      7  C   UNL     1       2.945   6.441  18.868  0.00  0.00    +0.000 A 
ATOM      8  N   UNL     1       2.389   7.596  19.335  0.00  0.00    +0.000 N 
ATOM      9  C   UNL     1       1.702   7.263  20.474  0.00  0.00    +0.000 A 
ATOM     10  N   UNL     1       1.799   5.980  20.748  0.00  0.00    +0.000 NA
ATOM     11  C   UNL     1       2.564   5.473  19.739  0.00  0.00    +0.000 A 
ATOM     12  H   UNL     1       2.467   8.512  18.912  0.00  0.00    +0.000 HD
ENDROOT
BRANCH   1  13
ATOM     13  C   UNL     1       2.504   3.121  20.484  0.00  0.00    +0.000 C 
BRANCH  13  15
ATOM     14  C   UNL     1       0.646   2.387  18.942  0.00  0.00    +0.000 C 
ATOM     15  C   UNL     1       1.013   2.802  20.359  0.00  0.00    +0.000 C 
ENDBRANCH  13  15
ENDBRANCH   1  13
BRANCH   4  16
ATOM     16  C   UNL     1       4.975   4.539  16.442  0.00  0.00    +0.000 C 
BRANCH  16  17
ATOM     17  C   UNL     1       6.464   4.492  16.812  0.00  0.00    +0.000 C 
BRANCH  17  18
ATOM     18  C   UNL     1       7.213   5.786  16.455  0.00  0.00    +0.000 C 
BRANCH  18  19
ATOM     19  N   UNL     1       7.856   6.468  17.592  0.00  0.00    +0.000 NA
ATOM     20  C   UNL     1       7.616   7.914  17.587  0.00  0.00    +0.000 C 
ATOM     21  C   UNL     1       7.379   5.898  18.856  0.00  0.00    +0.000 C 
ENDBRANCH  18  19
ENDBRANCH  17  18
ENDBRANCH  16  17
ENDBRANCH   4  16
TORSDOF 6
ENDMDL
MODEL 3
REMARK VINA RESULT:      -6.3      1.400      2.063
REMARK  Name = 
REMARK  9 active torsions:
REMARK  status: ('A' for Active; 'I' for Inactive)
REMARK    1  A    between atoms: C_1  and  C_2
REMARK    2  A    between atoms: C_2  and  C_3
REMARK    3  A    between atoms: C_3  and  N_4
REMARK    4  A    between atoms: N_7  and  C_8
REMARK    5  A    between atoms: C_8  and  C_9
REMARK    6  A    between atoms: C_9  and  C_10
REMARK    7  A    between atoms: C_10  and  N_11
REMARK    8  A    between atoms: N_11  and  C_12
REMARK    9  A    between atoms: N_11  and  C_13
REMARK                            x       y       z     vdW  Elec       q    Type
REMARK                         _______ _______ _______ _____ _____    ______ ____
ROOT
ATOM      1  N   UNL     1       6.875   5.637  17.667  0.00  0.00    +0.000 N 
ATOM      2  C   UNL     1       6.022   5.190  18.687  0.00  0.00    +0.000 A 
ATOM      3  O   UNL     1       6.103   5.646  19.831  0.00  0.00    +0.000 OA
ATOM      4  N   UNL     1       5.064   4.208  18.347  0.00  0.00    +0.000 N 
ATOM      5  C   UNL     1       4.835   3.722  17.054  0.00  0.00    +0.000 A 
ATOM      6  O   UNL     1       3.957   2.924  16.743  0.00  0.00    +0.000 OA
ATOM      7  C   UNL     1       5.738   4.250  16.100  0.00  0.00    +0.000 A 
ATOM      8  N   UNL     1       5.839   4.019  14.759  0.00  0.00    +0.000 N 
ATOM      9  C   UNL     1       6.879   4.792  14.310  0.00  0.00    +0.000 A 
ATOM     10  N   UNL     1       7.435   5.481  15.283  0.00  0.00    +0.000 NA
ATOM     11  C   UNL     1       6.713   5.148  16.392  0.00  0.00    +0.000 A 
ATOM     12  H   UNL     1       5.251   3.405  14.212  0.00  0.00    +0.000 HD
ENDROOT
BRANCH   1  13
ATOM     13  C   UNL     1       7.921   6.608  17.974  0.00  0.00    +0.000 C 
BRANCH  13  15
ATOM     14  C   UNL     1       8.407   9.074  18.203  0.00  0.00    +0.000 C 
ATOM     15  C   UNL     1       7.537   8.022  17.532  0.00  0.00    +0.000 C 
ENDBRANCH  13  15
ENDBRANCH   1  13
BRANCH   4  16
ATOM     16  C   UNL     1       4.184   3.700  19.403  0.00  0.00    +0.000 C 
BRANCH  16  17
ATOM     17  C   UNL     1       3.140   4.739  19.836  0.00  0.00    +0.000 C 
BRANCH  17  18
ATOM     18  C   UNL     1       2.302   5.273  18.663  0.00  0.00    +0.000 C 
BRANCH  18  19
ATOM     19  N   UNL     1       2.203   6.742  18.586  0.00  0.00    +0.000 NA
ATOM     20  C   UNL     1       2.173   7.372  19.909  0.00  0.00    +0.000 C 
ATOM     21  C   UNL     1       3.326   7.282  17.813  0.00  0.00    +0.000 C 
ENDBRANCH  18  19
ENDBRANCH  17  18
ENDBRANCH  16  17
ENDBRANCH   4  16
TORSDOF 6
ENDMDL
MODEL 4
REMARK VINA RESULT:      -6.3      2.121      5.681
REMARK  Name = 
REMARK  9 active torsions:
REMARK  status: ('A' for Active; 'I' for Inactive)
REMARK    1  A    between atoms: C_1  and  C_2
REMARK    2  A    between atoms: C_2  and  C_3
REMARK    3  A    between atoms: C_3  and  N_4
REMARK    4  A    between atoms: N_7  and  C_8
REMARK    5  A    between atoms: C_8  and  C_9
REMARK    6  A    between atoms: C_9  and  C_10
REMARK    7  A    between atoms: C_10  and  N_11
REMARK    8  A    between atoms: N_11  and  C_12
REMARK    9  A    between atoms: N_11  and  C_13
REMARK                            x       y       z     vdW  Elec       q    Type
REMARK                         _______ _______ _______ _____ _____    ______ ____
ROOT
ATOM      1  N   UNL     1       2.771   6.111  18.774  0.00  0.00    +0.000 N 
ATOM      2  C   UNL     1       3.671   5.918  17.716  0.00  0.00    +0.000 A 
ATOM      3  O   UNL     1       4.197   6.877  17.144  0.00  0.00    +0.000 OA
ATOM      4  N   UNL     1       3.954   4.585  17.341  0.00  0.00    +0.000 N 
ATOM      5  C   UNL     1       3.487   3.446  18.007  0.00  0.00    +0.000 A 
ATOM      6  O   UNL     1       3.789   2.290  17.730  0.00  0.00    +0.000 OA
ATOM      7  C   UNL     1       2.602   3.754  19.068  0.00  0.00    +0.000 A 
ATOM      8  N   UNL     1       1.944   2.931  19.935  0.00  0.00    +0.000 N 
ATOM      9  C   UNL     1       1.224   3.745  20.772  0.00  0.00    +0.000 A 
ATOM     10  N   UNL     1       1.385   5.017  20.477  0.00  0.00    +0.000 NA
ATOM     11  C   UNL     1       2.253   5.016  19.424  0.00  0.00    +0.000 A 
ATOM     12  H   UNL     1       1.992   1.921  19.955  0.00  0.00    +0.000 HD
ENDROOT
BRANCH   1  13
ATOM     13  C   UNL     1       2.397   7.466  19.166  0.00  0.00    +0.000 C 
BRANCH  13  15
ATOM     14  C   UNL     1       1.972   9.616  17.913  0.00  0.00    +0.000 C 
ATOM     15  C   UNL     1       1.559   8.163  18.091  0.00  0.00    +0.000 C 
ENDBRANCH  13  15
ENDBRANCH   1  13
BRANCH   4  16
ATOM     16  C   UNL     1       4.866   4.358  16.215  0.00  0.00    +0.000 C 
BRANCH  16  17
ATOM     17  C   UNL     1       6.331   4.274  16.665  0.00  0.00    +0.000 C 
BRANCH  17  18
ATOM     18  C   UNL     1       7.125   5.556  16.368  0.00  0.00    +0.000 C 
BRANCH  18  19
ATOM     19  N   UNL     1       7.759   6.182  17.542  0.00  0.00    +0.000 NA
ATOM     20  C   UNL     1       7.599   7.639  17.554  0.00  0.00    +0.000 C 
ATOM     21  C   UNL     1       7.201   5.619  18.775  0.00  0.00    +0.000 C 
ENDBRANCH  18  19
ENDBRANCH  17  18
ENDBRANCH  16  17
ENDBRANCH   4  16
TORSDOF 6
ENDMDL
MODEL 5
REMARK VINA RESULT:      -6.3      0.748      1.014
REMARK  Name = 
REMARK  9 active torsions:
REMARK  status: ('A' for Active; 'I' for Inactive)
REMARK    1  A    between atoms: C_1  and  C_2
REMARK    2  A    between atoms: C_2  and  C_3
REMARK    3  A    between atoms: C_3  and  N_4
REMARK    4  A    between atoms: N_7  and  C_8
REMARK    5  A    between atoms: C_8  and  C_9
REMARK    6  A    between atoms: C_9  and  C_10
REMARK    7  A    between atoms: C_10  and  N_11
REMARK    8  A    between atoms: N_11  and  C_12
REMARK    9  A    between atoms: N_11  and  C_13
REMARK                            x       y       z     vdW  Elec       q    Type
REMARK                         _______ _______ _______ _____ _____    ______ ____
ROOT
ATOM      1  N   UNL     1       6.912   5.790  17.592  0.00  0.00    +0.000 N 
ATOM      2  C   UNL     1       6.031   5.403  18.612  0.00  0.00    +0.000 A 
ATOM      3  O   UNL     1       6.126   5.875  19.749  0.00  0.00    +0.000 OA
ATOM      4  N   UNL     1       5.030   4.462  18.281  0.00  0.00    +0.000 N 
ATOM      5  C   UNL     1       4.787   3.965  16.995  0.00  0.00    +0.000 A 
ATOM      6  O   UNL     1       3.875   3.204  16.691  0.00  0.00    +0.000 OA
ATOM      7  C   UNL     1       5.722   4.432  16.040  0.00  0.00    +0.000 A 
ATOM      8  N   UNL     1       5.822   4.173  14.704  0.00  0.00    +0.000 N 
ATOM      9  C   UNL     1       6.901   4.888  14.250  0.00  0.00    +0.000 A 
ATOM     10  N   UNL     1       7.481   5.566  15.216  0.00  0.00    +0.000 NA
ATOM     11  C   UNL     1       6.736   5.287  16.325  0.00  0.00    +0.000 A 
ATOM     12  H   UNL     1       5.209   3.578  14.162  0.00  0.00    +0.000 HD
ENDROOT
BRANCH   1  13
ATOM     13  C   UNL     1       8.001   6.715  17.891  0.00  0.00    +0.000 C 
BRANCH  13  15
ATOM     14  C   UNL     1       8.495   9.156  18.297  0.00  0.00    +0.000 C 
ATOM     15  C   UNL     1       7.643   8.158  17.529  0.00  0.00    +0.000 C 
ENDBRANCH  13  15
ENDBRANCH   1  13
BRANCH   4  16
ATOM     16  C   UNL     1       4.118   4.016  19.339  0.00  0.00    +0.000 C 
BRANCH  16  17
ATOM     17  C   UNL     1       4.240   2.511  19.612  0.00  0.00    +0.000 C 
BRANCH  17  18
ATOM     18  C   UNL     1       2.881   1.826  19.827  0.00  0.00    +0.000 C 
BRANCH  18  19
ATOM     19  N   UNL     1       1.724   2.737  19.866  0.00  0.00    +0.000 NA
ATOM     20  C   UNL     1       0.675   2.352  18.917  0.00  0.00    +0.000 C 
ATOM     21  C   UNL     1       1.164   2.783  21.220  0.00  0.00    +0.000 C 
ENDBRANCH  18  19
ENDBRANCH  17  18
ENDBRANCH  16  17
ENDBRANCH   4  16
TORSDOF 6
ENDMDL
MODEL 6
REMARK VINA RESULT:      -6.2      1.500      2.098
REMARK  Name = 
REMARK  9 active torsions:
REMARK  status: ('A' for Active; 'I' for Inactive)
REMARK    1  A    between atoms: C_1  and  C_2
REMARK    2  A    between atoms: C_2  and  C_3
REMARK    3  A    between atoms: C_3  and  N_4
REMARK    4  A    between atoms: N_7  and  C_8
REMARK    5  A    between atoms: C_8  and  C_9
REMARK    6  A    between atoms: C_9  and  C_10
REMARK    7  A    between atoms: C_10  and  N_11
REMARK    8  A    between atoms: N_11  and  C_12
REMARK    9  A    between atoms: N_11  and  C_13
REMARK                            x       y       z     vdW  Elec       q    Type
REMARK                         _______ _______ _______ _____ _____    ______ ____
ROOT
ATOM      1  N   UNL     1       6.646   4.729  17.847  0.00  0.00    +0.000 N 
ATOM      2  C   UNL     1       5.620   4.461  18.765  0.00  0.00    +0.000 A 
ATOM      3  O   UNL     1       5.775   4.669  19.972  0.00  0.00    +0.000 OA
ATOM      4  N   UNL     1       4.406   3.954  18.250  0.00  0.00    +0.000 N 
ATOM      5  C   UNL     1       4.113   3.796  16.890  0.00  0.00    +0.000 A 
ATOM      6  O   UNL     1       3.035   3.425  16.436  0.00  0.00    +0.000 OA
ATOM      7  C   UNL     1       5.209   4.110  16.051  0.00  0.00    +0.000 A 
ATOM      8  N   UNL     1       5.318   4.076  14.691  0.00  0.00    +0.000 N 
ATOM      9  C   UNL     1       6.592   4.487  14.394  0.00  0.00    +0.000 A 
ATOM     10  N   UNL     1       7.283   4.766  15.478  0.00  0.00    +0.000 NA
ATOM     11  C   UNL     1       6.413   4.541  16.505  0.00  0.00    +0.000 A 
ATOM     12  H   UNL     1       4.592   3.808  14.040  0.00  0.00    +0.000 HD
ENDROOT
BRANCH   1  13
ATOM     13  C   UNL     1       7.941   5.199  18.328  0.00  0.00    +0.000 C 
BRANCH  13  15
ATOM     14  C   UNL     1       7.691   7.599  17.588  0.00  0.00    +0.000 C 
ATOM     15  C   UNL     1       7.892   6.663  18.770  0.00  0.00    +0.000 C 
ENDBRANCH  13  15
ENDBRANCH   1  13
BRANCH   4  16
ATOM     16  C   UNL     1       3.330   3.634  19.193  0.00  0.00    +0.000 C 
BRANCH  16  17
ATOM     17  C   UNL     1       2.150   4.609  19.078  0.00  0.00    +0.000 C 
BRANCH  17  18
ATOM     18  C   UNL     1       2.135   5.668  20.192  0.00  0.00    +0.000 C 
BRANCH  18  19
ATOM     19  N   UNL     1       2.536   7.022  19.769  0.00  0.00    +0.000 NA
ATOM     20  C   UNL     1       2.532   7.178  18.312  0.00  0.00    +0.000 C 
ATOM     21  C   UNL     1       1.647   8.021  20.370  0.00  0.00    +0.000 C 
ENDBRANCH  18  19
ENDBRANCH  17  18
ENDBRANCH  16  17
ENDBRANCH   4  16
TORSDOF 6
ENDMDL
MODEL 7
REMARK VINA RESULT:      -6.1      2.196      6.146
REMARK  Name = 
REMARK  9 active torsions:
REMARK  status: ('A' for Active; 'I' for Inactive)
REMARK    1  A    between atoms: C_1  and  C_2
REMARK    2  A    between atoms: C_2  and  C_3
REMARK    3  A    between atoms: C_3  and  N_4
REMARK    4  A    between atoms: N_7  and  C_8
REMARK    5  A    between atoms: C_8  and  C_9
REMARK    6  A    between atoms: C_9  and  C_10
REMARK    7  A    between atoms: C_10  and  N_11
REMARK    8  A    between atoms: N_11  and  C_12
REMARK    9  A    between atoms: N_11  and  C_13
REMARK                            x       y       z     vdW  Elec       q    Type
REMARK                         _______ _______ _______ _____ _____    ______ ____
ROOT
ATOM      1  N   UNL     1       5.037   4.292  18.267  0.00  0.00    +0.000 N 
ATOM      2  C   UNL     1       4.701   4.207  16.908  0.00  0.00    +0.000 A 
ATOM      3  O   UNL     1       3.637   3.695  16.545  0.00  0.00    +0.000 OA
ATOM      4  N   UNL     1       5.623   4.737  15.977  0.00  0.00    +0.000 N 
ATOM      5  C   UNL     1       6.794   5.429  16.311  0.00  0.00    +0.000 A 
ATOM      6  O   UNL     1       7.559   5.953  15.508  0.00  0.00    +0.000 OA
ATOM      7  C   UNL     1       7.028   5.471  17.706  0.00  0.00    +0.000 A 
ATOM      8  N   UNL     1       8.049   6.039  18.412  0.00  0.00    +0.000 N 
ATOM      9  C   UNL     1       7.786   5.797  19.736  0.00  0.00    +0.000 A 
ATOM     10  N   UNL     1       6.675   5.112  19.899  0.00  0.00    +0.000 NA
ATOM     11  C   UNL     1       6.203   4.923  18.632  0.00  0.00    +0.000 A 
ATOM     12  H   UNL     1       8.835   6.544  18.025  0.00  0.00    +0.000 HD
ENDROOT
BRANCH   1  13
ATOM     13  C   UNL     1       4.149   3.709  19.268  0.00  0.00    +0.000 C 
BRANCH  13  15
ATOM     14  C   UNL     1       1.731   4.387  19.519  0.00  0.00    +0.000 C 
ATOM     15  C   UNL     1       3.175   4.741  19.840  0.00  0.00    +0.000 C 
ENDBRANCH  13  15
ENDBRANCH   1  13
BRANCH   4  16
ATOM     16  C   UNL     1       5.310   4.629  14.549  0.00  0.00    +0.000 C 
BRANCH  16  17
ATOM     17  C   UNL     1       6.054   3.466  13.879  0.00  0.00    +0.000 C 
BRANCH  17  18
ATOM     18  C   UNL     1       6.452   3.765  12.425  0.00  0.00    +0.000 C 
BRANCH  18  19
ATOM     19  N   UNL     1       5.720   2.991  11.407  0.00  0.00    +0.000 NA
ATOM     20  C   UNL     1       5.975   1.552  11.508  0.00  0.00    +0.000 C 
ATOM     21  C   UNL     1       4.281   3.242  11.522  0.00  0.00    +0.000 C 
ENDBRANCH  18  19
ENDBRANCH  17  18
ENDBRANCH  16  17
ENDBRANCH   4  16
TORSDOF 6
ENDMDL
MODEL 8
REMARK VINA RESULT:      -6.1      2.006      6.028
REMARK  Name = 
REMARK  9 active torsions:
REMARK  status: ('A' for Active; 'I' for Inactive)
REMARK    1  A    between atoms: C_1  and  C_2
REMARK    2  A    between atoms: C_2  and  C_3
REMARK    3  A    between atoms: C_3  and  N_4
REMARK    4  A    between atoms: N_7  and  C_8
REMARK    5  A    between atoms: C_8  and  C_9
REMARK    6  A    between atoms: C_9  and  C_10
REMARK    7  A    between atoms: C_10  and  N_11
REMARK    8  A    between atoms: N_11  and  C_12
REMARK    9  A    between atoms: N_11  and  C_13
REMARK                            x       y       z     vdW  Elec       q    Type
REMARK                         _______ _______ _______ _____ _____    ______ ____
ROOT
ATOM      1  N   UNL     1       3.143   4.335  19.249  0.00  0.00    +0.000 N 
ATOM      2  C   UNL     1       3.946   3.804  18.229  0.00  0.00    +0.000 A 
ATOM      3  O   UNL     1       4.194   2.596  18.177  0.00  0.00    +0.000 OA
ATOM      4  N   UNL     1       4.448   4.706  17.263  0.00  0.00    +0.000 N 
ATOM      5  C   UNL     1       4.124   6.065  17.188  0.00  0.00    +0.000 A 
ATOM      6  O   UNL     1       4.500   6.835  16.310  0.00  0.00    +0.000 OA
ATOM      7  C   UNL     1       3.297   6.493  18.254  0.00  0.00    +0.000 A 
ATOM      8  N   UNL     1       2.780   7.725  18.530  0.00  0.00    +0.000 N 
ATOM      9  C   UNL     1       2.039   7.588  19.675  0.00  0.00    +0.000 A 
ATOM     10  N   UNL     1       2.066   6.354  20.133  0.00  0.00    +0.000 NA
ATOM     11  C   UNL     1       2.841   5.676  19.237  0.00  0.00    +0.000 A 
ATOM     12  H   UNL     1       2.915   8.567  17.985  0.00  0.00    +0.000 HD
ENDROOT
BRANCH   1  13
ATOM     13  C   UNL     1       2.645   3.460  20.306  0.00  0.00    +0.000 C 
BRANCH  13  15
ATOM     14  C   UNL     1       0.808   2.481  18.879  0.00  0.00    +0.000 C 
ATOM     15  C   UNL     1       1.143   3.202  20.175  0.00  0.00    +0.000 C 
ENDBRANCH  13  15
ENDBRANCH   1  13
BRANCH   4  16
ATOM     16  C   UNL     1       5.317   4.180  16.206  0.00  0.00    +0.000 C 
BRANCH  16  17
ATOM     17  C   UNL     1       6.723   4.792  16.255  0.00  0.00    +0.000 C 
BRANCH  17  18
ATOM     18  C   UNL     1       7.405   4.625  17.622  0.00  0.00    +0.000 C 
BRANCH  18  19
ATOM     19  N   UNL     1       7.286   5.784  18.524  0.00  0.00    +0.000 NA
ATOM     20  C   UNL     1       8.097   5.636  19.736  0.00  0.00    +0.000 C 
ATOM     21  C   UNL     1       7.676   7.010  17.823  0.00  0.00    +0.000 C 
ENDBRANCH  18  19
ENDBRANCH  17  18
ENDBRANCH  16  17
ENDBRANCH   4  16
TORSDOF 6
ENDMDL
MODEL 9
REMARK VINA RESULT:      -6.0      1.714      3.581
REMARK  Name = 
REMARK  9 active torsions:
REMARK  status: ('A' for Active; 'I' for Inactive)
REMARK    1  A    between atoms: C_1  and  C_2
REMARK    2  A    between atoms: C_2  and  C_3
REMARK    3  A    between atoms: C_3  and  N_4
REMARK    4  A    between atoms: N_7  and  C_8
REMARK    5  A    between atoms: C_8  and  C_9
REMARK    6  A    between atoms: C_9  and  C_10
REMARK    7  A    between atoms: C_10  and  N_11
REMARK    8  A    between atoms: N_11  and  C_12
REMARK    9  A    between atoms: N_11  and  C_13
REMARK                            x       y       z     vdW  Elec       q    Type
REMARK                         _______ _______ _______ _____ _____    ______ ____
ROOT
ATOM      1  N   UNL     1       5.399   4.914  16.564  0.00  0.00    +0.000 N 
ATOM      2  C   UNL     1       4.418   3.926  16.738  0.00  0.00    +0.000 A 
ATOM      3  O   UNL     1       3.700   3.570  15.799  0.00  0.00    +0.000 OA
ATOM      4  N   UNL     1       4.296   3.353  18.024  0.00  0.00    +0.000 N 
ATOM      5  C   UNL     1       5.141   3.621  19.107  0.00  0.00    +0.000 A 
ATOM      6  O   UNL     1       5.083   3.072  20.203  0.00  0.00    +0.000 OA
ATOM      7  C   UNL     1       6.104   4.618  18.820  0.00  0.00    +0.000 A 
ATOM      8  N   UNL     1       7.084   5.150  19.606  0.00  0.00    +0.000 N 
ATOM      9  C   UNL     1       7.741   6.075  18.834  0.00  0.00    +0.000 A 
ATOM     10  N   UNL     1       7.229   6.157  17.625  0.00  0.00    +0.000 NA
ATOM     11  C   UNL     1       6.218   5.240  17.619  0.00  0.00    +0.000 A 
ATOM     12  H   UNL     1       7.285   4.898  20.564  0.00  0.00    +0.000 HD
ENDROOT
BRANCH   1  13
ATOM     13  C   UNL     1       5.531   5.582  15.274  0.00  0.00    +0.000 C 
BRANCH  13  15
ATOM     14  C   UNL     1       6.164   3.898  13.503  0.00  0.00    +0.000 C 
ATOM     15  C   UNL     1       6.666   4.990  14.436  0.00  0.00    +0.000 C 
ENDBRANCH  13  15
ENDBRANCH   1  13
BRANCH   4  16
ATOM     16  C   UNL     1       3.256   2.342  18.239  0.00  0.00    +0.000 C 
BRANCH  16  17
ATOM     17  C   UNL     1       2.139   2.848  19.161  0.00  0.00    +0.000 C 
BRANCH  17  18
ATOM     18  C   UNL     1       1.598   4.227  18.750  0.00  0.00    +0.000 C 
BRANCH  18  19
ATOM     19  N   UNL     1       1.719   5.275  19.778  0.00  0.00    +0.000 NA
ATOM     20  C   UNL     1       2.139   4.741  21.077  0.00  0.00    +0.000 C 
ATOM     21  C   UNL     1       2.671   6.301  19.342  0.00  0.00    +0.000 C 
ENDBRANCH  18  19
ENDBRANCH  17  18
ENDBRANCH  16  17
ENDBRANCH   4  16
TORSDOF 6
ENDMDL
