MODEL 1
REMARK VINA RESULT:      -7.2      0.000      0.000
REMARK  Name = 
REMARK  7 active torsions:
REMARK  status: ('A' for Active; 'I' for Inactive)
REMARK    1  A    between atoms: C_7  and  C_8
REMARK    2  A    between atoms: C_8  and  C_9
REMARK    3  A    between atoms: C_15  and  C_16
REMARK    4  A    between atoms: C_16  and  C_17
REMARK    5  A    between atoms: C_24  and  S_25
REMARK    6  A    between atoms: S_25  and  C_26
REMARK    7  A    between atoms: C_26  and  C_28
REMARK                            x       y       z     vdW  Elec       q    Type
REMARK                         _______ _______ _______ _____ _____    ______ ____
ROOT
ATOM      1  O   UNL     1      -0.116  13.195  20.400  0.00  0.00    +0.000 OA
ATOM      2  C   UNL     1       0.187  12.114  19.901  0.00  0.00    +0.000 C 
ATOM      3  C   UNL     1       1.395  12.033  19.045  0.00  0.00    +0.000 C 
ATOM      4  C   UNL     1       1.807  10.846  18.579  0.00  0.00    +0.000 C 
ATOM      5  C   UNL     1       1.074   9.550  18.808  0.00  0.00    +0.000 C 
ATOM      6  O   UNL     1       1.646   8.959  19.988  0.00  0.00    +0.000 OA
ATOM      7  C   UNL     1       2.053   7.628  19.650  0.00  0.00    +0.000 C 
ATOM      8  C   UNL     1       2.231   7.665  18.134  0.00  0.00    +0.000 C 
ATOM      9  O   UNL     1       1.310   8.679  17.698  0.00  0.00    +0.000 OA
ATOM     10  C   UNL     1      -0.452   9.824  19.042  0.00  0.00    +0.000 C 
ATOM     11  C   UNL     1      -0.587  10.847  20.183  0.00  0.00    +0.000 C 
ENDROOT
BRANCH   7  12
ATOM     12  C   UNL     1       0.997   6.584  20.060  0.00  0.00    +0.000 C 
BRANCH  12  13
ATOM     13  C   UNL     1       1.407   5.127  20.141  0.00  0.00    +0.000 A 
ATOM     14  C   UNL     1       2.078   4.558  21.229  0.00  0.00    +0.000 A 
ATOM     15  C   UNL     1       2.479   3.218  21.198  0.00  0.00    +0.000 A 
ATOM     16  C   UNL     1       2.204   2.424  20.086  0.00  0.00    +0.000 A 
ATOM     17  C   UNL     1       1.505   2.964  19.011  0.00  0.00    +0.000 A 
ATOM     18  C   UNL     1       1.106   4.301  19.041  0.00  0.00    +0.000 A 
ENDBRANCH  12  13
ENDBRANCH   7  12
BRANCH   8  19
ATOM     19  C   UNL     1       3.690   7.982  17.745  0.00  0.00    +0.000 C 
BRANCH  19  20
ATOM     20  C   UNL     1       4.503   6.753  17.403  0.00  0.00    +0.000 A 
ATOM     21  C   UNL     1       5.868   6.866  17.106  0.00  0.00    +0.000 A 
ATOM     22  C   UNL     1       6.623   5.739  16.775  0.00  0.00    +0.000 A 
ATOM     23  C   UNL     1       6.023   4.484  16.742  0.00  0.00    +0.000 A 
ATOM     24  C   UNL     1       4.668   4.355  17.042  0.00  0.00    +0.000 A 
ATOM     25  C   UNL     1       3.910   5.483  17.370  0.00  0.00    +0.000 A 
ENDBRANCH  19  20
ENDBRANCH   8  19
BRANCH  10  26
ATOM     26  S   UNL     1      -1.345  10.393  17.504  0.00  0.00    +0.000 S 
BRANCH  26  27
ATOM     27  C   UNL     1      -3.012  10.022  17.939  0.00  0.00    +0.000 C 
ATOM     28  O   UNL     1      -3.367   8.868  18.145  0.00  0.00    +0.000 OA
BRANCH  27  29
ATOM     29  C   UNL     1      -4.005  11.134  18.045  0.00  0.00    +0.000 A 
ATOM     30  C   UNL     1      -4.085  11.809  19.277  0.00  0.00    +0.000 A 
ATOM     31  C   UNL     1      -5.054  12.793  19.494  0.00  0.00    +0.000 A 
ATOM     32  C   UNL     1      -5.952  13.116  18.485  0.00  0.00    +0.000 A 
ATOM     33  C   UNL     1      -5.872  12.477  17.250  0.00  0.00    +0.000 A 
ATOM     34  C   UNL     1      -4.893  11.492  17.026  0.00  0.00    +0.000 A 
ENDBRANCH  27  29
ENDBRANCH  26  27
ENDBRANCH  10  26
TORSDOF 7
ENDMDL
MODEL 2
REMARK VINA RESULT:      -7.1      2.937      5.967
REMARK  Name = 
REMARK  7 active torsions:
REMARK  status: ('A' for Active; 'I' for Inactive)
REMARK    1  A    between atoms: C_7  and  C_8
REMARK    2  A    between atoms: C_8  and  C_9
REMARK    3  A    between atoms: C_15  and  C_16
REMARK    4  A    between atoms: C_16  and  C_17
REMARK    5  A    between atoms: C_24  and  S_25
REMARK    6  A    between atoms: S_25  and  C_26
REMARK    7  A    between atoms: C_26  and  C_28
REMARK                            x       y       z     vdW  Elec       q    Type
REMARK                         _______ _______ _______ _____ _____    ______ ____
ROOT
ATOM      1  O   UNL     1      -2.998  12.295  23.686  0.00  0.00    +0.000 OA
ATOM      2  C   UNL     1      -2.160  11.939  22.862  0.00  0.00    +0.000 C 
ATOM      3  C   UNL     1      -1.168  10.907  23.247  0.00  0.00    +0.000 C 
ATOM      4  C   UNL     1      -0.314  10.424  22.334  0.00  0.00    +0.000 C 
ATOM      5  C   UNL     1      -0.236  10.913  20.911  0.00  0.00    +0.000 C 
ATOM      6  O   UNL     1      -1.096  10.060  20.137  0.00  0.00    +0.000 OA
ATOM      7  C   UNL     1      -0.320   9.537  19.051  0.00  0.00    +0.000 C 
ATOM      8  C   UNL     1       1.123   9.645  19.537  0.00  0.00    +0.000 C 
ATOM      9  O   UNL     1       1.106  10.763  20.440  0.00  0.00    +0.000 OA
ATOM     10  C   UNL     1      -0.742  12.394  20.818  0.00  0.00    +0.000 C 
ATOM     11  C   UNL     1      -2.146  12.463  21.443  0.00  0.00    +0.000 C 
ENDROOT
BRANCH   7  12
ATOM     12  C   UNL     1      -0.532  10.344  17.756  0.00  0.00    +0.000 C 
BRANCH  12  13
ATOM     13  C   UNL     1      -1.946  10.558  17.254  0.00  0.00    +0.000 A 
ATOM     14  C   UNL     1      -2.402  10.161  15.991  0.00  0.00    +0.000 A 
ATOM     15  C   UNL     1      -3.707  10.455  15.581  0.00  0.00    +0.000 A 
ATOM     16  C   UNL     1      -4.579  11.136  16.428  0.00  0.00    +0.000 A 
ATOM     17  C   UNL     1      -4.153  11.505  17.701  0.00  0.00    +0.000 A 
ATOM     18  C   UNL     1      -2.851  11.213  18.110  0.00  0.00    +0.000 A 
ENDBRANCH  12  13
ENDBRANCH   7  12
BRANCH   8  19
ATOM     19  C   UNL     1       1.588   8.340  20.216  0.00  0.00    +0.000 C 
BRANCH  19  20
ATOM     20  C   UNL     1       2.340   7.412  19.288  0.00  0.00    +0.000 A 
ATOM     21  C   UNL     1       2.431   6.043  19.576  0.00  0.00    +0.000 A 
ATOM     22  C   UNL     1       3.134   5.181  18.733  0.00  0.00    +0.000 A 
ATOM     23  C   UNL     1       3.752   5.676  17.589  0.00  0.00    +0.000 A 
ATOM     24  C   UNL     1       3.664   7.034  17.286  0.00  0.00    +0.000 A 
ATOM     25  C   UNL     1       2.963   7.899  18.131  0.00  0.00    +0.000 A 
ENDBRANCH  19  20
ENDBRANCH   8  19
BRANCH  10  26
ATOM     26  S   UNL     1       0.419  13.623  21.611  0.00  0.00    +0.000 S 
BRANCH  26  27
ATOM     27  C   UNL     1       0.830  14.626  20.222  0.00  0.00    +0.000 C 
ATOM     28  O   UNL     1       1.792  14.357  19.514  0.00  0.00    +0.000 OA
BRANCH  27  29
ATOM     29  C   UNL     1      -0.003  15.829  19.916  0.00  0.00    +0.000 A 
ATOM     30  C   UNL     1      -0.178  16.161  18.560  0.00  0.00    +0.000 A 
ATOM     31  C   UNL     1      -0.858  17.325  18.189  0.00  0.00    +0.000 A 
ATOM     32  C   UNL     1      -1.373  18.169  19.166  0.00  0.00    +0.000 A 
ATOM     33  C   UNL     1      -1.232  17.843  20.512  0.00  0.00    +0.000 A 
ATOM     34  C   UNL     1      -0.555  16.668  20.888  0.00  0.00    +0.000 A 
ENDBRANCH  27  29
ENDBRANCH  26  27
ENDBRANCH  10  26
TORSDOF 7
ENDMDL
MODEL 3
REMARK VINA RESULT:      -7.0      2.598      9.350
REMARK  Name = 
REMARK  7 active torsions:
REMARK  status: ('A' for Active; 'I' for Inactive)
REMARK    1  A    between atoms: C_7  and  C_8
REMARK    2  A    between atoms: C_8  and  C_9
REMARK    3  A    between atoms: C_15  and  C_16
REMARK    4  A    between atoms: C_16  and  C_17
REMARK    5  A    between atoms: C_24  and  S_25
REMARK    6  A    between atoms: S_25  and  C_26
REMARK    7  A    between atoms: C_26  and  C_28
REMARK                            x       y       z     vdW  Elec       q    Type
REMARK                         _______ _______ _______ _____ _____    ______ ____
ROOT
ATOM      1  O   UNL     1       2.177  13.912  18.215  0.00  0.00    +0.000 OA
ATOM      2  C   UNL     1       1.211  13.550  18.880  0.00  0.00    +0.000 C 
ATOM      3  C   UNL     1       0.764  14.392  20.014  0.00  0.00    +0.000 C 
ATOM      4  C   UNL     1      -0.352  14.075  20.686  0.00  0.00    +0.000 C 
ATOM      5  C   UNL     1      -1.180  12.847  20.412  0.00  0.00    +0.000 C 
ATOM      6  O   UNL     1      -2.200  13.240  19.478  0.00  0.00    +0.000 OA
ATOM      7  C   UNL     1      -3.465  12.868  20.040  0.00  0.00    +0.000 C 
ATOM      8  C   UNL     1      -3.196  12.782  21.540  0.00  0.00    +0.000 C 
ATOM      9  O   UNL     1      -1.806  12.427  21.628  0.00  0.00    +0.000 OA
ATOM     10  C   UNL     1      -0.289  11.723  19.777  0.00  0.00    +0.000 C 
ATOM     11  C   UNL     1       0.416  12.309  18.542  0.00  0.00    +0.000 C 
ENDROOT
BRANCH   7  12
ATOM     12  C   UNL     1      -3.964  11.520  19.486  0.00  0.00    +0.000 C 
BRANCH  12  13
ATOM     13  C   UNL     1      -3.526  11.096  18.098  0.00  0.00    +0.000 A 
ATOM     14  C   UNL     1      -4.105  11.565  16.913  0.00  0.00    +0.000 A 
ATOM     15  C   UNL     1      -3.685  11.074  15.672  0.00  0.00    +0.000 A 
ATOM     16  C   UNL     1      -2.672  10.119  15.596  0.00  0.00    +0.000 A 
ATOM     17  C   UNL     1      -2.061   9.669  16.763  0.00  0.00    +0.000 A 
ATOM     18  C   UNL     1      -2.481  10.159  18.001  0.00  0.00    +0.000 A 
ENDBRANCH  12  13
ENDBRANCH   7  12
BRANCH   8  19
ATOM     19  C   UNL     1      -3.515  14.115  22.248  0.00  0.00    +0.000 C 
BRANCH  19  20
ATOM     20  C   UNL     1      -4.900  14.160  22.855  0.00  0.00    +0.000 A 
ATOM     21  C   UNL     1      -5.665  15.332  22.786  0.00  0.00    +0.000 A 
ATOM     22  C   UNL     1      -6.939  15.388  23.355  0.00  0.00    +0.000 A 
ATOM     23  C   UNL     1      -7.464  14.271  23.997  0.00  0.00    +0.000 A 
ATOM     24  C   UNL     1      -6.718  13.096  24.066  0.00  0.00    +0.000 A 
ATOM     25  C   UNL     1      -5.441  13.040  23.500  0.00  0.00    +0.000 A 
ENDBRANCH  19  20
ENDBRANCH   8  19
BRANCH  10  26
ATOM     26  S   UNL     1       0.937  10.985  20.977  0.00  0.00    +0.000 S 
BRANCH  26  27
ATOM     27  C   UNL     1       0.577   9.269  20.796  0.00  0.00    +0.000 C 
ATOM     28  O   UNL     1      -0.377   8.762  21.372  0.00  0.00    +0.000 OA
BRANCH  27  29
ATOM     29  C   UNL     1       1.461   8.424  19.936  0.00  0.00    +0.000 A 
ATOM     30  C   UNL     1       1.754   8.906  18.647  0.00  0.00    +0.000 A 
ATOM     31  C   UNL     1       2.489   8.133  17.742  0.00  0.00    +0.000 A 
ATOM     32  C   UNL     1       2.941   6.873  18.114  0.00  0.00    +0.000 A 
ATOM     33  C   UNL     1       2.683   6.390  19.394  0.00  0.00    +0.000 A 
ATOM     34  C   UNL     1       1.950   7.169  20.309  0.00  0.00    +0.000 A 
ENDBRANCH  27  29
ENDBRANCH  26  27
ENDBRANCH  10  26
TORSDOF 7
ENDMDL
MODEL 4
REMARK VINA RESULT:      -7.0      2.446      5.589
REMARK  Name = 
REMARK  7 active torsions:
REMARK  status: ('A' for Active; 'I' for Inactive)
REMARK    1  A    between atoms: C_7  and  C_8
REMARK    2  A    between atoms: C_8  and  C_9
REMARK    3  A    between atoms: C_15  and  C_16
REMARK    4  A    between atoms: C_16  and  C_17
REMARK    5  A    between atoms: C_24  and  S_25
REMARK    6  A    between atoms: S_25  and  C_26
REMARK    7  A    between atoms: C_26  and  C_28
REMARK                            x       y       z     vdW  Elec       q    Type
REMARK                         _______ _______ _______ _____ _____    ______ ____
ROOT
ATOM      1  O   UNL     1      -0.212  13.917  17.526  0.00  0.00    +0.000 OA
ATOM      2  C   UNL     1      -0.298  12.938  18.262  0.00  0.00    +0.000 C 
ATOM      3  C   UNL     1       0.774  11.916  18.225  0.00  0.00    +0.000 C 
ATOM      4  C   UNL     1       0.759  10.896  19.095  0.00  0.00    +0.000 C 
ATOM      5  C   UNL     1      -0.341  10.661  20.097  0.00  0.00    +0.000 C 
ATOM      6  O   UNL     1       0.068  11.312  21.313  0.00  0.00    +0.000 OA
ATOM      7  C   UNL     1       0.008  10.339  22.364  0.00  0.00    +0.000 C 
ATOM      8  C   UNL     1       0.112   9.000  21.640  0.00  0.00    +0.000 C 
ATOM      9  O   UNL     1      -0.453   9.256  20.344  0.00  0.00    +0.000 OA
ATOM     10  C   UNL     1      -1.683  11.291  19.589  0.00  0.00    +0.000 C 
ATOM     11  C   UNL     1      -1.425  12.771  19.257  0.00  0.00    +0.000 C 
ENDROOT
BRANCH   7  12
ATOM     12  C   UNL     1      -1.307  10.439  23.161  0.00  0.00    +0.000 C 
BRANCH  12  13
ATOM     13  C   UNL     1      -1.966  11.795  23.311  0.00  0.00    +0.000 A 
ATOM     14  C   UNL     1      -3.324  11.983  23.598  0.00  0.00    +0.000 A 
ATOM     15  C   UNL     1      -3.868  13.271  23.655  0.00  0.00    +0.000 A 
ATOM     16  C   UNL     1      -3.064  14.389  23.441  0.00  0.00    +0.000 A 
ATOM     17  C   UNL     1      -1.705  14.221  23.191  0.00  0.00    +0.000 A 
ATOM     18  C   UNL     1      -1.162  12.936  23.132  0.00  0.00    +0.000 A 
ENDBRANCH  12  13
ENDBRANCH   7  12
BRANCH   8  19
ATOM     19  C   UNL     1       1.574   8.513  21.564  0.00  0.00    +0.000 C 
BRANCH  19  20
ATOM     20  C   UNL     1       1.790   7.409  20.552  0.00  0.00    +0.000 A 
ATOM     21  C   UNL     1       1.533   6.074  20.894  0.00  0.00    +0.000 A 
ATOM     22  C   UNL     1       1.743   5.047  19.972  0.00  0.00    +0.000 A 
ATOM     23  C   UNL     1       2.208   5.342  18.695  0.00  0.00    +0.000 A 
ATOM     24  C   UNL     1       2.461   6.665  18.338  0.00  0.00    +0.000 A 
ATOM     25  C   UNL     1       2.255   7.694  19.261  0.00  0.00    +0.000 A 
ENDBRANCH  19  20
ENDBRANCH   8  19
BRANCH  10  26
ATOM     26  S   UNL     1      -2.421  10.383  18.133  0.00  0.00    +0.000 S 
BRANCH  26  27
ATOM     27  C   UNL     1      -3.861  11.355  17.838  0.00  0.00    +0.000 C 
ATOM     28  O   UNL     1      -4.005  11.961  16.783  0.00  0.00    +0.000 OA
BRANCH  27  29
ATOM     29  C   UNL     1      -4.911  11.448  18.898  0.00  0.00    +0.000 A 
ATOM     30  C   UNL     1      -5.979  10.536  18.824  0.00  0.00    +0.000 A 
ATOM     31  C   UNL     1      -7.054  10.618  19.715  0.00  0.00    +0.000 A 
ATOM     32  C   UNL     1      -7.073  11.609  20.689  0.00  0.00    +0.000 A 
ATOM     33  C   UNL     1      -6.012  12.503  20.794  0.00  0.00    +0.000 A 
ATOM     34  C   UNL     1      -4.925  12.419  19.903  0.00  0.00    +0.000 A 
ENDBRANCH  27  29
ENDBRANCH  26  27
ENDBRANCH  10  26
TORSDOF 7
ENDMDL
MODEL 5
REMARK VINA RESULT:      -7.0      3.922      9.429
REMARK  Name = 
REMARK  7 active torsions:
REMARK  status: ('A' for Active; 'I' for Inactive)
REMARK    1  A    between atoms: C_7  and  C_8
REMARK    2  A    between atoms: C_8  and  C_9
REMARK    3  A    between atoms: C_15  and  C_16
REMARK    4  A    between atoms: C_16  and  C_17
REMARK    5  A    between atoms: C_24  and  S_25
REMARK    6  A    between atoms: S_25  and  C_26
REMARK    7  A    between atoms: C_26  and  C_28
REMARK                            x       y       z     vdW  Elec       q    Type
REMARK                         _______ _______ _______ _____ _____    ______ ____
ROOT
ATOM      1  O   UNL     1      -1.200   9.932  23.069  0.00  0.00    +0.000 OA
ATOM      2  C   UNL     1      -0.670  10.734  22.304  0.00  0.00    +0.000 C 
ATOM      3  C   UNL     1      -1.457  11.894  21.823  0.00  0.00    +0.000 C 
ATOM      4  C   UNL     1      -0.869  12.839  21.076  0.00  0.00    +0.000 C 
ATOM      5  C   UNL     1       0.564  12.778  20.615  0.00  0.00    +0.000 C 
ATOM      6  O   UNL     1       1.341  13.481  21.600  0.00  0.00    +0.000 OA
ATOM      7  C   UNL     1       2.104  14.481  20.913  0.00  0.00    +0.000 C 
ATOM      8  C   UNL     1       1.330  14.719  19.619  0.00  0.00    +0.000 C 
ATOM      9  O   UNL     1       0.679  13.463  19.364  0.00  0.00    +0.000 OA
ATOM     10  C   UNL     1       1.044  11.288  20.530  0.00  0.00    +0.000 C 
ATOM     11  C   UNL     1       0.780  10.620  21.891  0.00  0.00    +0.000 C 
ENDROOT
BRANCH   7  12
ATOM     12  C   UNL     1       3.541  14.006  20.622  0.00  0.00    +0.000 C 
BRANCH  12  13
ATOM     13  C   UNL     1       4.517  14.981  19.995  0.00  0.00    +0.000 A 
ATOM     14  C   UNL     1       4.944  16.168  20.603  0.00  0.00    +0.000 A 
ATOM     15  C   UNL     1       5.798  17.047  19.927  0.00  0.00    +0.000 A 
ATOM     16  C   UNL     1       6.247  16.748  18.642  0.00  0.00    +0.000 A 
ATOM     17  C   UNL     1       5.862  15.555  18.038  0.00  0.00    +0.000 A 
ATOM     18  C   UNL     1       5.008  14.679  18.711  0.00  0.00    +0.000 A 
ENDBRANCH  12  13
ENDBRANCH   7  12
BRANCH   8  19
ATOM     19  C   UNL     1       0.332  15.886  19.765  0.00  0.00    +0.000 C 
BRANCH  19  20
ATOM     20  C   UNL     1       0.359  16.852  18.601  0.00  0.00    +0.000 A 
ATOM     21  C   UNL     1      -0.819  17.480  18.174  0.00  0.00    +0.000 A 
ATOM     22  C   UNL     1      -0.806  18.362  17.093  0.00  0.00    +0.000 A 
ATOM     23  C   UNL     1       0.385  18.630  16.426  0.00  0.00    +0.000 A 
ATOM     24  C   UNL     1       1.566  18.018  16.843  0.00  0.00    +0.000 A 
ATOM     25  C   UNL     1       1.554  17.132  17.925  0.00  0.00    +0.000 A 
ENDBRANCH  19  20
ENDBRANCH   8  19
BRANCH  10  26
ATOM     26  S   UNL     1       0.250  10.334  19.135  0.00  0.00    +0.000 S 
BRANCH  26  27
ATOM     27  C   UNL     1       1.664   9.555  18.427  0.00  0.00    +0.000 C 
ATOM     28  O   UNL     1       2.299  10.099  17.532  0.00  0.00    +0.000 OA
BRANCH  27  29
ATOM     29  C   UNL     1       2.081   8.208  18.922  0.00  0.00    +0.000 A 
ATOM     30  C   UNL     1       2.863   7.420  18.058  0.00  0.00    +0.000 A 
ATOM     31  C   UNL     1       3.212   6.110  18.399  0.00  0.00    +0.000 A 
ATOM     32  C   UNL     1       2.785   5.573  19.608  0.00  0.00    +0.000 A 
ATOM     33  C   UNL     1       2.032   6.346  20.488  0.00  0.00    +0.000 A 
ATOM     34  C   UNL     1       1.687   7.667  20.149  0.00  0.00    +0.000 A 
ENDBRANCH  27  29
ENDBRANCH  26  27
ENDBRANCH  10  26
TORSDOF 7
ENDMDL
MODEL 6
REMARK VINA RESULT:      -6.9      2.308      4.887
REMARK  Name = 
REMARK  7 active torsions:
REMARK  status: ('A' for Active; 'I' for Inactive)
REMARK    1  A    between atoms: C_7  and  C_8
REMARK    2  A    between atoms: C_8  and  C_9
REMARK    3  A    between atoms: C_15  and  C_16
REMARK    4  A    between atoms: C_16  and  C_17
REMARK    5  A    between atoms: C_24  and  S_25
REMARK    6  A    between atoms: S_25  and  C_26
REMARK    7  A    between atoms: C_26  and  C_28
REMARK                            x       y       z     vdW  Elec       q    Type
REMARK                         _______ _______ _______ _____ _____    ______ ____
ROOT
ATOM      1  O   UNL     1      -1.694  12.133  17.927  0.00  0.00    +0.000 OA
ATOM      2  C   UNL     1      -0.856  11.364  18.390  0.00  0.00    +0.000 C 
ATOM      3  C   UNL     1      -1.268  10.399  19.437  0.00  0.00    +0.000 C 
ATOM      4  C   UNL     1      -0.400   9.478  19.879  0.00  0.00    +0.000 C 
ATOM      5  C   UNL     1       1.035   9.388  19.428  0.00  0.00    +0.000 C 
ATOM      6  O   UNL     1       1.061   8.464  18.327  0.00  0.00    +0.000 OA
ATOM      7  C   UNL     1       2.034   7.457  18.632  0.00  0.00    +0.000 C 
ATOM      8  C   UNL     1       2.147   7.496  20.154  0.00  0.00    +0.000 C 
ATOM      9  O   UNL     1       1.825   8.854  20.495  0.00  0.00    +0.000 OA
ATOM     10  C   UNL     1       1.543  10.792  18.950  0.00  0.00    +0.000 C 
ATOM     11  C   UNL     1       0.568  11.318  17.882  0.00  0.00    +0.000 C 
ENDROOT
BRANCH   7  12
ATOM     12  C   UNL     1       3.392   7.752  17.966  0.00  0.00    +0.000 C 
BRANCH  12  13
ATOM     13  C   UNL     1       4.128   6.618  17.282  0.00  0.00    +0.000 A 
ATOM     14  C   UNL     1       4.923   6.771  16.140  0.00  0.00    +0.000 A 
ATOM     15  C   UNL     1       5.517   5.660  15.531  0.00  0.00    +0.000 A 
ATOM     16  C   UNL     1       5.338   4.384  16.060  0.00  0.00    +0.000 A 
ATOM     17  C   UNL     1       4.581   4.218  17.217  0.00  0.00    +0.000 A 
ATOM     18  C   UNL     1       3.987   5.326  17.823  0.00  0.00    +0.000 A 
ENDBRANCH  12  13
ENDBRANCH   7  12
BRANCH   8  19
ATOM     19  C   UNL     1       1.198   6.476  20.816  0.00  0.00    +0.000 C 
BRANCH  19  20
ATOM     20  C   UNL     1       1.542   5.038  20.500  0.00  0.00    +0.000 A 
ATOM     21  C   UNL     1       0.996   4.410  19.372  0.00  0.00    +0.000 A 
ATOM     22  C   UNL     1       1.297   3.079  19.079  0.00  0.00    +0.000 A 
ATOM     23  C   UNL     1       2.151   2.359  19.909  0.00  0.00    +0.000 A 
ATOM     24  C   UNL     1       2.707   2.972  21.030  0.00  0.00    +0.000 A 
ATOM     25  C   UNL     1       2.404   4.304  21.327  0.00  0.00    +0.000 A 
ENDBRANCH  19  20
ENDBRANCH   8  19
BRANCH  10  26
ATOM     26  S   UNL     1       1.754  12.017  20.345  0.00  0.00    +0.000 S 
BRANCH  26  27
ATOM     27  C   UNL     1       2.123  13.482  19.439  0.00  0.00    +0.000 C 
ATOM     28  O   UNL     1       3.175  13.593  18.822  0.00  0.00    +0.000 OA
BRANCH  27  29
ATOM     29  C   UNL     1       1.139  14.608  19.437  0.00  0.00    +0.000 A 
ATOM     30  C   UNL     1       1.523  15.795  18.788  0.00  0.00    +0.000 A 
ATOM     31  C   UNL     1       0.706  16.930  18.826  0.00  0.00    +0.000 A 
ATOM     32  C   UNL     1      -0.504  16.890  19.508  0.00  0.00    +0.000 A 
ATOM     33  C   UNL     1      -0.913  15.715  20.133  0.00  0.00    +0.000 A 
ATOM     34  C   UNL     1      -0.096  14.570  20.091  0.00  0.00    +0.000 A 
ENDBRANCH  27  29
ENDBRANCH  26  27
ENDBRANCH  10  26
TORSDOF 7
ENDMDL
MODEL 7
REMARK VINA RESULT:      -6.9      2.289      4.747
REMARK  Name = 
REMARK  7 active torsions:
REMARK  status: ('A' for Active; 'I' for Inactive)
REMARK    1  A    between atoms: C_7  and  C_8
REMARK    2  A    between atoms: C_8  and  C_9
REMARK    3  A    between atoms: C_15  and  C_16
REMARK    4  A    between atoms: C_16  and  C_17
REMARK    5  A    between atoms: C_24  and  S_25
REMARK    6  A    between atoms: S_25  and  C_26
REMARK    7  A    between atoms: C_26  and  C_28
REMARK                            x       y       z     vdW  Elec       q    Type
REMARK                         _______ _______ _______ _____ _____    ______ ____
ROOT
ATOM      1  O   UNL     1      -1.733  12.175  18.182  0.00  0.00    +0.000 OA
ATOM      2  C   UNL     1      -0.883  11.388  18.588  0.00  0.00    +0.000 C 
ATOM      3  C   UNL     1      -1.259  10.394  19.621  0.00  0.00    +0.000 C 
ATOM      4  C   UNL     1      -0.380   9.455  20.000  0.00  0.00    +0.000 C 
ATOM      5  C   UNL     1       1.034   9.370  19.489  0.00  0.00    +0.000 C 
ATOM      6  O   UNL     1       1.009   8.479  18.360  0.00  0.00    +0.000 OA
ATOM      7  C   UNL     1       1.986   7.458  18.596  0.00  0.00    +0.000 C 
ATOM      8  C   UNL     1       2.161   7.450  20.112  0.00  0.00    +0.000 C 
ATOM      9  O   UNL     1       1.863   8.800  20.506  0.00  0.00    +0.000 OA
ATOM     10  C   UNL     1       1.532  10.784  19.032  0.00  0.00    +0.000 C 
ATOM     11  C   UNL     1       0.519  11.348  18.021  0.00  0.00    +0.000 C 
ENDROOT
BRANCH   7  12
ATOM     12  C   UNL     1       3.318   7.764  17.884  0.00  0.00    +0.000 C 
BRANCH  12  13
ATOM     13  C   UNL     1       4.194   6.606  17.449  0.00  0.00    +0.000 A 
ATOM     14  C   UNL     1       3.775   5.271  17.418  0.00  0.00    +0.000 A 
ATOM     15  C   UNL     1       4.667   4.253  17.065  0.00  0.00    +0.000 A 
ATOM     16  C   UNL     1       5.985   4.553  16.726  0.00  0.00    +0.000 A 
ATOM     17  C   UNL     1       6.408   5.879  16.717  0.00  0.00    +0.000 A 
ATOM     18  C   UNL     1       5.518   6.895  17.070  0.00  0.00    +0.000 A 
ENDBRANCH  12  13
ENDBRANCH   7  12
BRANCH   8  19
ATOM     19  C   UNL     1       1.232   6.416  20.781  0.00  0.00    +0.000 C 
BRANCH  19  20
ATOM     20  C   UNL     1       1.591   4.983  20.457  0.00  0.00    +0.000 A 
ATOM     21  C   UNL     1       0.694   4.171  19.749  0.00  0.00    +0.000 A 
ATOM     22  C   UNL     1       1.011   2.844  19.457  0.00  0.00    +0.000 A 
ATOM     23  C   UNL     1       2.230   2.312  19.865  0.00  0.00    +0.000 A 
ATOM     24  C   UNL     1       3.135   3.109  20.564  0.00  0.00    +0.000 A 
ATOM     25  C   UNL     1       2.818   4.438  20.860  0.00  0.00    +0.000 A 
ENDBRANCH  19  20
ENDBRANCH   8  19
BRANCH  10  26
ATOM     26  S   UNL     1       1.808  11.965  20.453  0.00  0.00    +0.000 S 
BRANCH  26  27
ATOM     27  C   UNL     1       2.063  13.474  19.579  0.00  0.00    +0.000 C 
ATOM     28  O   UNL     1       3.095  13.671  18.951  0.00  0.00    +0.000 OA
BRANCH  27  29
ATOM     29  C   UNL     1       1.004  14.529  19.618  0.00  0.00    +0.000 A 
ATOM     30  C   UNL     1      -0.014  14.382  20.577  0.00  0.00    +0.000 A 
ATOM     31  C   UNL     1      -1.096  15.267  20.617  0.00  0.00    +0.000 A 
ATOM     32  C   UNL     1      -1.171  16.310  19.701  0.00  0.00    +0.000 A 
ATOM     33  C   UNL     1      -0.159  16.487  18.762  0.00  0.00    +0.000 A 
ATOM     34  C   UNL     1       0.934  15.602  18.725  0.00  0.00    +0.000 A 
ENDBRANCH  27  29
ENDBRANCH  26  27
ENDBRANCH  10  26
TORSDOF 7
ENDMDL
MODEL 8
REMARK VINA RESULT:      -6.9      3.956      8.921
REMARK  Name = 
REMARK  7 active torsions:
REMARK  status: ('A' for Active; 'I' for Inactive)
REMARK    1  A    between atoms: C_7  and  C_8
REMARK    2  A    between atoms: C_8  and  C_9
REMARK    3  A    between atoms: C_15  and  C_16
REMARK    4  A    between atoms: C_16  and  C_17
REMARK    5  A    between atoms: C_24  and  S_25
REMARK    6  A    between atoms: S_25  and  C_26
REMARK    7  A    between atoms: C_26  and  C_28
REMARK                            x       y       z     vdW  Elec       q    Type
REMARK                         _______ _______ _______ _____ _____    ______ ____
ROOT
ATOM      1  O   UNL     1       1.239   7.667  21.110  0.00  0.00    +0.000 OA
ATOM      2  C   UNL     1       0.796   8.811  21.051  0.00  0.00    +0.000 C 
ATOM      3  C   UNL     1      -0.072   9.302  22.147  0.00  0.00    +0.000 C 
ATOM      4  C   UNL     1      -0.477  10.580  22.160  0.00  0.00    +0.000 C 
ATOM      5  C   UNL     1      -0.165  11.573  21.072  0.00  0.00    +0.000 C 
ATOM      6  O   UNL     1       1.037  12.253  21.472  0.00  0.00    +0.000 OA
ATOM      7  C   UNL     1       0.768  13.660  21.440  0.00  0.00    +0.000 C 
ATOM      8  C   UNL     1      -0.750  13.753  21.572  0.00  0.00    +0.000 C 
ATOM      9  O   UNL     1      -1.228  12.527  20.993  0.00  0.00    +0.000 OA
ATOM     10  C   UNL     1       0.077  10.831  19.712  0.00  0.00    +0.000 C 
ATOM     11  C   UNL     1       1.161   9.762  19.934  0.00  0.00    +0.000 C 
ENDROOT
BRANCH   7  12
ATOM     12  C   UNL     1       1.251  14.307  20.127  0.00  0.00    +0.000 C 
BRANCH  12  13
ATOM     13  C   UNL     1       0.663  15.641  19.713  0.00  0.00    +0.000 A 
ATOM     14  C   UNL     1      -0.217  15.812  18.637  0.00  0.00    +0.000 A 
ATOM     15  C   UNL     1      -0.664  17.089  18.280  0.00  0.00    +0.000 A 
ATOM     16  C   UNL     1      -0.251  18.210  18.998  0.00  0.00    +0.000 A 
ATOM     17  C   UNL     1       0.594  18.052  20.093  0.00  0.00    +0.000 A 
ATOM     18  C   UNL     1       1.041  16.779  20.448  0.00  0.00    +0.000 A 
ENDBRANCH  12  13
ENDBRANCH   7  12
BRANCH   8  19
ATOM     19  C   UNL     1      -1.179  13.921  23.044  0.00  0.00    +0.000 C 
BRANCH  19  20
ATOM     20  C   UNL     1      -2.672  13.801  23.256  0.00  0.00    +0.000 A 
ATOM     21  C   UNL     1      -3.532  14.825  22.837  0.00  0.00    +0.000 A 
ATOM     22  C   UNL     1      -4.909  14.729  23.040  0.00  0.00    +0.000 A 
ATOM     23  C   UNL     1      -5.445  13.605  23.661  0.00  0.00    +0.000 A 
ATOM     24  C   UNL     1      -4.603  12.575  24.077  0.00  0.00    +0.000 A 
ATOM     25  C   UNL     1      -3.223  12.672  23.877  0.00  0.00    +0.000 A 
ENDBRANCH  19  20
ENDBRANCH   8  19
BRANCH  10  26
ATOM     26  S   UNL     1      -1.476  10.089  18.988  0.00  0.00    +0.000 S 
BRANCH  26  27
ATOM     27  C   UNL     1      -2.247  11.528  18.325  0.00  0.00    +0.000 C 
ATOM     28  O   UNL     1      -1.595  12.367  17.715  0.00  0.00    +0.000 OA
BRANCH  27  29
ATOM     29  C   UNL     1      -3.715  11.729  18.524  0.00  0.00    +0.000 A 
ATOM     30  C   UNL     1      -4.118  12.411  19.686  0.00  0.00    +0.000 A 
ATOM     31  C   UNL     1      -5.474  12.553  20.000  0.00  0.00    +0.000 A 
ATOM     32  C   UNL     1      -6.440  12.019  19.156  0.00  0.00    +0.000 A 
ATOM     33  C   UNL     1      -6.061  11.364  17.988  0.00  0.00    +0.000 A 
ATOM     34  C   UNL     1      -4.698  11.226  17.666  0.00  0.00    +0.000 A 
ENDBRANCH  27  29
ENDBRANCH  26  27
ENDBRANCH  10  26
TORSDOF 7
ENDMDL
MODEL 9
REMARK VINA RESULT:      -6.8      2.231      4.921
REMARK  Name = 
REMARK  7 active torsions:
REMARK  status: ('A' for Active; 'I' for Inactive)
REMARK    1  A    between atoms: C_7  and  C_8
REMARK    2  A    between atoms: C_8  and  C_9
REMARK    3  A    between atoms: C_15  and  C_16
REMARK    4  A    between atoms: C_16  and  C_17
REMARK    5  A    between atoms: C_24  and  S_25
REMARK    6  A    between atoms: S_25  and  C_26
REMARK    7  A    between atoms: C_26  and  C_28
REMARK                            x       y       z     vdW  Elec       q    Type
REMARK                         _______ _______ _______ _____ _____    ______ ____
ROOT
ATOM      1  O   UNL     1      -1.998  12.058  18.125  0.00  0.00    +0.000 OA
ATOM      2  C   UNL     1      -1.094  11.329  18.522  0.00  0.00    +0.000 C 
ATOM      3  C   UNL     1      -1.372  10.375  19.622  0.00  0.00    +0.000 C 
ATOM      4  C   UNL     1      -0.434   9.494  19.998  0.00  0.00    +0.000 C 
ATOM      5  C   UNL     1       0.954   9.440  19.415  0.00  0.00    +0.000 C 
ATOM      6  O   UNL     1       0.908   8.492  18.336  0.00  0.00    +0.000 OA
ATOM      7  C   UNL     1       1.940   7.525  18.567  0.00  0.00    +0.000 C 
ATOM      8  C   UNL     1       2.195   7.603  20.070  0.00  0.00    +0.000 C 
ATOM      9  O   UNL     1       1.859   8.958  20.413  0.00  0.00    +0.000 OA
ATOM     10  C   UNL     1       1.365  10.849  18.863  0.00  0.00    +0.000 C 
ATOM     11  C   UNL     1       0.276  11.317  17.882  0.00  0.00    +0.000 C 
ENDROOT
BRANCH   7  12
ATOM     12  C   UNL     1       3.218   7.849  17.770  0.00  0.00    +0.000 C 
BRANCH  12  13
ATOM     13  C   UNL     1       4.159   6.716  17.412  0.00  0.00    +0.000 A 
ATOM     14  C   UNL     1       5.525   6.879  17.155  0.00  0.00    +0.000 A 
ATOM     15  C   UNL     1       6.312   5.789  16.767  0.00  0.00    +0.000 A 
ATOM     16  C   UNL     1       5.751   4.520  16.643  0.00  0.00    +0.000 A 
ATOM     17  C   UNL     1       4.402   4.333  16.930  0.00  0.00    +0.000 A 
ATOM     18  C   UNL     1       3.616   5.421  17.316  0.00  0.00    +0.000 A 
ENDBRANCH  12  13
ENDBRANCH   7  12
BRANCH   8  19
ATOM     19  C   UNL     1       1.348   6.569  20.840  0.00  0.00    +0.000 C 
BRANCH  19  20
ATOM     20  C   UNL     1       1.688   5.135  20.496  0.00  0.00    +0.000 A 
ATOM     21  C   UNL     1       2.999   4.662  20.647  0.00  0.00    +0.000 A 
ATOM     22  C   UNL     1       3.325   3.346  20.319  0.00  0.00    +0.000 A 
ATOM     23  C   UNL     1       2.344   2.484  19.839  0.00  0.00    +0.000 A 
ATOM     24  C   UNL     1       1.035   2.937  19.690  0.00  0.00    +0.000 A 
ATOM     25  C   UNL     1       0.707   4.257  20.016  0.00  0.00    +0.000 A 
ENDBRANCH  19  20
ENDBRANCH   8  19
BRANCH  10  26
ATOM     26  S   UNL     1       1.664  12.112  20.206  0.00  0.00    +0.000 S 
BRANCH  26  27
ATOM     27  C   UNL     1       2.258  13.469  19.251  0.00  0.00    +0.000 C 
ATOM     28  O   UNL     1       3.234  13.345  18.521  0.00  0.00    +0.000 OA
BRANCH  27  29
ATOM     29  C   UNL     1       1.565  14.790  19.348  0.00  0.00    +0.000 A 
ATOM     30  C   UNL     1       0.198  14.823  19.021  0.00  0.00    +0.000 A 
ATOM     31  C   UNL     1      -0.503  16.033  18.987  0.00  0.00    +0.000 A 
ATOM     32  C   UNL     1       0.153  17.222  19.281  0.00  0.00    +0.000 A 
ATOM     33  C   UNL     1       1.500  17.205  19.632  0.00  0.00    +0.000 A 
ATOM     34  C   UNL     1       2.206  15.988  19.674  0.00  0.00    +0.000 A 
ENDBRANCH  27  29
ENDBRANCH  26  27
ENDBRANCH  10  26
TORSDOF 7
ENDMDL
