MODEL 1
REMARK VINA RESULT:      -7.6      0.000      0.000
REMARK  Name = 
REMARK  11 active torsions:
REMARK  status: ('A' for Active; 'I' for Inactive)
REMARK    1  A    between atoms: C_2  and  C_3
REMARK    2  A    between atoms: C_3  and  N_4
REMARK    3  A    between atoms: N_4  and  C_5
REMARK    4  A    between atoms: N_4  and  S_8
REMARK    5  A    between atoms: C_5  and  C_6
REMARK    6  A    between atoms: S_8  and  C_11
REMARK    7  A    between atoms: C_14  and  N_15
REMARK    8  A    between atoms: N_15  and  C_16
REMARK    9  A    between atoms: C_16  and  N_18
REMARK   10  A    between atoms: C_19  and  C_21
REMARK   11  A    between atoms: C_24  and  N_25
REMARK                            x       y       z     vdW  Elec       q    Type
REMARK                         _______ _______ _______ _____ _____    ______ ____
ROOT
ATOM      1  N   UNL     1       2.859   5.401  20.223  0.00  0.00    +0.000 N 
ATOM      2  H   UNL     1       3.337   5.227  21.110  0.00  0.00    +0.000 HD
ENDROOT
BRANCH   1   6
ATOM      3  C   UNL     1       1.105   9.240  19.932  0.00  0.00    +0.000 A 
ATOM      4  C   UNL     1       1.833   8.699  18.866  0.00  0.00    +0.000 A 
ATOM      5  C   UNL     1       2.358   7.400  18.963  0.00  0.00    +0.000 A 
ATOM      6  C   UNL     1       2.192   6.647  20.135  0.00  0.00    +0.000 A 
ATOM      7  C   UNL     1       1.388   7.169  21.149  0.00  0.00    +0.000 A 
ATOM      8  C   UNL     1       0.868   8.465  21.067  0.00  0.00    +0.000 A 
BRANCH   3   9
ATOM      9  S   UNL     1       0.717  10.986  19.955  0.00  0.00    +0.000 S 
ATOM     10  O   UNL     1       1.469  11.580  18.870  0.00  0.00    +0.000 OA
ATOM     11  O   UNL     1       0.921  11.453  21.313  0.00  0.00    +0.000 OA
BRANCH   9  12
ATOM     12  N   UNL     1      -0.993  11.056  19.621  0.00  0.00    +0.000 NA
BRANCH  12  13
ATOM     13  C   UNL     1      -1.634  12.111  20.481  0.00  0.00    +0.000 C 
BRANCH  13  15
ATOM     14  C   UNL     1      -0.893  14.502  20.658  0.00  0.00    +0.000 C 
ATOM     15  C   UNL     1      -1.433  13.502  19.944  0.00  0.00    +0.000 C 
ENDBRANCH  13  15
ENDBRANCH  12  13
BRANCH  12  16
ATOM     16  C   UNL     1      -1.297  11.287  18.176  0.00  0.00    +0.000 C 
BRANCH  16  17
ATOM     17  C   UNL     1      -1.942  10.104  17.515  0.00  0.00    +0.000 C 
ATOM     18  C   UNL     1      -3.243   9.785  17.525  0.00  0.00    +0.000 C 
ENDBRANCH  16  17
ENDBRANCH  12  16
ENDBRANCH   9  12
ENDBRANCH   3   9
ENDBRANCH   1   6
BRANCH   1  19
ATOM     19  C   UNL     1       2.815   4.293  19.398  0.00  0.00    +0.000 C 
ATOM     20  S   UNL     1       1.975   2.857  19.589  0.00  0.00    +0.000 S 
BRANCH  19  21
ATOM     21  N   UNL     1       3.614   4.363  18.263  0.00  0.00    +0.000 N 
ATOM     22  C   UNL     1       4.991   4.276  18.176  0.00  0.00    +0.000 C 
ATOM     23  O   UNL     1       5.717   4.070  19.145  0.00  0.00    +0.000 OA
ATOM     24  H   UNL     1       3.077   4.537  17.423  0.00  0.00    +0.000 HD
BRANCH  22  25
ATOM     25  C   UNL     1       5.607   4.466  16.833  0.00  0.00    +0.000 A 
ATOM     26  C   UNL     1       6.923   4.949  16.800  0.00  0.00    +0.000 A 
ATOM     27  C   UNL     1       7.591   5.132  15.587  0.00  0.00    +0.000 A 
ATOM     28  C   UNL     1       6.936   4.823  14.391  0.00  0.00    +0.000 A 
ATOM     29  C   UNL     1       5.620   4.332  14.406  0.00  0.00    +0.000 A 
ATOM     30  C   UNL     1       4.953   4.157  15.629  0.00  0.00    +0.000 A 
BRANCH  28  31
ATOM     31  N   UNL     1       7.639   5.011  13.113  0.00  0.00    +0.000 N 
ATOM     32  O   UNL     1       7.244   4.360  12.137  0.00  0.00    +0.000 OA
ATOM     33  O   UNL     1       8.589   5.806  13.092  0.00  0.00    +0.000 OA
ENDBRANCH  28  31
ENDBRANCH  22  25
ENDBRANCH  19  21
ENDBRANCH   1  19
TORSDOF 11
ENDMDL
MODEL 2
REMARK VINA RESULT:      -7.5      1.456      2.523
REMARK  Name = 
REMARK  11 active torsions:
REMARK  status: ('A' for Active; 'I' for Inactive)
REMARK    1  A    between atoms: C_2  and  C_3
REMARK    2  A    between atoms: C_3  and  N_4
REMARK    3  A    between atoms: N_4  and  C_5
REMARK    4  A    between atoms: N_4  and  S_8
REMARK    5  A    between atoms: C_5  and  C_6
REMARK    6  A    between atoms: S_8  and  C_11
REMARK    7  A    between atoms: C_14  and  N_15
REMARK    8  A    between atoms: N_15  and  C_16
REMARK    9  A    between atoms: C_16  and  N_18
REMARK   10  A    between atoms: C_19  and  C_21
REMARK   11  A    between atoms: C_24  and  N_25
REMARK                            x       y       z     vdW  Elec       q    Type
REMARK                         _______ _______ _______ _____ _____    ______ ____
ROOT
ATOM      1  N   UNL     1       2.286   6.056  20.632  0.00  0.00    +0.000 N 
ATOM      2  H   UNL     1       2.841   5.910  21.478  0.00  0.00    +0.000 HD
ENDROOT
BRANCH   1   6
ATOM      3  C   UNL     1       0.396   9.838  20.488  0.00  0.00    +0.000 A 
ATOM      4  C   UNL     1       1.229   9.411  19.449  0.00  0.00    +0.000 A 
ATOM      5  C   UNL     1       1.801   8.128  19.490  0.00  0.00    +0.000 A 
ATOM      6  C   UNL     1       1.575   7.279  20.584  0.00  0.00    +0.000 A 
ATOM      7  C   UNL     1       0.671   7.689  21.564  0.00  0.00    +0.000 A 
ATOM      8  C   UNL     1       0.103   8.968  21.538  0.00  0.00    +0.000 A 
BRANCH   3   9
ATOM      9  S   UNL     1      -0.067  11.561  20.612  0.00  0.00    +0.000 S 
ATOM     10  O   UNL     1       1.019  12.222  21.304  0.00  0.00    +0.000 OA
ATOM     11  O   UNL     1      -1.407  11.607  21.165  0.00  0.00    +0.000 OA
BRANCH   9  12
ATOM     12  N   UNL     1      -0.157  12.107  18.958  0.00  0.00    +0.000 NA
BRANCH  12  13
ATOM     13  C   UNL     1      -1.573  11.996  18.464  0.00  0.00    +0.000 C 
BRANCH  13  15
ATOM     14  C   UNL     1      -2.502  10.749  16.494  0.00  0.00    +0.000 C 
ATOM     15  C   UNL     1      -1.809  10.757  17.643  0.00  0.00    +0.000 C 
ENDBRANCH  13  15
ENDBRANCH  12  13
BRANCH  12  16
ATOM     16  C   UNL     1       0.367  13.495  18.772  0.00  0.00    +0.000 C 
BRANCH  16  17
ATOM     17  C   UNL     1       1.703  13.532  18.090  0.00  0.00    +0.000 C 
ATOM     18  C   UNL     1       2.665  12.601  18.147  0.00  0.00    +0.000 C 
ENDBRANCH  16  17
ENDBRANCH  12  16
ENDBRANCH   9  12
ENDBRANCH   3   9
ENDBRANCH   1   6
BRANCH   1  19
ATOM     19  C   UNL     1       2.208   4.934  19.827  0.00  0.00    +0.000 C 
ATOM     20  S   UNL     1       1.187   3.612  19.942  0.00  0.00    +0.000 S 
BRANCH  19  21
ATOM     21  N   UNL     1       3.137   4.874  18.796  0.00  0.00    +0.000 N 
ATOM     22  C   UNL     1       4.503   5.080  18.859  0.00  0.00    +0.000 C 
ATOM     23  O   UNL     1       5.104   5.311  19.905  0.00  0.00    +0.000 OA
ATOM     24  H   UNL     1       2.708   4.690  17.898  0.00  0.00    +0.000 HD
BRANCH  22  25
ATOM     25  C   UNL     1       5.263   5.036  17.578  0.00  0.00    +0.000 A 
ATOM     26  C   UNL     1       4.624   4.435  16.482  0.00  0.00    +0.000 A 
ATOM     27  C   UNL     1       5.248   4.373  15.234  0.00  0.00    +0.000 A 
ATOM     28  C   UNL     1       6.525   4.921  15.077  0.00  0.00    +0.000 A 
ATOM     29  C   UNL     1       7.175   5.532  16.162  0.00  0.00    +0.000 A 
ATOM     30  C   UNL     1       6.545   5.585  17.416  0.00  0.00    +0.000 A 
BRANCH  28  31
ATOM     31  N   UNL     1       7.181   4.860  13.763  0.00  0.00    +0.000 N 
ATOM     32  O   UNL     1       8.136   5.621  13.560  0.00  0.00    +0.000 OA
ATOM     33  O   UNL     1       6.734   4.053  12.935  0.00  0.00    +0.000 OA
ENDBRANCH  28  31
ENDBRANCH  22  25
ENDBRANCH  19  21
ENDBRANCH   1  19
TORSDOF 11
ENDMDL
MODEL 3
REMARK VINA RESULT:      -7.5      3.051     10.392
REMARK  Name = 
REMARK  11 active torsions:
REMARK  status: ('A' for Active; 'I' for Inactive)
REMARK    1  A    between atoms: C_2  and  C_3
REMARK    2  A    between atoms: C_3  and  N_4
REMARK    3  A    between atoms: N_4  and  C_5
REMARK    4  A    between atoms: N_4  and  S_8
REMARK    5  A    between atoms: C_5  and  C_6
REMARK    6  A    between atoms: S_8  and  C_11
REMARK    7  A    between atoms: C_14  and  N_15
REMARK    8  A    between atoms: N_15  and  C_16
REMARK    9  A    between atoms: C_16  and  N_18
REMARK   10  A    between atoms: C_19  and  C_21
REMARK   11  A    between atoms: C_24  and  N_25
REMARK                            x       y       z     vdW  Elec       q    Type
REMARK                         _______ _______ _______ _____ _____    ______ ____
ROOT
ATOM      1  N   UNL     1       1.501   9.103  19.308  0.00  0.00    +0.000 N 
ATOM      2  H   UNL     1       1.272   9.205  20.299  0.00  0.00    +0.000 HD
ENDROOT
BRANCH   1   6
ATOM      3  C   UNL     1       3.650   5.547  18.512  0.00  0.00    +0.000 A 
ATOM      4  C   UNL     1       2.871   5.673  19.667  0.00  0.00    +0.000 A 
ATOM      5  C   UNL     1       2.120   6.840  19.883  0.00  0.00    +0.000 A 
ATOM      6  C   UNL     1       2.170   7.903  18.968  0.00  0.00    +0.000 A 
ATOM      7  C   UNL     1       2.881   7.721  17.781  0.00  0.00    +0.000 A 
ATOM      8  C   UNL     1       3.640   6.566  17.560  0.00  0.00    +0.000 A 
BRANCH   3   9
ATOM      9  S   UNL     1       4.851   4.227  18.383  0.00  0.00    +0.000 S 
ATOM     10  O   UNL     1       4.132   3.078  17.875  0.00  0.00    +0.000 OA
ATOM     11  O   UNL     1       5.534   4.142  19.660  0.00  0.00    +0.000 OA
BRANCH   9  12
ATOM     12  N   UNL     1       6.000   4.798  17.203  0.00  0.00    +0.000 NA
BRANCH  12  13
ATOM     13  C   UNL     1       7.357   4.930  17.840  0.00  0.00    +0.000 C 
BRANCH  13  15
ATOM     14  C   UNL     1       7.410   7.408  17.450  0.00  0.00    +0.000 C 
ATOM     15  C   UNL     1       7.686   6.347  18.223  0.00  0.00    +0.000 C 
ENDBRANCH  13  15
ENDBRANCH  12  13
BRANCH  12  16
ATOM     16  C   UNL     1       6.063   3.936  15.984  0.00  0.00    +0.000 C 
BRANCH  16  17
ATOM     17  C   UNL     1       6.085   4.724  14.707  0.00  0.00    +0.000 C 
ATOM     18  C   UNL     1       7.112   4.856  13.857  0.00  0.00    +0.000 C 
ENDBRANCH  16  17
ENDBRANCH  12  16
ENDBRANCH   9  12
ENDBRANCH   3   9
ENDBRANCH   1   6
BRANCH   1  19
ATOM     19  C   UNL     1       1.276  10.251  18.571  0.00  0.00    +0.000 C 
ATOM     20  S   UNL     1       2.377  11.355  17.960  0.00  0.00    +0.000 S 
BRANCH  19  21
ATOM     21  N   UNL     1      -0.058  10.557  18.336  0.00  0.00    +0.000 N 
ATOM     22  C   UNL     1      -0.848  11.498  18.972  0.00  0.00    +0.000 C 
ATOM     23  O   UNL     1      -0.429  12.253  19.845  0.00  0.00    +0.000 OA
ATOM     24  H   UNL     1      -0.472   9.966  17.627  0.00  0.00    +0.000 HD
BRANCH  22  25
ATOM     25  C   UNL     1      -2.284  11.566  18.578  0.00  0.00    +0.000 A 
ATOM     26  C   UNL     1      -3.170  12.131  19.507  0.00  0.00    +0.000 A 
ATOM     27  C   UNL     1      -4.529  12.263  19.213  0.00  0.00    +0.000 A 
ATOM     28  C   UNL     1      -5.008  11.829  17.973  0.00  0.00    +0.000 A 
ATOM     29  C   UNL     1      -4.132  11.268  17.029  0.00  0.00    +0.000 A 
ATOM     30  C   UNL     1      -2.768  11.133  17.334  0.00  0.00    +0.000 A 
BRANCH  28  31
ATOM     31  N   UNL     1      -6.438  11.971  17.661  0.00  0.00    +0.000 N 
ATOM     32  O   UNL     1      -6.764  12.836  16.838  0.00  0.00    +0.000 OA
ATOM     33  O   UNL     1      -7.231  11.219  18.246  0.00  0.00    +0.000 OA
ENDBRANCH  28  31
ENDBRANCH  22  25
ENDBRANCH  19  21
ENDBRANCH   1  19
TORSDOF 11
ENDMDL
MODEL 4
REMARK VINA RESULT:      -7.4      3.030     10.144
REMARK  Name = 
REMARK  11 active torsions:
REMARK  status: ('A' for Active; 'I' for Inactive)
REMARK    1  A    between atoms: C_2  and  C_3
REMARK    2  A    between atoms: C_3  and  N_4
REMARK    3  A    between atoms: N_4  and  C_5
REMARK    4  A    between atoms: N_4  and  S_8
REMARK    5  A    between atoms: C_5  and  C_6
REMARK    6  A    between atoms: S_8  and  C_11
REMARK    7  A    between atoms: C_14  and  N_15
REMARK    8  A    between atoms: N_15  and  C_16
REMARK    9  A    between atoms: C_16  and  N_18
REMARK   10  A    between atoms: C_19  and  C_21
REMARK   11  A    between atoms: C_24  and  N_25
REMARK                            x       y       z     vdW  Elec       q    Type
REMARK                         _______ _______ _______ _____ _____    ______ ____
ROOT
ATOM      1  N   UNL     1       1.435   9.370  20.011  0.00  0.00    +0.000 N 
ATOM      2  H   UNL     1       1.851  10.239  19.670  0.00  0.00    +0.000 HD
ENDROOT
BRANCH   1   6
ATOM      3  C   UNL     1       3.182   5.828  18.493  0.00  0.00    +0.000 A 
ATOM      4  C   UNL     1       2.564   5.844  19.748  0.00  0.00    +0.000 A 
ATOM      5  C   UNL     1       1.940   7.016  20.208  0.00  0.00    +0.000 A 
ATOM      6  C   UNL     1       1.961   8.187  19.436  0.00  0.00    +0.000 A 
ATOM      7  C   UNL     1       2.503   8.125  18.152  0.00  0.00    +0.000 A 
ATOM      8  C   UNL     1       3.136   6.966  17.688  0.00  0.00    +0.000 A 
BRANCH   3   9
ATOM      9  S   UNL     1       4.250   4.467  18.040  0.00  0.00    +0.000 S 
ATOM     10  O   UNL     1       3.546   3.727  17.014  0.00  0.00    +0.000 OA
ATOM     11  O   UNL     1       4.641   3.801  19.268  0.00  0.00    +0.000 OA
BRANCH   9  12
ATOM     12  N   UNL     1       5.671   5.230  17.376  0.00  0.00    +0.000 NA
BRANCH  12  13
ATOM     13  C   UNL     1       6.552   5.719  18.492  0.00  0.00    +0.000 C 
BRANCH  13  15
ATOM     14  C   UNL     1       7.586   7.821  17.593  0.00  0.00    +0.000 C 
ATOM     15  C   UNL     1       7.707   6.549  18.002  0.00  0.00    +0.000 C 
ENDBRANCH  13  15
ENDBRANCH  12  13
BRANCH  12  16
ATOM     16  C   UNL     1       6.430   4.340  16.446  0.00  0.00    +0.000 C 
BRANCH  16  17
ATOM     17  C   UNL     1       6.334   4.770  15.011  0.00  0.00    +0.000 C 
ATOM     18  C   UNL     1       6.099   3.989  13.948  0.00  0.00    +0.000 C 
ENDBRANCH  16  17
ENDBRANCH  12  16
ENDBRANCH   9  12
ENDBRANCH   3   9
ENDBRANCH   1   6
BRANCH   1  19
ATOM     19  C   UNL     1       0.322   9.569  20.806  0.00  0.00    +0.000 C 
ATOM     20  S   UNL     1       0.135   9.333  22.453  0.00  0.00    +0.000 S 
BRANCH  19  21
ATOM     21  N   UNL     1      -0.822   9.986  20.137  0.00  0.00    +0.000 N 
ATOM     22  C   UNL     1      -0.926  10.893  19.098  0.00  0.00    +0.000 C 
ATOM     23  O   UNL     1       0.043  11.439  18.578  0.00  0.00    +0.000 OA
ATOM     24  H   UNL     1      -1.665   9.575  20.518  0.00  0.00    +0.000 HD
BRANCH  22  25
ATOM     25  C   UNL     1      -2.296  11.225  18.612  0.00  0.00    +0.000 A 
ATOM     26  C   UNL     1      -3.134  11.914  19.501  0.00  0.00    +0.000 A 
ATOM     27  C   UNL     1      -4.425  12.291  19.123  0.00  0.00    +0.000 A 
ATOM     28  C   UNL     1      -4.882  11.980  17.838  0.00  0.00    +0.000 A 
ATOM     29  C   UNL     1      -4.052  11.298  16.934  0.00  0.00    +0.000 A 
ATOM     30  C   UNL     1      -2.758  10.915  17.323  0.00  0.00    +0.000 A 
BRANCH  28  31
ATOM     31  N   UNL     1      -6.238  12.381  17.438  0.00  0.00    +0.000 N 
ATOM     32  O   UNL     1      -7.187  11.711  17.866  0.00  0.00    +0.000 OA
ATOM     33  O   UNL     1      -6.350  13.363  16.691  0.00  0.00    +0.000 OA
ENDBRANCH  28  31
ENDBRANCH  22  25
ENDBRANCH  19  21
ENDBRANCH   1  19
TORSDOF 11
ENDMDL
MODEL 5
REMARK VINA RESULT:      -7.3      0.886      1.413
REMARK  Name = 
REMARK  11 active torsions:
REMARK  status: ('A' for Active; 'I' for Inactive)
REMARK    1  A    between atoms: C_2  and  C_3
REMARK    2  A    between atoms: C_3  and  N_4
REMARK    3  A    between atoms: N_4  and  C_5
REMARK    4  A    between atoms: N_4  and  S_8
REMARK    5  A    between atoms: C_5  and  C_6
REMARK    6  A    between atoms: S_8  and  C_11
REMARK    7  A    between atoms: C_14  and  N_15
REMARK    8  A    between atoms: N_15  and  C_16
REMARK    9  A    between atoms: C_16  and  N_18
REMARK   10  A    between atoms: C_19  and  C_21
REMARK   11  A    between atoms: C_24  and  N_25
REMARK                            x       y       z     vdW  Elec       q    Type
REMARK                         _______ _______ _______ _____ _____    ______ ____
ROOT
ATOM      1  N   UNL     1       2.943   6.094  20.005  0.00  0.00    +0.000 N 
ATOM      2  H   UNL     1       3.634   6.031  20.756  0.00  0.00    +0.000 HD
ENDROOT
BRANCH   1   6
ATOM      3  C   UNL     1       0.875   9.784  19.931  0.00  0.00    +0.000 A 
ATOM      4  C   UNL     1       1.555   9.319  18.801  0.00  0.00    +0.000 A 
ATOM      5  C   UNL     1       2.187   8.065  18.830  0.00  0.00    +0.000 A 
ATOM      6  C   UNL     1       2.175   7.284  19.996  0.00  0.00    +0.000 A 
ATOM      7  C   UNL     1       1.416   7.725  21.080  0.00  0.00    +0.000 A 
ATOM      8  C   UNL     1       0.791   8.977  21.065  0.00  0.00    +0.000 A 
BRANCH   3   9
ATOM      9  S   UNL     1       0.354  11.493  20.021  0.00  0.00    +0.000 S 
ATOM     10  O   UNL     1       1.041  12.180  18.947  0.00  0.00    +0.000 OA
ATOM     11  O   UNL     1       0.544  11.929  21.391  0.00  0.00    +0.000 OA
BRANCH   9  12
ATOM     12  N   UNL     1      -1.361  11.442  19.713  0.00  0.00    +0.000 NA
BRANCH  12  13
ATOM     13  C   UNL     1      -2.057  12.477  20.554  0.00  0.00    +0.000 C 
BRANCH  13  15
ATOM     14  C   UNL     1      -4.378  13.352  20.935  0.00  0.00    +0.000 C 
ATOM     15  C   UNL     1      -3.514  12.624  20.210  0.00  0.00    +0.000 C 
ENDBRANCH  13  15
ENDBRANCH  12  13
BRANCH  12  16
ATOM     16  C   UNL     1      -1.701  11.611  18.267  0.00  0.00    +0.000 C 
BRANCH  16  17
ATOM     17  C   UNL     1      -2.011  10.313  17.582  0.00  0.00    +0.000 C 
ATOM     18  C   UNL     1      -3.225   9.806  17.324  0.00  0.00    +0.000 C 
ENDBRANCH  16  17
ENDBRANCH  12  16
ENDBRANCH   9  12
ENDBRANCH   3   9
ENDBRANCH   1   6
BRANCH   1  19
ATOM     19  C   UNL     1       2.790   4.916  19.299  0.00  0.00    +0.000 C 
ATOM     20  S   UNL     1       1.788   3.612  19.611  0.00  0.00    +0.000 S 
BRANCH  19  21
ATOM     21  N   UNL     1       3.616   4.773  18.191  0.00  0.00    +0.000 N 
ATOM     22  C   UNL     1       4.993   4.893  18.126  0.00  0.00    +0.000 C 
ATOM     23  O   UNL     1       5.699   5.108  19.107  0.00  0.00    +0.000 OA
ATOM     24  H   UNL     1       3.097   4.597  17.341  0.00  0.00    +0.000 HD
BRANCH  22  25
ATOM     25  C   UNL     1       5.628   4.770  16.784  0.00  0.00    +0.000 A 
ATOM     26  C   UNL     1       4.777   4.511  15.699  0.00  0.00    +0.000 A 
ATOM     27  C   UNL     1       5.280   4.408  14.401  0.00  0.00    +0.000 A 
ATOM     28  C   UNL     1       6.652   4.570  14.182  0.00  0.00    +0.000 A 
ATOM     29  C   UNL     1       7.517   4.837  15.255  0.00  0.00    +0.000 A 
ATOM     30  C   UNL     1       7.005   4.933  16.560  0.00  0.00    +0.000 A 
BRANCH  28  31
ATOM     31  N   UNL     1       7.182   4.466  12.814  0.00  0.00    +0.000 N 
ATOM     32  O   UNL     1       7.947   5.358  12.424  0.00  0.00    +0.000 OA
ATOM     33  O   UNL     1       6.826   3.494  12.132  0.00  0.00    +0.000 OA
ENDBRANCH  28  31
ENDBRANCH  22  25
ENDBRANCH  19  21
ENDBRANCH   1  19
TORSDOF 11
ENDMDL
MODEL 6
REMARK VINA RESULT:      -7.3      2.644      9.170
REMARK  Name = 
REMARK  11 active torsions:
REMARK  status: ('A' for Active; 'I' for Inactive)
REMARK    1  A    between atoms: C_2  and  C_3
REMARK    2  A    between atoms: C_3  and  N_4
REMARK    3  A    between atoms: N_4  and  C_5
REMARK    4  A    between atoms: N_4  and  S_8
REMARK    5  A    between atoms: C_5  and  C_6
REMARK    6  A    between atoms: S_8  and  C_11
REMARK    7  A    between atoms: C_14  and  N_15
REMARK    8  A    between atoms: N_15  and  C_16
REMARK    9  A    between atoms: C_16  and  N_18
REMARK   10  A    between atoms: C_19  and  C_21
REMARK   11  A    between atoms: C_24  and  N_25
REMARK                            x       y       z     vdW  Elec       q    Type
REMARK                         _______ _______ _______ _____ _____    ______ ____
ROOT
ATOM      1  N   UNL     1       1.826   8.169  21.513  0.00  0.00    +0.000 N 
ATOM      2  H   UNL     1       2.682   8.485  21.976  0.00  0.00    +0.000 HD
ENDROOT
BRANCH   1   6
ATOM      3  C   UNL     1       2.594   5.134  18.667  0.00  0.00    +0.000 A 
ATOM      4  C   UNL     1       2.228   4.814  19.979  0.00  0.00    +0.000 A 
ATOM      5  C   UNL     1       1.922   5.837  20.891  0.00  0.00    +0.000 A 
ATOM      6  C   UNL     1       2.015   7.185  20.513  0.00  0.00    +0.000 A 
ATOM      7  C   UNL     1       2.294   7.480  19.178  0.00  0.00    +0.000 A 
ATOM      8  C   UNL     1       2.609   6.469  18.263  0.00  0.00    +0.000 A 
BRANCH   3   9
ATOM      9  S   UNL     1       3.295   3.879  17.603  0.00  0.00    +0.000 S 
ATOM     10  O   UNL     1       2.288   3.589  16.604  0.00  0.00    +0.000 OA
ATOM     11  O   UNL     1       3.787   2.817  18.459  0.00  0.00    +0.000 OA
BRANCH   9  12
ATOM     12  N   UNL     1       4.676   4.652  16.870  0.00  0.00    +0.000 NA
BRANCH  12  13
ATOM     13  C   UNL     1       5.515   5.305  17.933  0.00  0.00    +0.000 C 
BRANCH  13  15
ATOM     14  C   UNL     1       7.421   6.885  17.524  0.00  0.00    +0.000 C 
ATOM     15  C   UNL     1       6.107   6.614  17.487  0.00  0.00    +0.000 C 
ENDBRANCH  13  15
ENDBRANCH  12  13
BRANCH  12  16
ATOM     16  C   UNL     1       5.496   3.717  16.041  0.00  0.00    +0.000 C 
BRANCH  16  17
ATOM     17  C   UNL     1       5.945   4.322  14.743  0.00  0.00    +0.000 C 
ATOM     18  C   UNL     1       5.600   3.934  13.509  0.00  0.00    +0.000 C 
ENDBRANCH  16  17
ENDBRANCH  12  16
ENDBRANCH   9  12
ENDBRANCH   3   9
ENDBRANCH   1   6
BRANCH   1  19
ATOM     19  C   UNL     1       0.715   8.924  21.839  0.00  0.00    +0.000 C 
ATOM     20  S   UNL     1       0.161   9.407  23.343  0.00  0.00    +0.000 S 
BRANCH  19  21
ATOM     21  N   UNL     1      -0.083   9.303  20.767  0.00  0.00    +0.000 N 
ATOM     22  C   UNL     1      -0.005  10.454  20.004  0.00  0.00    +0.000 C 
ATOM     23  O   UNL     1       0.859  11.312  20.161  0.00  0.00    +0.000 OA
ATOM     24  H   UNL     1      -0.824   8.640  20.582  0.00  0.00    +0.000 HD
BRANCH  22  25
ATOM     25  C   UNL     1      -1.045  10.653  18.955  0.00  0.00    +0.000 A 
ATOM     26  C   UNL     1      -0.996   9.801  17.842  0.00  0.00    +0.000 A 
ATOM     27  C   UNL     1      -1.947   9.896  16.823  0.00  0.00    +0.000 A 
ATOM     28  C   UNL     1      -2.963  10.851  16.920  0.00  0.00    +0.000 A 
ATOM     29  C   UNL     1      -3.031  11.707  18.032  0.00  0.00    +0.000 A 
ATOM     30  C   UNL     1      -2.068  11.611  19.049  0.00  0.00    +0.000 A 
BRANCH  28  31
ATOM     31  N   UNL     1      -3.967  10.949  15.850  0.00  0.00    +0.000 N 
ATOM     32  O   UNL     1      -3.669  10.494  14.738  0.00  0.00    +0.000 OA
ATOM     33  O   UNL     1      -5.049  11.486  16.125  0.00  0.00    +0.000 OA
ENDBRANCH  28  31
ENDBRANCH  22  25
ENDBRANCH  19  21
ENDBRANCH   1  19
TORSDOF 11
ENDMDL
MODEL 7
REMARK VINA RESULT:      -7.3      0.936      1.213
REMARK  Name = 
REMARK  11 active torsions:
REMARK  status: ('A' for Active; 'I' for Inactive)
REMARK    1  A    between atoms: C_2  and  C_3
REMARK    2  A    between atoms: C_3  and  N_4
REMARK    3  A    between atoms: N_4  and  C_5
REMARK    4  A    between atoms: N_4  and  S_8
REMARK    5  A    between atoms: C_5  and  C_6
REMARK    6  A    between atoms: S_8  and  C_11
REMARK    7  A    between atoms: C_14  and  N_15
REMARK    8  A    between atoms: N_15  and  C_16
REMARK    9  A    between atoms: C_16  and  N_18
REMARK   10  A    between atoms: C_19  and  C_21
REMARK   11  A    between atoms: C_24  and  N_25
REMARK                            x       y       z     vdW  Elec       q    Type
REMARK                         _______ _______ _______ _____ _____    ______ ____
ROOT
ATOM      1  N   UNL     1       2.316   5.725  20.906  0.00  0.00    +0.000 N 
ATOM      2  H   UNL     1       2.628   5.586  21.870  0.00  0.00    +0.000 HD
ENDROOT
BRANCH   1   6
ATOM      3  C   UNL     1       0.984   9.649  20.057  0.00  0.00    +0.000 A 
ATOM      4  C   UNL     1       1.755   8.936  19.133  0.00  0.00    +0.000 A 
ATOM      5  C   UNL     1       2.138   7.614  19.411  0.00  0.00    +0.000 A 
ATOM      6  C   UNL     1       1.787   7.008  20.627  0.00  0.00    +0.000 A 
ATOM      7  C   UNL     1       0.944   7.704  21.494  0.00  0.00    +0.000 A 
ATOM      8  C   UNL     1       0.564   9.025  21.231  0.00  0.00    +0.000 A 
BRANCH   3   9
ATOM      9  S   UNL     1       0.769  11.415  19.869  0.00  0.00    +0.000 S 
ATOM     10  O   UNL     1       1.329  11.753  18.577  0.00  0.00    +0.000 OA
ATOM     11  O   UNL     1       1.293  12.042  21.067  0.00  0.00    +0.000 OA
BRANCH   9  12
ATOM     12  N   UNL     1      -0.959  11.645  19.862  0.00  0.00    +0.000 NA
BRANCH  12  13
ATOM     13  C   UNL     1      -1.340  12.653  20.912  0.00  0.00    +0.000 C 
BRANCH  13  15
ATOM     14  C   UNL     1      -3.623  13.531  21.472  0.00  0.00    +0.000 C 
ATOM     15  C   UNL     1      -2.764  12.505  21.374  0.00  0.00    +0.000 C 
ENDBRANCH  13  15
ENDBRANCH  12  13
BRANCH  12  16
ATOM     16  C   UNL     1      -1.491  12.041  18.522  0.00  0.00    +0.000 C 
BRANCH  16  17
ATOM     17  C   UNL     1      -2.227  10.931  17.831  0.00  0.00    +0.000 C 
ATOM     18  C   UNL     1      -1.694   9.855  17.239  0.00  0.00    +0.000 C 
ENDBRANCH  16  17
ENDBRANCH  12  16
ENDBRANCH   9  12
ENDBRANCH   3   9
ENDBRANCH   1   6
BRANCH   1  19
ATOM     19  C   UNL     1       2.306   4.562  20.159  0.00  0.00    +0.000 C 
ATOM     20  S   UNL     1       1.499   3.123  20.444  0.00  0.00    +0.000 S 
BRANCH  19  21
ATOM     21  N   UNL     1       3.113   4.572  19.029  0.00  0.00    +0.000 N 
ATOM     22  C   UNL     1       4.373   4.023  18.868  0.00  0.00    +0.000 C 
ATOM     23  O   UNL     1       4.946   3.381  19.744  0.00  0.00    +0.000 OA
ATOM     24  H   UNL     1       2.701   5.090  18.264  0.00  0.00    +0.000 HD
BRANCH  22  25
ATOM     25  C   UNL     1       5.058   4.250  17.565  0.00  0.00    +0.000 A 
ATOM     26  C   UNL     1       6.402   4.649  17.616  0.00  0.00    +0.000 A 
ATOM     27  C   UNL     1       7.133   4.858  16.445  0.00  0.00    +0.000 A 
ATOM     28  C   UNL     1       6.515   4.661  15.206  0.00  0.00    +0.000 A 
ATOM     29  C   UNL     1       5.173   4.254  15.137  0.00  0.00    +0.000 A 
ATOM     30  C   UNL     1       4.441   4.052  16.319  0.00  0.00    +0.000 A 
BRANCH  28  31
ATOM     31  N   UNL     1       7.285   4.877  13.972  0.00  0.00    +0.000 N 
ATOM     32  O   UNL     1       8.219   5.689  14.010  0.00  0.00    +0.000 OA
ATOM     33  O   UNL     1       6.950   4.236  12.966  0.00  0.00    +0.000 OA
ENDBRANCH  28  31
ENDBRANCH  22  25
ENDBRANCH  19  21
ENDBRANCH   1  19
TORSDOF 11
ENDMDL
MODEL 8
REMARK VINA RESULT:      -7.3      1.645      2.333
REMARK  Name = 
REMARK  11 active torsions:
REMARK  status: ('A' for Active; 'I' for Inactive)
REMARK    1  A    between atoms: C_2  and  C_3
REMARK    2  A    between atoms: C_3  and  N_4
REMARK    3  A    between atoms: N_4  and  C_5
REMARK    4  A    between atoms: N_4  and  S_8
REMARK    5  A    between atoms: C_5  and  C_6
REMARK    6  A    between atoms: S_8  and  C_11
REMARK    7  A    between atoms: C_14  and  N_15
REMARK    8  A    between atoms: N_15  and  C_16
REMARK    9  A    between atoms: C_16  and  N_18
REMARK   10  A    between atoms: C_19  and  C_21
REMARK   11  A    between atoms: C_24  and  N_25
REMARK                            x       y       z     vdW  Elec       q    Type
REMARK                         _______ _______ _______ _____ _____    ______ ____
ROOT
ATOM      1  N   UNL     1       2.136   6.399  20.604  0.00  0.00    +0.000 N 
ATOM      2  H   UNL     1       2.341   6.274  21.598  0.00  0.00    +0.000 HD
ENDROOT
BRANCH   1   6
ATOM      3  C   UNL     1       0.910  10.301  19.524  0.00  0.00    +0.000 A 
ATOM      4  C   UNL     1       0.787   9.848  20.841  0.00  0.00    +0.000 A 
ATOM      5  C   UNL     1       1.253   8.570  21.190  0.00  0.00    +0.000 A 
ATOM      6  C   UNL     1       1.810   7.722  20.221  0.00  0.00    +0.000 A 
ATOM      7  C   UNL     1       2.005   8.226  18.934  0.00  0.00    +0.000 A 
ATOM      8  C   UNL     1       1.537   9.495  18.574  0.00  0.00    +0.000 A 
BRANCH   3   9
ATOM      9  S   UNL     1       0.038  11.772  18.999  0.00  0.00    +0.000 S 
ATOM     10  O   UNL     1      -1.128  11.312  18.275  0.00  0.00    +0.000 OA
ATOM     11  O   UNL     1       1.003  12.631  18.339  0.00  0.00    +0.000 OA
BRANCH   9  12
ATOM     12  N   UNL     1      -0.436  12.551  20.486  0.00  0.00    +0.000 NA
BRANCH  12  13
ATOM     13  C   UNL     1       0.112  13.951  20.522  0.00  0.00    +0.000 C 
BRANCH  13  15
ATOM     14  C   UNL     1      -0.523  15.921  19.104  0.00  0.00    +0.000 C 
ATOM     15  C   UNL     1      -0.857  14.970  19.989  0.00  0.00    +0.000 C 
ENDBRANCH  13  15
ENDBRANCH  12  13
BRANCH  12  16
ATOM     16  C   UNL     1      -1.915  12.550  20.700  0.00  0.00    +0.000 C 
BRANCH  16  17
ATOM     17  C   UNL     1      -2.302  12.287  22.126  0.00  0.00    +0.000 C 
ATOM     18  C   UNL     1      -1.606  11.594  23.037  0.00  0.00    +0.000 C 
ENDBRANCH  16  17
ENDBRANCH  12  16
ENDBRANCH   9  12
ENDBRANCH   3   9
ENDBRANCH   1   6
BRANCH   1  19
ATOM     19  C   UNL     1       2.033   5.207  19.911  0.00  0.00    +0.000 C 
ATOM     20  S   UNL     1       1.051   3.885  20.209  0.00  0.00    +0.000 S 
BRANCH  19  21
ATOM     21  N   UNL     1       2.900   5.068  18.834  0.00  0.00    +0.000 N 
ATOM     22  C   UNL     1       4.280   5.160  18.825  0.00  0.00    +0.000 C 
ATOM     23  O   UNL     1       4.952   5.344  19.836  0.00  0.00    +0.000 OA
ATOM     24  H   UNL     1       2.411   4.917  17.961  0.00  0.00    +0.000 HD
BRANCH  22  25
ATOM     25  C   UNL     1       4.966   5.049  17.506  0.00  0.00    +0.000 A 
ATOM     26  C   UNL     1       5.999   5.963  17.249  0.00  0.00    +0.000 A 
ATOM     27  C   UNL     1       6.716   5.916  16.052  0.00  0.00    +0.000 A 
ATOM     28  C   UNL     1       6.400   4.941  15.101  0.00  0.00    +0.000 A 
ATOM     29  C   UNL     1       5.374   4.014  15.346  0.00  0.00    +0.000 A 
ATOM     30  C   UNL     1       4.652   4.071  16.549  0.00  0.00    +0.000 A 
BRANCH  28  31
ATOM     31  N   UNL     1       7.158   4.888  13.842  0.00  0.00    +0.000 N 
ATOM     32  O   UNL     1       8.152   5.618  13.737  0.00  0.00    +0.000 OA
ATOM     33  O   UNL     1       6.752   4.119  12.959  0.00  0.00    +0.000 OA
ENDBRANCH  28  31
ENDBRANCH  22  25
ENDBRANCH  19  21
ENDBRANCH   1  19
TORSDOF 11
ENDMDL
MODEL 9
REMARK VINA RESULT:      -7.2      3.029     10.964
REMARK  Name = 
REMARK  11 active torsions:
REMARK  status: ('A' for Active; 'I' for Inactive)
REMARK    1  A    between atoms: C_2  and  C_3
REMARK    2  A    between atoms: C_3  and  N_4
REMARK    3  A    between atoms: N_4  and  C_5
REMARK    4  A    between atoms: N_4  and  S_8
REMARK    5  A    between atoms: C_5  and  C_6
REMARK    6  A    between atoms: S_8  and  C_11
REMARK    7  A    between atoms: C_14  and  N_15
REMARK    8  A    between atoms: N_15  and  C_16
REMARK    9  A    between atoms: C_16  and  N_18
REMARK   10  A    between atoms: C_19  and  C_21
REMARK   11  A    between atoms: C_24  and  N_25
REMARK                            x       y       z     vdW  Elec       q    Type
REMARK                         _______ _______ _______ _____ _____    ______ ____
ROOT
ATOM      1  N   UNL     1       0.755  10.724  18.301  0.00  0.00    +0.000 N 
ATOM      2  H   UNL     1       0.053  10.637  17.563  0.00  0.00    +0.000 HD
ENDROOT
BRANCH   1   6
ATOM      3  C   UNL     1       2.653   7.023  19.073  0.00  0.00    +0.000 A 
ATOM      4  C   UNL     1       2.852   7.693  17.861  0.00  0.00    +0.000 A 
ATOM      5  C   UNL     1       2.257   8.948  17.649  0.00  0.00    +0.000 A 
ATOM      6  C   UNL     1       1.433   9.524  18.627  0.00  0.00    +0.000 A 
ATOM      7  C   UNL     1       1.322   8.882  19.861  0.00  0.00    +0.000 A 
ATOM      8  C   UNL     1       1.902   7.628  20.080  0.00  0.00    +0.000 A 
BRANCH   3   9
ATOM      9  S   UNL     1       3.124   5.304  19.232  0.00  0.00    +0.000 S 
ATOM     10  O   UNL     1       2.031   4.649  19.918  0.00  0.00    +0.000 OA
ATOM     11  O   UNL     1       4.456   5.275  19.806  0.00  0.00    +0.000 OA
BRANCH   9  12
ATOM     12  N   UNL     1       3.243   4.732  17.588  0.00  0.00    +0.000 NA
BRANCH  12  13
ATOM     13  C   UNL     1       4.690   4.592  17.204  0.00  0.00    +0.000 C 
BRANCH  13  15
ATOM     14  C   UNL     1       6.223   5.201  15.313  0.00  0.00    +0.000 C 
ATOM     15  C   UNL     1       5.006   5.229  15.879  0.00  0.00    +0.000 C 
ENDBRANCH  13  15
ENDBRANCH  12  13
BRANCH  12  16
ATOM     16  C   UNL     1       2.502   3.454  17.360  0.00  0.00    +0.000 C 
BRANCH  16  17
ATOM     17  C   UNL     1       3.346   2.236  17.597  0.00  0.00    +0.000 C 
ATOM     18  C   UNL     1       3.436   1.523  18.728  0.00  0.00    +0.000 C 
ENDBRANCH  16  17
ENDBRANCH  12  16
ENDBRANCH   9  12
ENDBRANCH   3   9
ENDBRANCH   1   6
BRANCH   1  19
ATOM     19  C   UNL     1       0.734  11.950  18.938  0.00  0.00    +0.000 C 
ATOM     20  S   UNL     1       1.882  13.169  18.937  0.00  0.00    +0.000 S 
BRANCH  19  21
ATOM     21  N   UNL     1      -0.384  12.193  19.727  0.00  0.00    +0.000 N 
ATOM     22  C   UNL     1      -0.522  12.029  21.093  0.00  0.00    +0.000 C 
ATOM     23  O   UNL     1       0.395  11.671  21.827  0.00  0.00    +0.000 OA
ATOM     24  H   UNL     1      -1.184  12.490  19.183  0.00  0.00    +0.000 HD
BRANCH  22  25
ATOM     25  C   UNL     1      -1.867  12.287  21.682  0.00  0.00    +0.000 A 
ATOM     26  C   UNL     1      -1.998  12.109  23.067  0.00  0.00    +0.000 A 
ATOM     27  C   UNL     1      -3.213  12.355  23.710  0.00  0.00    +0.000 A 
ATOM     28  C   UNL     1      -4.311  12.788  22.959  0.00  0.00    +0.000 A 
ATOM     29  C   UNL     1      -4.194  12.978  21.573  0.00  0.00    +0.000 A 
ATOM     30  C   UNL     1      -2.971  12.723  20.932  0.00  0.00    +0.000 A 
BRANCH  28  31
ATOM     31  N   UNL     1      -5.589  13.051  23.636  0.00  0.00    +0.000 N 
ATOM     32  O   UNL     1      -5.903  14.232  23.836  0.00  0.00    +0.000 OA
ATOM     33  O   UNL     1      -6.274  12.074  23.970  0.00  0.00    +0.000 OA
ENDBRANCH  28  31
ENDBRANCH  22  25
ENDBRANCH  19  21
ENDBRANCH   1  19
TORSDOF 11
ENDMDL
