MODEL 1
REMARK VINA RESULT:      -9.9      0.000      0.000
REMARK  Name = 
REMARK  5 active torsions:
REMARK  status: ('A' for Active; 'I' for Inactive)
REMARK    1  A    between atoms: C_2  and  C_3
REMARK    2  A    between atoms: C_6  and  N_7
REMARK    3  A    between atoms: C_16  and  S_17
REMARK    4  A    between atoms: S_17  and  N_20
REMARK    5  A    between atoms: C_22  and  C_23
REMARK                            x       y       z     vdW  Elec       q    Type
REMARK                         _______ _______ _______ _____ _____    ______ ____
ROOT
ATOM      1  O   UNL     1       0.145   8.626  21.850  0.00  0.00    +0.000 OA
ATOM      2  C   UNL     1       0.495   9.339  20.916  0.00  0.00    +0.000 C 
ATOM      3  N   UNL     1       1.124   8.840  19.777  0.00  0.00    +0.000 N 
ATOM      4  C   UNL     1       1.577   9.628  18.624  0.00  0.00    +0.000 C 
ATOM      5  C   UNL     1       2.303   8.665  17.669  0.00  0.00    +0.000 C 
ATOM      6  C   UNL     1       2.500   7.460  18.540  0.00  0.00    +0.000 A 
ATOM      7  C   UNL     1       3.225   6.304  18.266  0.00  0.00    +0.000 A 
ATOM      8  C   UNL     1       3.215   5.268  19.217  0.00  0.00    +0.000 A 
ATOM      9  C   UNL     1       2.539   5.428  20.439  0.00  0.00    +0.000 A 
ATOM     10  C   UNL     1       1.801   6.587  20.686  0.00  0.00    +0.000 A 
ATOM     11  C   UNL     1       1.775   7.590  19.726  0.00  0.00    +0.000 A 
ENDROOT
BRANCH   2  12
ATOM     12  C   UNL     1       0.320  10.779  21.024  0.00  0.00    +0.000 A 
ATOM     13  C   UNL     1      -0.754  11.552  20.609  0.00  0.00    +0.000 A 
ATOM     14  C   UNL     1      -0.343  12.903  20.688  0.00  0.00    +0.000 A 
ATOM     15  C   UNL     1       0.943  12.864  21.168  0.00  0.00    +0.000 A 
ATOM     16  O   UNL     1       1.345  11.592  21.428  0.00  0.00    +0.000 OA
BRANCH  15  17
ATOM     17  N   UNL     1       1.912  13.900  21.352  0.00  0.00    +0.000 N 
ATOM     18  O   UNL     1       2.899  13.870  20.613  0.00  0.00    +0.000 OA
ATOM     19  O   UNL     1       1.691  14.737  22.240  0.00  0.00    +0.000 OA
ENDBRANCH  15  17
ENDBRANCH   2  12
BRANCH   8  20
ATOM     20  S   UNL     1       4.145   3.768  18.886  0.00  0.00    +0.000 S 
ATOM     21  O   UNL     1       4.881   3.460  20.086  0.00  0.00    +0.000 OA
ATOM     22  O   UNL     1       3.204   2.812  18.334  0.00  0.00    +0.000 OA
BRANCH  20  23
ATOM     23  N   UNL     1       5.190   4.200  17.669  0.00  0.00    +0.000 N 
ATOM     24  C   UNL     1       4.792   4.116  16.248  0.00  0.00    +0.000 C 
ATOM     25  C   UNL     1       5.901   4.971  15.606  0.00  0.00    +0.000 C 
ATOM     26  N   UNL     1       6.994   4.890  16.554  0.00  0.00    +0.000 N 
ATOM     27  C   UNL     1       6.523   4.596  17.808  0.00  0.00    +0.000 C 
ATOM     28  O   UNL     1       7.171   4.702  18.836  0.00  0.00    +0.000 OA
ATOM     29  H   UNL     1       7.874   5.368  16.456  0.00  0.00    +0.000 HD
BRANCH  25  30
ATOM     30  C   UNL     1       6.321   4.585  14.209  0.00  0.00    +0.000 A 
ATOM     31  C   UNL     1       7.441   5.186  13.609  0.00  0.00    +0.000 A 
ATOM     32  C   UNL     1       7.803   4.864  12.298  0.00  0.00    +0.000 A 
ATOM     33  C   UNL     1       7.058   3.934  11.575  0.00  0.00    +0.000 A 
ATOM     34  C   UNL     1       5.965   3.309  12.168  0.00  0.00    +0.000 A 
ATOM     35  C   UNL     1       5.601   3.629  13.477  0.00  0.00    +0.000 A 
ENDBRANCH  25  30
ENDBRANCH  20  23
ENDBRANCH   8  20
TORSDOF 5
ENDMDL
MODEL 2
REMARK VINA RESULT:      -9.6      0.426      1.019
REMARK  Name = 
REMARK  5 active torsions:
REMARK  status: ('A' for Active; 'I' for Inactive)
REMARK    1  A    between atoms: C_2  and  C_3
REMARK    2  A    between atoms: C_6  and  N_7
REMARK    3  A    between atoms: C_16  and  S_17
REMARK    4  A    between atoms: S_17  and  N_20
REMARK    5  A    between atoms: C_22  and  C_23
REMARK                            x       y       z     vdW  Elec       q    Type
REMARK                         _______ _______ _______ _____ _____    ______ ____
ROOT
ATOM      1  O   UNL     1       0.038   8.722  21.511  0.00  0.00    +0.000 OA
ATOM      2  C   UNL     1       0.437   9.430  20.593  0.00  0.00    +0.000 C 
ATOM      3  N   UNL     1       1.187   8.938  19.526  0.00  0.00    +0.000 N 
ATOM      4  C   UNL     1       1.705   9.722  18.399  0.00  0.00    +0.000 C 
ATOM      5  C   UNL     1       2.554   8.774  17.535  0.00  0.00    +0.000 C 
ATOM      6  C   UNL     1       2.726   7.598  18.449  0.00  0.00    +0.000 A 
ATOM      7  C   UNL     1       3.523   6.471  18.268  0.00  0.00    +0.000 A 
ATOM      8  C   UNL     1       3.475   5.456  19.240  0.00  0.00    +0.000 A 
ATOM      9  C   UNL     1       2.687   5.610  20.395  0.00  0.00    +0.000 A 
ATOM     10  C   UNL     1       1.879   6.738  20.547  0.00  0.00    +0.000 A 
ATOM     11  C   UNL     1       1.894   7.718  19.564  0.00  0.00    +0.000 A 
ENDROOT
BRANCH   2  12
ATOM     12  C   UNL     1       0.190  10.864  20.650  0.00  0.00    +0.000 A 
ATOM     13  C   UNL     1      -0.895  11.572  20.156  0.00  0.00    +0.000 A 
ATOM     14  C   UNL     1      -0.552  12.943  20.217  0.00  0.00    +0.000 A 
ATOM     15  C   UNL     1       0.706  12.979  20.765  0.00  0.00    +0.000 A 
ATOM     16  O   UNL     1       1.152  11.735  21.083  0.00  0.00    +0.000 OA
BRANCH  15  17
ATOM     17  N   UNL     1       1.614  14.065  20.970  0.00  0.00    +0.000 N 
ATOM     18  O   UNL     1       2.003  14.248  22.126  0.00  0.00    +0.000 OA
ATOM     19  O   UNL     1       1.930  14.740  19.978  0.00  0.00    +0.000 OA
ENDBRANCH  15  17
ENDBRANCH   2  12
BRANCH   8  20
ATOM     20  S   UNL     1       4.497   3.994  19.029  0.00  0.00    +0.000 S 
ATOM     21  O   UNL     1       5.288   3.862  20.227  0.00  0.00    +0.000 OA
ATOM     22  O   UNL     1       3.608   2.926  18.613  0.00  0.00    +0.000 OA
BRANCH  20  23
ATOM     23  N   UNL     1       5.472   4.365  17.737  0.00  0.00    +0.000 N 
ATOM     24  C   UNL     1       4.973   4.282  16.348  0.00  0.00    +0.000 C 
ATOM     25  C   UNL     1       6.071   5.079  15.618  0.00  0.00    +0.000 C 
ATOM     26  N   UNL     1       7.222   4.962  16.490  0.00  0.00    +0.000 N 
ATOM     27  C   UNL     1       6.828   4.703  17.778  0.00  0.00    +0.000 C 
ATOM     28  O   UNL     1       7.549   4.793  18.757  0.00  0.00    +0.000 OA
ATOM     29  H   UNL     1       8.114   5.400  16.324  0.00  0.00    +0.000 HD
BRANCH  25  30
ATOM     30  C   UNL     1       6.375   4.658  14.202  0.00  0.00    +0.000 A 
ATOM     31  C   UNL     1       5.589   3.685  13.562  0.00  0.00    +0.000 A 
ATOM     32  C   UNL     1       5.898   3.260  12.267  0.00  0.00    +0.000 A 
ATOM     33  C   UNL     1       6.988   3.807  11.593  0.00  0.00    +0.000 A 
ATOM     34  C   UNL     1       7.757   4.794  12.204  0.00  0.00    +0.000 A 
ATOM     35  C   UNL     1       7.450   5.220  13.497  0.00  0.00    +0.000 A 
ENDBRANCH  25  30
ENDBRANCH  20  23
ENDBRANCH   8  20
TORSDOF 5
ENDMDL
MODEL 3
REMARK VINA RESULT:      -9.3      2.062      2.745
REMARK  Name = 
REMARK  5 active torsions:
REMARK  status: ('A' for Active; 'I' for Inactive)
REMARK    1  A    between atoms: C_2  and  C_3
REMARK    2  A    between atoms: C_6  and  N_7
REMARK    3  A    between atoms: C_16  and  S_17
REMARK    4  A    between atoms: S_17  and  N_20
REMARK    5  A    between atoms: C_22  and  C_23
REMARK                            x       y       z     vdW  Elec       q    Type
REMARK                         _______ _______ _______ _____ _____    ______ ____
ROOT
ATOM      1  O   UNL     1       1.785  10.889  18.209  0.00  0.00    +0.000 OA
ATOM      2  C   UNL     1       1.057  10.687  19.175  0.00  0.00    +0.000 C 
ATOM      3  N   UNL     1       1.147   9.542  19.965  0.00  0.00    +0.000 N 
ATOM      4  C   UNL     1       0.310   9.228  21.129  0.00  0.00    +0.000 C 
ATOM      5  C   UNL     1       0.705   7.821  21.609  0.00  0.00    +0.000 C 
ATOM      6  C   UNL     1       1.507   7.314  20.447  0.00  0.00    +0.000 A 
ATOM      7  C   UNL     1       2.020   6.037  20.241  0.00  0.00    +0.000 A 
ATOM      8  C   UNL     1       2.804   5.809  19.097  0.00  0.00    +0.000 A 
ATOM      9  C   UNL     1       3.009   6.834  18.156  0.00  0.00    +0.000 A 
ATOM     10  C   UNL     1       2.503   8.113  18.391  0.00  0.00    +0.000 A 
ATOM     11  C   UNL     1       1.767   8.348  19.544  0.00  0.00    +0.000 A 
ENDROOT
BRANCH   2  12
ATOM     12  C   UNL     1      -0.002  11.640  19.471  0.00  0.00    +0.000 A 
ATOM     13  C   UNL     1       0.024  12.713  20.350  0.00  0.00    +0.000 A 
ATOM     14  C   UNL     1      -1.310  13.165  20.484  0.00  0.00    +0.000 A 
ATOM     15  C   UNL     1      -2.053  12.356  19.661  0.00  0.00    +0.000 A 
ATOM     16  O   UNL     1      -1.273  11.461  18.998  0.00  0.00    +0.000 OA
BRANCH  15  17
ATOM     17  N   UNL     1      -3.466  12.257  19.462  0.00  0.00    +0.000 N 
ATOM     18  O   UNL     1      -4.180  12.841  20.281  0.00  0.00    +0.000 OA
ATOM     19  O   UNL     1      -3.861  11.590  18.494  0.00  0.00    +0.000 OA
ENDBRANCH  15  17
ENDBRANCH   2  12
BRANCH   8  20
ATOM     20  S   UNL     1       3.474   4.168  18.809  0.00  0.00    +0.000 S 
ATOM     21  O   UNL     1       4.019   3.713  20.064  0.00  0.00    +0.000 OA
ATOM     22  O   UNL     1       2.434   3.409  18.141  0.00  0.00    +0.000 OA
BRANCH  20  23
ATOM     23  N   UNL     1       4.696   4.416  17.712  0.00  0.00    +0.000 N 
ATOM     24  C   UNL     1       4.431   4.437  16.258  0.00  0.00    +0.000 C 
ATOM     25  C   UNL     1       5.739   5.077  15.754  0.00  0.00    +0.000 C 
ATOM     26  N   UNL     1       6.698   4.771  16.796  0.00  0.00    +0.000 N 
ATOM     27  C   UNL     1       6.060   4.547  17.989  0.00  0.00    +0.000 C 
ATOM     28  O   UNL     1       6.612   4.507  19.076  0.00  0.00    +0.000 OA
ATOM     29  H   UNL     1       7.658   5.074  16.798  0.00  0.00    +0.000 HD
BRANCH  25  30
ATOM     30  C   UNL     1       6.213   4.646  14.389  0.00  0.00    +0.000 A 
ATOM     31  C   UNL     1       7.393   5.179  13.842  0.00  0.00    +0.000 A 
ATOM     32  C   UNL     1       7.809   4.816  12.558  0.00  0.00    +0.000 A 
ATOM     33  C   UNL     1       7.059   3.912  11.810  0.00  0.00    +0.000 A 
ATOM     34  C   UNL     1       5.904   3.353  12.351  0.00  0.00    +0.000 A 
ATOM     35  C   UNL     1       5.487   3.714  13.634  0.00  0.00    +0.000 A 
ENDBRANCH  25  30
ENDBRANCH  20  23
ENDBRANCH   8  20
TORSDOF 5
ENDMDL
MODEL 4
REMARK VINA RESULT:      -9.2      1.566      2.307
REMARK  Name = 
REMARK  5 active torsions:
REMARK  status: ('A' for Active; 'I' for Inactive)
REMARK    1  A    between atoms: C_2  and  C_3
REMARK    2  A    between atoms: C_6  and  N_7
REMARK    3  A    between atoms: C_16  and  S_17
REMARK    4  A    between atoms: S_17  and  N_20
REMARK    5  A    between atoms: C_22  and  C_23
REMARK                            x       y       z     vdW  Elec       q    Type
REMARK                         _______ _______ _______ _____ _____    ______ ____
ROOT
ATOM      1  O   UNL     1       1.724  10.331  17.790  0.00  0.00    +0.000 OA
ATOM      2  C   UNL     1       1.049  10.078  18.781  0.00  0.00    +0.000 C 
ATOM      3  N   UNL     1       1.330   9.015  19.638  0.00  0.00    +0.000 N 
ATOM      4  C   UNL     1       0.567   8.645  20.836  0.00  0.00    +0.000 C 
ATOM      5  C   UNL     1       1.188   7.353  21.393  0.00  0.00    +0.000 C 
ATOM      6  C   UNL     1       2.048   6.908  20.248  0.00  0.00    +0.000 A 
ATOM      7  C   UNL     1       2.756   5.718  20.110  0.00  0.00    +0.000 A 
ATOM      8  C   UNL     1       3.555   5.545  18.966  0.00  0.00    +0.000 A 
ATOM      9  C   UNL     1       3.583   6.527  17.959  0.00  0.00    +0.000 A 
ATOM     10  C   UNL     1       2.881   7.722  18.126  0.00  0.00    +0.000 A 
ATOM     11  C   UNL     1       2.129   7.910  19.278  0.00  0.00    +0.000 A 
ENDROOT
BRANCH   2  12
ATOM     12  C   UNL     1      -0.146  10.867  19.041  0.00  0.00    +0.000 A 
ATOM     13  C   UNL     1      -1.378  10.801  18.407  0.00  0.00    +0.000 A 
ATOM     14  C   UNL     1      -2.115  11.933  18.825  0.00  0.00    +0.000 A 
ATOM     15  C   UNL     1      -1.295  12.598  19.702  0.00  0.00    +0.000 A 
ATOM     16  O   UNL     1      -0.119  11.941  19.887  0.00  0.00    +0.000 OA
BRANCH  15  17
ATOM     17  N   UNL     1      -1.443  13.859  20.359  0.00  0.00    +0.000 N 
ATOM     18  O   UNL     1      -2.598  14.258  20.532  0.00  0.00    +0.000 OA
ATOM     19  O   UNL     1      -0.407  14.454  20.693  0.00  0.00    +0.000 OA
ENDBRANCH  15  17
ENDBRANCH   2  12
BRANCH   8  20
ATOM     20  S   UNL     1       4.476   4.017  18.765  0.00  0.00    +0.000 S 
ATOM     21  O   UNL     1       5.256   3.839  19.964  0.00  0.00    +0.000 OA
ATOM     22  O   UNL     1       3.518   3.008  18.355  0.00  0.00    +0.000 OA
BRANCH  20  23
ATOM     23  N   UNL     1       5.474   4.313  17.471  0.00  0.00    +0.000 N 
ATOM     24  C   UNL     1       4.971   4.258  16.083  0.00  0.00    +0.000 C 
ATOM     25  C   UNL     1       6.121   4.974  15.350  0.00  0.00    +0.000 C 
ATOM     26  N   UNL     1       7.262   4.780  16.222  0.00  0.00    +0.000 N 
ATOM     27  C   UNL     1       6.851   4.556  17.511  0.00  0.00    +0.000 C 
ATOM     28  O   UNL     1       7.577   4.599  18.490  0.00  0.00    +0.000 OA
ATOM     29  H   UNL     1       8.182   5.154  16.054  0.00  0.00    +0.000 HD
BRANCH  25  30
ATOM     30  C   UNL     1       6.395   4.526  13.935  0.00  0.00    +0.000 A 
ATOM     31  C   UNL     1       5.601   3.535  13.334  0.00  0.00    +0.000 A 
ATOM     32  C   UNL     1       5.883   3.086  12.041  0.00  0.00    +0.000 A 
ATOM     33  C   UNL     1       6.952   3.626  11.330  0.00  0.00    +0.000 A 
ATOM     34  C   UNL     1       7.728   4.631  11.903  0.00  0.00    +0.000 A 
ATOM     35  C   UNL     1       7.449   5.081  13.194  0.00  0.00    +0.000 A 
ENDBRANCH  25  30
ENDBRANCH  20  23
ENDBRANCH   8  20
TORSDOF 5
ENDMDL
MODEL 5
REMARK VINA RESULT:      -9.2      1.233      1.313
REMARK  Name = 
REMARK  5 active torsions:
REMARK  status: ('A' for Active; 'I' for Inactive)
REMARK    1  A    between atoms: C_2  and  C_3
REMARK    2  A    between atoms: C_6  and  N_7
REMARK    3  A    between atoms: C_16  and  S_17
REMARK    4  A    between atoms: S_17  and  N_20
REMARK    5  A    between atoms: C_22  and  C_23
REMARK                            x       y       z     vdW  Elec       q    Type
REMARK                         _______ _______ _______ _____ _____    ______ ____
ROOT
ATOM      1  O   UNL     1      -0.103   8.146  21.753  0.00  0.00    +0.000 OA
ATOM      2  C   UNL     1       0.311   8.938  20.914  0.00  0.00    +0.000 C 
ATOM      3  N   UNL     1       1.075   8.547  19.816  0.00  0.00    +0.000 N 
ATOM      4  C   UNL     1       1.612   9.434  18.776  0.00  0.00    +0.000 C 
ATOM      5  C   UNL     1       2.471   8.571  17.838  0.00  0.00    +0.000 C 
ATOM      6  C   UNL     1       2.627   7.311  18.637  0.00  0.00    +0.000 A 
ATOM      7  C   UNL     1       3.424   6.204  18.360  0.00  0.00    +0.000 A 
ATOM      8  C   UNL     1       3.359   5.101  19.229  0.00  0.00    +0.000 A 
ATOM      9  C   UNL     1       2.554   5.145  20.381  0.00  0.00    +0.000 A 
ATOM     10  C   UNL     1       1.747   6.257  20.630  0.00  0.00    +0.000 A 
ATOM     11  C   UNL     1       1.779   7.327  19.746  0.00  0.00    +0.000 A 
ENDROOT
BRANCH   2  12
ATOM     12  C   UNL     1       0.067  10.360  21.105  0.00  0.00    +0.000 A 
ATOM     13  C   UNL     1      -0.235  11.034  22.279  0.00  0.00    +0.000 A 
ATOM     14  C   UNL     1      -0.641  12.338  21.912  0.00  0.00    +0.000 A 
ATOM     15  C   UNL     1      -0.537  12.379  20.544  0.00  0.00    +0.000 A 
ATOM     16  O   UNL     1      -0.059  11.209  20.040  0.00  0.00    +0.000 OA
BRANCH  15  17
ATOM     17  N   UNL     1      -0.911  13.386  19.600  0.00  0.00    +0.000 N 
ATOM     18  O   UNL     1      -0.774  13.102  18.407  0.00  0.00    +0.000 OA
ATOM     19  O   UNL     1      -1.334  14.462  20.050  0.00  0.00    +0.000 OA
ENDBRANCH  15  17
ENDBRANCH   2  12
BRANCH   8  20
ATOM     20  S   UNL     1       4.380   3.662  18.893  0.00  0.00    +0.000 S 
ATOM     21  O   UNL     1       5.129   3.392  20.095  0.00  0.00    +0.000 OA
ATOM     22  O   UNL     1       3.501   2.654  18.332  0.00  0.00    +0.000 OA
BRANCH  20  23
ATOM     23  N   UNL     1       5.401   4.164  17.683  0.00  0.00    +0.000 N 
ATOM     24  C   UNL     1       5.001   4.100  16.263  0.00  0.00    +0.000 C 
ATOM     25  C   UNL     1       6.073   5.013  15.638  0.00  0.00    +0.000 C 
ATOM     26  N   UNL     1       7.172   4.951  16.579  0.00  0.00    +0.000 N 
ATOM     27  C   UNL     1       6.719   4.608  17.828  0.00  0.00    +0.000 C 
ATOM     28  O   UNL     1       7.367   4.713  18.855  0.00  0.00    +0.000 OA
ATOM     29  H   UNL     1       8.033   5.465  16.490  0.00  0.00    +0.000 HD
BRANCH  25  30
ATOM     30  C   UNL     1       6.500   4.679  14.230  0.00  0.00    +0.000 A 
ATOM     31  C   UNL     1       7.548   5.385  13.615  0.00  0.00    +0.000 A 
ATOM     32  C   UNL     1       7.914   5.108  12.295  0.00  0.00    +0.000 A 
ATOM     33  C   UNL     1       7.246   4.120  11.577  0.00  0.00    +0.000 A 
ATOM     34  C   UNL     1       6.226   3.391  12.184  0.00  0.00    +0.000 A 
ATOM     35  C   UNL     1       5.858   3.666  13.502  0.00  0.00    +0.000 A 
ENDBRANCH  25  30
ENDBRANCH  20  23
ENDBRANCH   8  20
TORSDOF 5
ENDMDL
MODEL 6
REMARK VINA RESULT:      -9.1      1.848      2.385
REMARK  Name = 
REMARK  5 active torsions:
REMARK  status: ('A' for Active; 'I' for Inactive)
REMARK    1  A    between atoms: C_2  and  C_3
REMARK    2  A    between atoms: C_6  and  N_7
REMARK    3  A    between atoms: C_16  and  S_17
REMARK    4  A    between atoms: S_17  and  N_20
REMARK    5  A    between atoms: C_22  and  C_23
REMARK                            x       y       z     vdW  Elec       q    Type
REMARK                         _______ _______ _______ _____ _____    ______ ____
ROOT
ATOM      1  O   UNL     1       1.600  10.102  17.483  0.00  0.00    +0.000 OA
ATOM      2  C   UNL     1       0.926   9.853  18.477  0.00  0.00    +0.000 C 
ATOM      3  N   UNL     1       1.284   8.882  19.411  0.00  0.00    +0.000 N 
ATOM      4  C   UNL     1       0.528   8.523  20.617  0.00  0.00    +0.000 C 
ATOM      5  C   UNL     1       1.253   7.336  21.273  0.00  0.00    +0.000 C 
ATOM      6  C   UNL     1       2.179   6.898  20.179  0.00  0.00    +0.000 A 
ATOM      7  C   UNL     1       2.998   5.774  20.137  0.00  0.00    +0.000 A 
ATOM      8  C   UNL     1       3.838   5.601  19.022  0.00  0.00    +0.000 A 
ATOM      9  C   UNL     1       3.800   6.511  17.951  0.00  0.00    +0.000 A 
ATOM     10  C   UNL     1       2.986   7.643  18.022  0.00  0.00    +0.000 A 
ATOM     11  C   UNL     1       2.191   7.836  19.143  0.00  0.00    +0.000 A 
ENDROOT
BRANCH   2  12
ATOM     12  C   UNL     1      -0.343  10.541  18.658  0.00  0.00    +0.000 A 
ATOM     13  C   UNL     1      -1.467  10.508  17.846  0.00  0.00    +0.000 A 
ATOM     14  C   UNL     1      -2.329  11.534  18.296  0.00  0.00    +0.000 A 
ATOM     15  C   UNL     1      -1.686  12.106  19.366  0.00  0.00    +0.000 A 
ATOM     16  O   UNL     1      -0.507  11.486  19.635  0.00  0.00    +0.000 OA
BRANCH  15  17
ATOM     17  N   UNL     1      -2.009  13.254  20.156  0.00  0.00    +0.000 N 
ATOM     18  O   UNL     1      -1.059  13.908  20.593  0.00  0.00    +0.000 OA
ATOM     19  O   UNL     1      -3.211  13.496  20.346  0.00  0.00    +0.000 OA
ENDBRANCH  15  17
ENDBRANCH   2  12
BRANCH   8  20
ATOM     20  S   UNL     1       4.903   4.157  18.945  0.00  0.00    +0.000 S 
ATOM     21  O   UNL     1       5.791   4.233  20.078  0.00  0.00    +0.000 OA
ATOM     22  O   UNL     1       4.031   3.010  18.770  0.00  0.00    +0.000 OA
BRANCH  20  23
ATOM     23  N   UNL     1       5.755   4.357  17.535  0.00  0.00    +0.000 N 
ATOM     24  C   UNL     1       5.094   4.266  16.216  0.00  0.00    +0.000 C 
ATOM     25  C   UNL     1       6.178   4.902  15.325  0.00  0.00    +0.000 C 
ATOM     26  N   UNL     1       7.403   4.697  16.071  0.00  0.00    +0.000 N 
ATOM     27  C   UNL     1       7.135   4.543  17.407  0.00  0.00    +0.000 C 
ATOM     28  O   UNL     1       7.970   4.597  18.294  0.00  0.00    +0.000 OA
ATOM     29  H   UNL     1       8.311   5.025  15.783  0.00  0.00    +0.000 HD
BRANCH  25  30
ATOM     30  C   UNL     1       6.270   4.386  13.911  0.00  0.00    +0.000 A 
ATOM     31  C   UNL     1       7.414   4.636  13.133  0.00  0.00    +0.000 A 
ATOM     32  C   UNL     1       7.482   4.199  11.807  0.00  0.00    +0.000 A 
ATOM     33  C   UNL     1       6.415   3.502  11.246  0.00  0.00    +0.000 A 
ATOM     34  C   UNL     1       5.288   3.221  12.014  0.00  0.00    +0.000 A 
ATOM     35  C   UNL     1       5.218   3.656  13.339  0.00  0.00    +0.000 A 
ENDBRANCH  25  30
ENDBRANCH  20  23
ENDBRANCH   8  20
TORSDOF 5
ENDMDL
MODEL 7
REMARK VINA RESULT:      -9.0      1.369      1.977
REMARK  Name = 
REMARK  5 active torsions:
REMARK  status: ('A' for Active; 'I' for Inactive)
REMARK    1  A    between atoms: C_2  and  C_3
REMARK    2  A    between atoms: C_6  and  N_7
REMARK    3  A    between atoms: C_16  and  S_17
REMARK    4  A    between atoms: S_17  and  N_20
REMARK    5  A    between atoms: C_22  and  C_23
REMARK                            x       y       z     vdW  Elec       q    Type
REMARK                         _______ _______ _______ _____ _____    ______ ____
ROOT
ATOM      1  O   UNL     1       1.738  10.714  18.217  0.00  0.00    +0.000 OA
ATOM      2  C   UNL     1       1.026  10.488  19.189  0.00  0.00    +0.000 C 
ATOM      3  N   UNL     1       1.158   9.345  19.976  0.00  0.00    +0.000 N 
ATOM      4  C   UNL     1       0.342   9.002  21.147  0.00  0.00    +0.000 C 
ATOM      5  C   UNL     1       0.785   7.608  21.620  0.00  0.00    +0.000 C 
ATOM      6  C   UNL     1       1.592   7.129  20.451  0.00  0.00    +0.000 A 
ATOM      7  C   UNL     1       2.142   5.868  20.238  0.00  0.00    +0.000 A 
ATOM      8  C   UNL     1       2.923   5.666  19.086  0.00  0.00    +0.000 A 
ATOM      9  C   UNL     1       3.088   6.699  18.145  0.00  0.00    +0.000 A 
ATOM     10  C   UNL     1       2.545   7.961  18.388  0.00  0.00    +0.000 A 
ATOM     11  C   UNL     1       1.812   8.171  19.548  0.00  0.00    +0.000 A 
ENDROOT
BRANCH   2  12
ATOM     12  C   UNL     1      -0.060  11.407  19.497  0.00  0.00    +0.000 A 
ATOM     13  C   UNL     1      -1.351  11.418  18.990  0.00  0.00    +0.000 A 
ATOM     14  C   UNL     1      -1.936  12.643  19.384  0.00  0.00    +0.000 A 
ATOM     15  C   UNL     1      -0.974  13.285  20.123  0.00  0.00    +0.000 A 
ATOM     16  O   UNL     1       0.151  12.531  20.248  0.00  0.00    +0.000 OA
BRANCH  15  17
ATOM     17  N   UNL     1      -0.939  14.598  20.689  0.00  0.00    +0.000 N 
ATOM     18  O   UNL     1      -1.057  15.541  19.901  0.00  0.00    +0.000 OA
ATOM     19  O   UNL     1      -0.785  14.687  21.916  0.00  0.00    +0.000 OA
ENDBRANCH  15  17
ENDBRANCH   2  12
BRANCH   8  20
ATOM     20  S   UNL     1       3.642   4.048  18.789  0.00  0.00    +0.000 S 
ATOM     21  O   UNL     1       4.236   3.621  20.031  0.00  0.00    +0.000 OA
ATOM     22  O   UNL     1       2.610   3.248  18.155  0.00  0.00    +0.000 OA
BRANCH  20  23
ATOM     23  N   UNL     1       4.823   4.331  17.657  0.00  0.00    +0.000 N 
ATOM     24  C   UNL     1       4.518   4.326  16.211  0.00  0.00    +0.000 C 
ATOM     25  C   UNL     1       5.787   5.010  15.665  0.00  0.00    +0.000 C 
ATOM     26  N   UNL     1       6.785   4.751  16.683  0.00  0.00    +0.000 N 
ATOM     27  C   UNL     1       6.188   4.516  17.895  0.00  0.00    +0.000 C 
ATOM     28  O   UNL     1       6.770   4.509  18.967  0.00  0.00    +0.000 OA
ATOM     29  H   UNL     1       7.732   5.090  16.656  0.00  0.00    +0.000 HD
BRANCH  25  30
ATOM     30  C   UNL     1       6.240   4.583  14.291  0.00  0.00    +0.000 A 
ATOM     31  C   UNL     1       7.415   5.113  13.731  0.00  0.00    +0.000 A 
ATOM     32  C   UNL     1       7.812   4.753  12.440  0.00  0.00    +0.000 A 
ATOM     33  C   UNL     1       7.047   3.856  11.698  0.00  0.00    +0.000 A 
ATOM     34  C   UNL     1       5.897   3.300  12.253  0.00  0.00    +0.000 A 
ATOM     35  C   UNL     1       5.499   3.657  13.542  0.00  0.00    +0.000 A 
ENDBRANCH  25  30
ENDBRANCH  20  23
ENDBRANCH   8  20
TORSDOF 5
ENDMDL
MODEL 8
REMARK VINA RESULT:      -9.0      3.436     10.082
REMARK  Name = 
REMARK  5 active torsions:
REMARK  status: ('A' for Active; 'I' for Inactive)
REMARK    1  A    between atoms: C_2  and  C_3
REMARK    2  A    between atoms: C_6  and  N_7
REMARK    3  A    between atoms: C_16  and  S_17
REMARK    4  A    between atoms: S_17  and  N_20
REMARK    5  A    between atoms: C_22  and  C_23
REMARK                            x       y       z     vdW  Elec       q    Type
REMARK                         _______ _______ _______ _____ _____    ______ ____
ROOT
ATOM      1  O   UNL     1       2.949   8.146  16.808  0.00  0.00    +0.000 OA
ATOM      2  C   UNL     1       3.006   7.350  17.739  0.00  0.00    +0.000 C 
ATOM      3  N   UNL     1       2.235   7.478  18.893  0.00  0.00    +0.000 N 
ATOM      4  C   UNL     1       2.252   6.574  20.049  0.00  0.00    +0.000 C 
ATOM      5  C   UNL     1       1.320   7.175  21.114  0.00  0.00    +0.000 C 
ATOM      6  C   UNL     1       1.117   8.566  20.594  0.00  0.00    +0.000 A 
ATOM      7  C   UNL     1       0.469   9.634  21.208  0.00  0.00    +0.000 A 
ATOM      8  C   UNL     1       0.344  10.839  20.496  0.00  0.00    +0.000 A 
ATOM      9  C   UNL     1       0.918  10.977  19.219  0.00  0.00    +0.000 A 
ATOM     10  C   UNL     1       1.546   9.888  18.612  0.00  0.00    +0.000 A 
ATOM     11  C   UNL     1       1.628   8.685  19.300  0.00  0.00    +0.000 A 
ENDROOT
BRANCH   2  12
ATOM     12  C   UNL     1       3.974   6.265  17.681  0.00  0.00    +0.000 A 
ATOM     13  C   UNL     1       3.764   4.940  17.327  0.00  0.00    +0.000 A 
ATOM     14  C   UNL     1       4.936   4.231  17.680  0.00  0.00    +0.000 A 
ATOM     15  C   UNL     1       5.788   5.174  18.201  0.00  0.00    +0.000 A 
ATOM     16  O   UNL     1       5.245   6.420  18.162  0.00  0.00    +0.000 OA
BRANCH  15  17
ATOM     17  N   UNL     1       7.068   5.044  18.826  0.00  0.00    +0.000 N 
ATOM     18  O   UNL     1       7.959   4.519  18.153  0.00  0.00    +0.000 OA
ATOM     19  O   UNL     1       7.180   5.458  19.990  0.00  0.00    +0.000 OA
ENDBRANCH  15  17
ENDBRANCH   2  12
BRANCH   8  20
ATOM     20  S   UNL     1      -0.487  12.231  21.269  0.00  0.00    +0.000 S 
ATOM     21  O   UNL     1      -1.847  12.223  20.791  0.00  0.00    +0.000 OA
ATOM     22  O   UNL     1      -0.206  12.141  22.690  0.00  0.00    +0.000 OA
BRANCH  20  23
ATOM     23  N   UNL     1       0.319  13.559  20.683  0.00  0.00    +0.000 N 
ATOM     24  C   UNL     1      -0.356  14.548  19.818  0.00  0.00    +0.000 C 
ATOM     25  C   UNL     1       0.651  15.711  19.899  0.00  0.00    +0.000 C 
ATOM     26  N   UNL     1       1.903  15.063  20.231  0.00  0.00    +0.000 N 
ATOM     27  C   UNL     1       1.674  13.860  20.849  0.00  0.00    +0.000 C 
ATOM     28  O   UNL     1       2.518  13.215  21.449  0.00  0.00    +0.000 OA
ATOM     29  H   UNL     1       2.773  15.544  20.392  0.00  0.00    +0.000 HD
BRANCH  25  30
ATOM     30  C   UNL     1       0.762  16.588  18.676  0.00  0.00    +0.000 A 
ATOM     31  C   UNL     1       2.006  16.789  18.053  0.00  0.00    +0.000 A 
ATOM     32  C   UNL     1       2.119  17.638  16.949  0.00  0.00    +0.000 A 
ATOM     33  C   UNL     1       0.993  18.289  16.449  0.00  0.00    +0.000 A 
ATOM     34  C   UNL     1      -0.250  18.075  17.038  0.00  0.00    +0.000 A 
ATOM     35  C   UNL     1      -0.366  17.227  18.141  0.00  0.00    +0.000 A 
ENDBRANCH  25  30
ENDBRANCH  20  23
ENDBRANCH   8  20
TORSDOF 5
ENDMDL
MODEL 9
REMARK VINA RESULT:      -9.0      2.057      2.785
REMARK  Name = 
REMARK  5 active torsions:
REMARK  status: ('A' for Active; 'I' for Inactive)
REMARK    1  A    between atoms: C_2  and  C_3
REMARK    2  A    between atoms: C_6  and  N_7
REMARK    3  A    between atoms: C_16  and  S_17
REMARK    4  A    between atoms: S_17  and  N_20
REMARK    5  A    between atoms: C_22  and  C_23
REMARK                            x       y       z     vdW  Elec       q    Type
REMARK                         _______ _______ _______ _____ _____    ______ ____
ROOT
ATOM      1  O   UNL     1       1.669  10.391  17.492  0.00  0.00    +0.000 OA
ATOM      2  C   UNL     1       1.008   9.971  18.434  0.00  0.00    +0.000 C 
ATOM      3  N   UNL     1       1.426   8.915  19.242  0.00  0.00    +0.000 N 
ATOM      4  C   UNL     1       0.689   8.352  20.380  0.00  0.00    +0.000 C 
ATOM      5  C   UNL     1       1.491   7.144  20.892  0.00  0.00    +0.000 C 
ATOM      6  C   UNL     1       2.455   6.916  19.766  0.00  0.00    +0.000 A 
ATOM      7  C   UNL     1       3.353   5.867  19.595  0.00  0.00    +0.000 A 
ATOM      8  C   UNL     1       4.212   5.897  18.482  0.00  0.00    +0.000 A 
ATOM      9  C   UNL     1       4.116   6.933  17.535  0.00  0.00    +0.000 A 
ATOM     10  C   UNL     1       3.223   7.986  17.736  0.00  0.00    +0.000 A 
ATOM     11  C   UNL     1       2.408   7.977  18.859  0.00  0.00    +0.000 A 
ENDROOT
BRANCH   2  12
ATOM     12  C   UNL     1      -0.309  10.539  18.681  0.00  0.00    +0.000 A 
ATOM     13  C   UNL     1      -1.495  10.293  18.006  0.00  0.00    +0.000 A 
ATOM     14  C   UNL     1      -2.423  11.270  18.437  0.00  0.00    +0.000 A 
ATOM     15  C   UNL     1      -1.748  12.029  19.361  0.00  0.00    +0.000 A 
ATOM     16  O   UNL     1      -0.484  11.571  19.563  0.00  0.00    +0.000 OA
BRANCH  15  17
ATOM     17  N   UNL     1      -2.124  13.222  20.055  0.00  0.00    +0.000 N 
ATOM     18  O   UNL     1      -1.218  14.022  20.305  0.00  0.00    +0.000 OA
ATOM     19  O   UNL     1      -3.319  13.355  20.358  0.00  0.00    +0.000 OA
ENDBRANCH  15  17
ENDBRANCH   2  12
BRANCH   8  20
ATOM     20  S   UNL     1       5.377   4.553  18.239  0.00  0.00    +0.000 S 
ATOM     21  O   UNL     1       6.512   4.827  19.084  0.00  0.00    +0.000 OA
ATOM     22  O   UNL     1       4.625   3.322  18.395  0.00  0.00    +0.000 OA
BRANCH  20  23
ATOM     23  N   UNL     1       5.809   4.676  16.641  0.00  0.00    +0.000 N 
ATOM     24  C   UNL     1       5.182   3.827  15.606  0.00  0.00    +0.000 C 
ATOM     25  C   UNL     1       5.610   4.587  14.336  0.00  0.00    +0.000 C 
ATOM     26  N   UNL     1       6.806   5.297  14.744  0.00  0.00    +0.000 N 
ATOM     27  C   UNL     1       6.816   5.483  16.103  0.00  0.00    +0.000 C 
ATOM     28  O   UNL     1       7.561   6.247  16.694  0.00  0.00    +0.000 OA
ATOM     29  H   UNL     1       7.330   5.923  14.155  0.00  0.00    +0.000 HD
BRANCH  25  30
ATOM     30  C   UNL     1       5.829   3.753  13.099  0.00  0.00    +0.000 A 
ATOM     31  C   UNL     1       4.736   3.213  12.399  0.00  0.00    +0.000 A 
ATOM     32  C   UNL     1       4.939   2.402  11.279  0.00  0.00    +0.000 A 
ATOM     33  C   UNL     1       6.232   2.126  10.841  0.00  0.00    +0.000 A 
ATOM     34  C   UNL     1       7.323   2.679  11.507  0.00  0.00    +0.000 A 
ATOM     35  C   UNL     1       7.123   3.490  12.625  0.00  0.00    +0.000 A 
ENDBRANCH  25  30
ENDBRANCH  20  23
ENDBRANCH   8  20
TORSDOF 5
ENDMDL
