MODEL 1
REMARK VINA RESULT:      -8.6      0.000      0.000
REMARK  Name = 
REMARK  8 active torsions:
REMARK  status: ('A' for Active; 'I' for Inactive)
REMARK    1  A    between atoms: C_1  and  C_2
REMARK    2  A    between atoms: C_2  and  S_3
REMARK    3  A    between atoms: S_3  and  C_5
REMARK    4  A    between atoms: C_7  and  C_8
REMARK    5  A    between atoms: C_12  and  O_13
REMARK    6  A    between atoms: O_13  and  C_14
REMARK    7  A    between atoms: C_14  and  C_15
REMARK    8  A    between atoms: C_23  and  C_24
REMARK                            x       y       z     vdW  Elec       q    Type
REMARK                         _______ _______ _______ _____ _____    ______ ____
ROOT
ATOM      1  C   UNL     1       3.631   4.406  18.905  0.00  0.00    +0.000 A 
ATOM      2  N   UNL     1       2.891   5.364  19.471  0.00  0.00    +0.000 NA
ATOM      3  C   UNL     1       2.933   6.585  18.903  0.00  0.00    +0.000 A 
ATOM      4  C   UNL     1       3.691   6.820  17.769  0.00  0.00    +0.000 A 
ATOM      5  C   UNL     1       4.414   5.756  17.241  0.00  0.00    +0.000 A 
ATOM      6  N   UNL     1       4.394   4.522  17.812  0.00  0.00    +0.000 NA
ENDROOT
BRANCH   3   7
ATOM      7  C   UNL     1       2.070   7.613  19.527  0.00  0.00    +0.000 A 
ATOM      8  C   UNL     1       1.723   7.510  20.887  0.00  0.00    +0.000 A 
ATOM      9  C   UNL     1       0.892   8.448  21.500  0.00  0.00    +0.000 A 
ATOM     10  C   UNL     1       0.378   9.511  20.765  0.00  0.00    +0.000 A 
ATOM     11  C   UNL     1       0.678   9.626  19.408  0.00  0.00    +0.000 A 
ATOM     12  C   UNL     1       1.544   8.703  18.808  0.00  0.00    +0.000 A 
BRANCH  11  13
ATOM     13  O   UNL     1       0.181  10.595  18.576  0.00  0.00    +0.000 OA
BRANCH  13  14
ATOM     14  C   UNL     1      -1.072  11.154  18.979  0.00  0.00    +0.000 C 
BRANCH  14  15
ATOM     15  C   UNL     1      -2.095  10.943  17.891  0.00  0.00    +0.000 A 
ATOM     16  C   UNL     1      -3.310  11.646  17.919  0.00  0.00    +0.000 A 
ATOM     17  C   UNL     1      -4.250  11.474  16.906  0.00  0.00    +0.000 A 
ATOM     18  C   UNL     1      -3.989  10.595  15.856  0.00  0.00    +0.000 A 
ATOM     19  C   UNL     1      -2.787   9.890  15.818  0.00  0.00    +0.000 A 
ATOM     20  C   UNL     1      -1.844  10.063  16.832  0.00  0.00    +0.000 A 
ENDBRANCH  14  15
ENDBRANCH  13  14
ENDBRANCH  11  13
ENDBRANCH   3   7
BRANCH   5  21
ATOM     21  C   UNL     1       5.221   5.961  15.967  0.00  0.00    +0.000 C 
ATOM     22  F   UNL     1       4.798   7.027  15.226  0.00  0.00    +0.000 F 
ATOM     23  F   UNL     1       6.543   6.184  16.208  0.00  0.00    +0.000 F 
ATOM     24  F   UNL     1       5.164   4.890  15.127  0.00  0.00    +0.000 F 
ENDBRANCH   5  21
BRANCH   1  25
ATOM     25  S   UNL     1       3.429   2.750  19.536  0.00  0.00    +0.000 S 
ATOM     26  O   UNL     1       3.501   1.727  18.341  0.00  0.00    +0.000 OA
BRANCH  25  28
ATOM     27  C   UNL     1       1.567   2.831  21.552  0.00  0.00    +0.000 C 
ATOM     28  C   UNL     1       1.688   2.892  20.039  0.00  0.00    +0.000 C 
ENDBRANCH  25  28
ENDBRANCH   1  25
TORSDOF 7
ENDMDL
MODEL 2
REMARK VINA RESULT:      -8.5      2.520      3.630
REMARK  Name = 
REMARK  8 active torsions:
REMARK  status: ('A' for Active; 'I' for Inactive)
REMARK    1  A    between atoms: C_1  and  C_2
REMARK    2  A    between atoms: C_2  and  S_3
REMARK    3  A    between atoms: S_3  and  C_5
REMARK    4  A    between atoms: C_7  and  C_8
REMARK    5  A    between atoms: C_12  and  O_13
REMARK    6  A    between atoms: O_13  and  C_14
REMARK    7  A    between atoms: C_14  and  C_15
REMARK    8  A    between atoms: C_23  and  C_24
REMARK                            x       y       z     vdW  Elec       q    Type
REMARK                         _______ _______ _______ _____ _____    ______ ____
ROOT
ATOM      1  C   UNL     1       4.618   5.082  18.508  0.00  0.00    +0.000 A 
ATOM      2  N   UNL     1       4.009   6.197  18.920  0.00  0.00    +0.000 NA
ATOM      3  C   UNL     1       2.685   6.119  19.155  0.00  0.00    +0.000 A 
ATOM      4  C   UNL     1       2.000   4.927  18.999  0.00  0.00    +0.000 A 
ATOM      5  C   UNL     1       2.723   3.814  18.584  0.00  0.00    +0.000 A 
ATOM      6  N   UNL     1       4.056   3.880  18.327  0.00  0.00    +0.000 NA
ENDROOT
BRANCH   3   7
ATOM      7  C   UNL     1       2.047   7.359  19.651  0.00  0.00    +0.000 A 
ATOM      8  C   UNL     1       1.650   7.457  20.998  0.00  0.00    +0.000 A 
ATOM      9  C   UNL     1       1.024   8.603  21.492  0.00  0.00    +0.000 A 
ATOM     10  C   UNL     1       0.770   9.678  20.647  0.00  0.00    +0.000 A 
ATOM     11  C   UNL     1       1.122   9.601  19.300  0.00  0.00    +0.000 A 
ATOM     12  C   UNL     1       1.786   8.465  18.819  0.00  0.00    +0.000 A 
BRANCH  11  13
ATOM     13  O   UNL     1       0.867  10.573  18.367  0.00  0.00    +0.000 OA
BRANCH  13  14
ATOM     14  C   UNL     1      -0.054  11.585  18.785  0.00  0.00    +0.000 C 
BRANCH  14  15
ATOM     15  C   UNL     1      -1.446  11.221  18.332  0.00  0.00    +0.000 A 
ATOM     16  C   UNL     1      -1.642  10.152  17.444  0.00  0.00    +0.000 A 
ATOM     17  C   UNL     1      -2.926   9.795  17.038  0.00  0.00    +0.000 A 
ATOM     18  C   UNL     1      -4.028  10.504  17.512  0.00  0.00    +0.000 A 
ATOM     19  C   UNL     1      -3.846  11.569  18.394  0.00  0.00    +0.000 A 
ATOM     20  C   UNL     1      -2.560  11.926  18.801  0.00  0.00    +0.000 A 
ENDBRANCH  14  15
ENDBRANCH  13  14
ENDBRANCH  11  13
ENDBRANCH   3   7
BRANCH   5  21
ATOM     21  C   UNL     1       2.017   2.473  18.447  0.00  0.00    +0.000 C 
ATOM     22  F   UNL     1       0.659   2.585  18.353  0.00  0.00    +0.000 F 
ATOM     23  F   UNL     1       2.404   1.782  17.339  0.00  0.00    +0.000 F 
ATOM     24  F   UNL     1       2.241   1.647  19.507  0.00  0.00    +0.000 F 
ENDBRANCH   5  21
BRANCH   1  25
ATOM     25  S   UNL     1       6.397   5.132  18.382  0.00  0.00    +0.000 S 
ATOM     26  O   UNL     1       7.010   5.410  19.805  0.00  0.00    +0.000 OA
BRANCH  25  28
ATOM     27  C   UNL     1       7.785   7.427  17.795  0.00  0.00    +0.000 C 
ATOM     28  C   UNL     1       6.529   6.663  17.411  0.00  0.00    +0.000 C 
ENDBRANCH  25  28
ENDBRANCH   1  25
TORSDOF 7
ENDMDL
MODEL 3
REMARK VINA RESULT:      -8.5      2.780      3.582
REMARK  Name = 
REMARK  8 active torsions:
REMARK  status: ('A' for Active; 'I' for Inactive)
REMARK    1  A    between atoms: C_1  and  C_2
REMARK    2  A    between atoms: C_2  and  S_3
REMARK    3  A    between atoms: S_3  and  C_5
REMARK    4  A    between atoms: C_7  and  C_8
REMARK    5  A    between atoms: C_12  and  O_13
REMARK    6  A    between atoms: O_13  and  C_14
REMARK    7  A    between atoms: C_14  and  C_15
REMARK    8  A    between atoms: C_23  and  C_24
REMARK                            x       y       z     vdW  Elec       q    Type
REMARK                         _______ _______ _______ _____ _____    ______ ____
ROOT
ATOM      1  C   UNL     1       4.445   3.981  19.321  0.00  0.00    +0.000 A 
ATOM      2  N   UNL     1       3.600   5.012  19.398  0.00  0.00    +0.000 NA
ATOM      3  C   UNL     1       3.913   6.113  18.687  0.00  0.00    +0.000 A 
ATOM      4  C   UNL     1       5.047   6.153  17.896  0.00  0.00    +0.000 A 
ATOM      5  C   UNL     1       5.857   5.024  17.865  0.00  0.00    +0.000 A 
ATOM      6  N   UNL     1       5.563   3.911  18.589  0.00  0.00    +0.000 NA
ENDROOT
BRANCH   3   7
ATOM      7  C   UNL     1       2.936   7.222  18.759  0.00  0.00    +0.000 A 
ATOM      8  C   UNL     1       2.839   8.145  17.701  0.00  0.00    +0.000 A 
ATOM      9  C   UNL     1       1.946   9.217  17.747  0.00  0.00    +0.000 A 
ATOM     10  C   UNL     1       1.133   9.399  18.861  0.00  0.00    +0.000 A 
ATOM     11  C   UNL     1       1.226   8.521  19.940  0.00  0.00    +0.000 A 
ATOM     12  C   UNL     1       2.095   7.425  19.870  0.00  0.00    +0.000 A 
BRANCH  11  13
ATOM     13  O   UNL     1       0.518   8.638  21.108  0.00  0.00    +0.000 OA
BRANCH  13  14
ATOM     14  C   UNL     1       0.999   9.641  22.008  0.00  0.00    +0.000 C 
BRANCH  14  15
ATOM     15  C   UNL     1      -0.045  10.716  22.172  0.00  0.00    +0.000 A 
ATOM     16  C   UNL     1      -0.019  11.857  21.354  0.00  0.00    +0.000 A 
ATOM     17  C   UNL     1      -0.993  12.844  21.485  0.00  0.00    +0.000 A 
ATOM     18  C   UNL     1      -2.001  12.706  22.436  0.00  0.00    +0.000 A 
ATOM     19  C   UNL     1      -2.038  11.578  23.256  0.00  0.00    +0.000 A 
ATOM     20  C   UNL     1      -1.063  10.588  23.125  0.00  0.00    +0.000 A 
ENDBRANCH  14  15
ENDBRANCH  13  14
ENDBRANCH  11  13
ENDBRANCH   3   7
BRANCH   5  21
ATOM     21  C   UNL     1       7.088   5.011  16.969  0.00  0.00    +0.000 C 
ATOM     22  F   UNL     1       7.631   6.249  16.782  0.00  0.00    +0.000 F 
ATOM     23  F   UNL     1       8.095   4.240  17.466  0.00  0.00    +0.000 F 
ATOM     24  F   UNL     1       6.826   4.535  15.720  0.00  0.00    +0.000 F 
ENDBRANCH   5  21
BRANCH   1  25
ATOM     25  S   UNL     1       3.937   2.460  20.104  0.00  0.00    +0.000 S 
ATOM     26  O   UNL     1       5.208   1.700  20.637  0.00  0.00    +0.000 OA
BRANCH  25  28
ATOM     27  C   UNL     1       2.006   2.133  18.179  0.00  0.00    +0.000 C 
ATOM     28  C   UNL     1       3.361   1.599  18.611  0.00  0.00    +0.000 C 
ENDBRANCH  25  28
ENDBRANCH   1  25
TORSDOF 7
ENDMDL
MODEL 4
REMARK VINA RESULT:      -8.5      0.457      1.247
REMARK  Name = 
REMARK  8 active torsions:
REMARK  status: ('A' for Active; 'I' for Inactive)
REMARK    1  A    between atoms: C_1  and  C_2
REMARK    2  A    between atoms: C_2  and  S_3
REMARK    3  A    between atoms: S_3  and  C_5
REMARK    4  A    between atoms: C_7  and  C_8
REMARK    5  A    between atoms: C_12  and  O_13
REMARK    6  A    between atoms: O_13  and  C_14
REMARK    7  A    between atoms: C_14  and  C_15
REMARK    8  A    between atoms: C_23  and  C_24
REMARK                            x       y       z     vdW  Elec       q    Type
REMARK                         _______ _______ _______ _____ _____    ______ ____
ROOT
ATOM      1  C   UNL     1       3.714   4.327  18.842  0.00  0.00    +0.000 A 
ATOM      2  N   UNL     1       2.981   5.290  19.406  0.00  0.00    +0.000 NA
ATOM      3  C   UNL     1       3.023   6.507  18.829  0.00  0.00    +0.000 A 
ATOM      4  C   UNL     1       3.774   6.732  17.689  0.00  0.00    +0.000 A 
ATOM      5  C   UNL     1       4.490   5.662  17.163  0.00  0.00    +0.000 A 
ATOM      6  N   UNL     1       4.471   4.433  17.743  0.00  0.00    +0.000 NA
ENDROOT
BRANCH   3   7
ATOM      7  C   UNL     1       2.168   7.542  19.452  0.00  0.00    +0.000 A 
ATOM      8  C   UNL     1       1.698   7.369  20.767  0.00  0.00    +0.000 A 
ATOM      9  C   UNL     1       0.870   8.314  21.375  0.00  0.00    +0.000 A 
ATOM     10  C   UNL     1       0.482   9.454  20.678  0.00  0.00    +0.000 A 
ATOM     11  C   UNL     1       0.904   9.640  19.362  0.00  0.00    +0.000 A 
ATOM     12  C   UNL     1       1.767   8.709  18.772  0.00  0.00    +0.000 A 
BRANCH  11  13
ATOM     13  O   UNL     1       0.537  10.692  18.564  0.00  0.00    +0.000 OA
BRANCH  13  14
ATOM     14  C   UNL     1      -0.609  11.420  19.014  0.00  0.00    +0.000 C 
BRANCH  14  15
ATOM     15  C   UNL     1      -1.789  11.106  18.128  0.00  0.00    +0.000 A 
ATOM     16  C   UNL     1      -1.670  10.149  17.108  0.00  0.00    +0.000 A 
ATOM     17  C   UNL     1      -2.761   9.837  16.300  0.00  0.00    +0.000 A 
ATOM     18  C   UNL     1      -3.982  10.479  16.500  0.00  0.00    +0.000 A 
ATOM     19  C   UNL     1      -4.112  11.432  17.509  0.00  0.00    +0.000 A 
ATOM     20  C   UNL     1      -3.019  11.745  18.319  0.00  0.00    +0.000 A 
ENDBRANCH  14  15
ENDBRANCH  13  14
ENDBRANCH  11  13
ENDBRANCH   3   7
BRANCH   5  21
ATOM     21  C   UNL     1       5.290   5.856  15.883  0.00  0.00    +0.000 C 
ATOM     22  F   UNL     1       5.190   4.802  15.020  0.00  0.00    +0.000 F 
ATOM     23  F   UNL     1       4.895   6.949  15.173  0.00  0.00    +0.000 F 
ATOM     24  F   UNL     1       6.623   6.013  16.112  0.00  0.00    +0.000 F 
ENDBRANCH   5  21
BRANCH   1  25
ATOM     25  S   UNL     1       3.511   2.675  19.486  0.00  0.00    +0.000 S 
ATOM     26  O   UNL     1       2.409   1.924  18.650  0.00  0.00    +0.000 OA
BRANCH  25  28
ATOM     27  C   UNL     1       1.291   2.830  21.093  0.00  0.00    +0.000 C 
ATOM     28  C   UNL     1       2.781   3.126  21.087  0.00  0.00    +0.000 C 
ENDBRANCH  25  28
ENDBRANCH   1  25
TORSDOF 7
ENDMDL
MODEL 5
REMARK VINA RESULT:      -8.5      2.621      3.547
REMARK  Name = 
REMARK  8 active torsions:
REMARK  status: ('A' for Active; 'I' for Inactive)
REMARK    1  A    between atoms: C_1  and  C_2
REMARK    2  A    between atoms: C_2  and  S_3
REMARK    3  A    between atoms: S_3  and  C_5
REMARK    4  A    between atoms: C_7  and  C_8
REMARK    5  A    between atoms: C_12  and  O_13
REMARK    6  A    between atoms: O_13  and  C_14
REMARK    7  A    between atoms: C_14  and  C_15
REMARK    8  A    between atoms: C_23  and  C_24
REMARK                            x       y       z     vdW  Elec       q    Type
REMARK                         _______ _______ _______ _____ _____    ______ ____
ROOT
ATOM      1  C   UNL     1       4.207   5.493  17.293  0.00  0.00    +0.000 A 
ATOM      2  N   UNL     1       3.663   6.547  17.905  0.00  0.00    +0.000 NA
ATOM      3  C   UNL     1       2.564   6.321  18.651  0.00  0.00    +0.000 A 
ATOM      4  C   UNL     1       2.045   5.046  18.790  0.00  0.00    +0.000 A 
ATOM      5  C   UNL     1       2.692   4.007  18.128  0.00  0.00    +0.000 A 
ATOM      6  N   UNL     1       3.792   4.222  17.360  0.00  0.00    +0.000 NA
ENDROOT
BRANCH   3   7
ATOM      7  C   UNL     1       2.009   7.501  19.351  0.00  0.00    +0.000 A 
ATOM      8  C   UNL     1       1.746   7.441  20.732  0.00  0.00    +0.000 A 
ATOM      9  C   UNL     1       1.201   8.527  21.418  0.00  0.00    +0.000 A 
ATOM     10  C   UNL     1       0.894   9.700  20.736  0.00  0.00    +0.000 A 
ATOM     11  C   UNL     1       1.112   9.782  19.362  0.00  0.00    +0.000 A 
ATOM     12  C   UNL     1       1.697   8.703  18.687  0.00  0.00    +0.000 A 
BRANCH  11  13
ATOM     13  O   UNL     1       0.794  10.862  18.581  0.00  0.00    +0.000 OA
BRANCH  13  14
ATOM     14  C   UNL     1      -0.264  11.682  19.087  0.00  0.00    +0.000 C 
BRANCH  14  15
ATOM     15  C   UNL     1      -1.574  11.253  18.475  0.00  0.00    +0.000 A 
ATOM     16  C   UNL     1      -2.770  11.880  18.858  0.00  0.00    +0.000 A 
ATOM     17  C   UNL     1      -3.982  11.505  18.281  0.00  0.00    +0.000 A 
ATOM     18  C   UNL     1      -4.012  10.498  17.318  0.00  0.00    +0.000 A 
ATOM     19  C   UNL     1      -2.831   9.867  16.930  0.00  0.00    +0.000 A 
ATOM     20  C   UNL     1      -1.617  10.242  17.507  0.00  0.00    +0.000 A 
ENDBRANCH  14  15
ENDBRANCH  13  14
ENDBRANCH  11  13
ENDBRANCH   3   7
BRANCH   5  21
ATOM     21  C   UNL     1       2.181   2.583  18.295  0.00  0.00    +0.000 C 
ATOM     22  F   UNL     1       2.707   1.945  19.382  0.00  0.00    +0.000 F 
ATOM     23  F   UNL     1       0.830   2.521  18.453  0.00  0.00    +0.000 F 
ATOM     24  F   UNL     1       2.477   1.789  17.228  0.00  0.00    +0.000 F 
ENDBRANCH   5  21
BRANCH   1  25
ATOM     25  S   UNL     1       5.767   5.755  16.466  0.00  0.00    +0.000 S 
ATOM     26  O   UNL     1       5.540   6.675  15.209  0.00  0.00    +0.000 OA
BRANCH  25  28
ATOM     27  C   UNL     1       6.057   4.026  14.353  0.00  0.00    +0.000 C 
ATOM     28  C   UNL     1       6.015   4.056  15.872  0.00  0.00    +0.000 C 
ENDBRANCH  25  28
ENDBRANCH   1  25
TORSDOF 7
ENDMDL
MODEL 6
REMARK VINA RESULT:      -8.4      2.653      3.607
REMARK  Name = 
REMARK  8 active torsions:
REMARK  status: ('A' for Active; 'I' for Inactive)
REMARK    1  A    between atoms: C_1  and  C_2
REMARK    2  A    between atoms: C_2  and  S_3
REMARK    3  A    between atoms: S_3  and  C_5
REMARK    4  A    between atoms: C_7  and  C_8
REMARK    5  A    between atoms: C_12  and  O_13
REMARK    6  A    between atoms: O_13  and  C_14
REMARK    7  A    between atoms: C_14  and  C_15
REMARK    8  A    between atoms: C_23  and  C_24
REMARK                            x       y       z     vdW  Elec       q    Type
REMARK                         _______ _______ _______ _____ _____    ______ ____
ROOT
ATOM      1  C   UNL     1       4.633   5.271  17.405  0.00  0.00    +0.000 A 
ATOM      2  N   UNL     1       4.000   6.320  17.936  0.00  0.00    +0.000 NA
ATOM      3  C   UNL     1       2.886   6.064  18.649  0.00  0.00    +0.000 A 
ATOM      4  C   UNL     1       2.440   4.767  18.838  0.00  0.00    +0.000 A 
ATOM      5  C   UNL     1       3.177   3.738  18.261  0.00  0.00    +0.000 A 
ATOM      6  N   UNL     1       4.294   3.982  17.526  0.00  0.00    +0.000 NA
ENDROOT
BRANCH   3   7
ATOM      7  C   UNL     1       2.230   7.241  19.259  0.00  0.00    +0.000 A 
ATOM      8  C   UNL     1       1.888   7.229  20.625  0.00  0.00    +0.000 A 
ATOM      9  C   UNL     1       1.248   8.313  21.226  0.00  0.00    +0.000 A 
ATOM     10  C   UNL     1       0.922   9.436  20.473  0.00  0.00    +0.000 A 
ATOM     11  C   UNL     1       1.218   9.469  19.111  0.00  0.00    +0.000 A 
ATOM     12  C   UNL     1       1.897   8.395  18.522  0.00  0.00    +0.000 A 
BRANCH  11  13
ATOM     13  O   UNL     1       0.892  10.495  18.264  0.00  0.00    +0.000 OA
BRANCH  13  14
ATOM     14  C   UNL     1      -0.028  11.451  18.799  0.00  0.00    +0.000 C 
BRANCH  14  15
ATOM     15  C   UNL     1      -1.424  11.130  18.328  0.00  0.00    +0.000 A 
ATOM     16  C   UNL     1      -2.525  11.814  18.865  0.00  0.00    +0.000 A 
ATOM     17  C   UNL     1      -3.816  11.539  18.419  0.00  0.00    +0.000 A 
ATOM     18  C   UNL     1      -4.022  10.574  17.434  0.00  0.00    +0.000 A 
ATOM     19  C   UNL     1      -2.936   9.886  16.893  0.00  0.00    +0.000 A 
ATOM     20  C   UNL     1      -1.642  10.162  17.339  0.00  0.00    +0.000 A 
ENDBRANCH  14  15
ENDBRANCH  13  14
ENDBRANCH  11  13
ENDBRANCH   3   7
BRANCH   5  21
ATOM     21  C   UNL     1       2.748   2.295  18.487  0.00  0.00    +0.000 C 
ATOM     22  F   UNL     1       1.518   2.011  17.967  0.00  0.00    +0.000 F 
ATOM     23  F   UNL     1       3.601   1.396  17.923  0.00  0.00    +0.000 F 
ATOM     24  F   UNL     1       2.670   1.968  19.807  0.00  0.00    +0.000 F 
ENDBRANCH   5  21
BRANCH   1  25
ATOM     25  S   UNL     1       6.208   5.587  16.627  0.00  0.00    +0.000 S 
ATOM     26  O   UNL     1       6.545   7.120  16.741  0.00  0.00    +0.000 OA
BRANCH  25  28
ATOM     27  C   UNL     1       6.373   3.994  14.397  0.00  0.00    +0.000 C 
ATOM     28  C   UNL     1       5.703   5.256  14.913  0.00  0.00    +0.000 C 
ENDBRANCH  25  28
ENDBRANCH   1  25
TORSDOF 7
ENDMDL
MODEL 7
REMARK VINA RESULT:      -8.3      1.491      2.137
REMARK  Name = 
REMARK  8 active torsions:
REMARK  status: ('A' for Active; 'I' for Inactive)
REMARK    1  A    between atoms: C_1  and  C_2
REMARK    2  A    between atoms: C_2  and  S_3
REMARK    3  A    between atoms: S_3  and  C_5
REMARK    4  A    between atoms: C_7  and  C_8
REMARK    5  A    between atoms: C_12  and  O_13
REMARK    6  A    between atoms: O_13  and  C_14
REMARK    7  A    between atoms: C_14  and  C_15
REMARK    8  A    between atoms: C_23  and  C_24
REMARK                            x       y       z     vdW  Elec       q    Type
REMARK                         _______ _______ _______ _____ _____    ______ ____
ROOT
ATOM      1  C   UNL     1       2.128   4.965  20.380  0.00  0.00    +0.000 A 
ATOM      2  N   UNL     1       1.536   6.069  20.845  0.00  0.00    +0.000 NA
ATOM      3  C   UNL     1       1.849   7.231  20.240  0.00  0.00    +0.000 A 
ATOM      4  C   UNL     1       2.726   7.267  19.171  0.00  0.00    +0.000 A 
ATOM      5  C   UNL     1       3.279   6.064  18.745  0.00  0.00    +0.000 A 
ATOM      6  N   UNL     1       2.985   4.885  19.355  0.00  0.00    +0.000 NA
ENDROOT
BRANCH   3   7
ATOM      7  C   UNL     1       1.146   8.429  20.750  0.00  0.00    +0.000 A 
ATOM      8  C   UNL     1       0.907   8.572  22.130  0.00  0.00    +0.000 A 
ATOM      9  C   UNL     1       0.226   9.678  22.641  0.00  0.00    +0.000 A 
ATOM     10  C   UNL     1      -0.244  10.666  21.782  0.00  0.00    +0.000 A 
ATOM     11  C   UNL     1      -0.052  10.540  20.407  0.00  0.00    +0.000 A 
ATOM     12  C   UNL     1       0.668   9.449  19.904  0.00  0.00    +0.000 A 
BRANCH  11  13
ATOM     13  O   UNL     1      -0.521  11.420  19.467  0.00  0.00    +0.000 OA
BRANCH  13  14
ATOM     14  C   UNL     1      -1.939  11.613  19.474  0.00  0.00    +0.000 C 
BRANCH  14  15
ATOM     15  C   UNL     1      -2.516  11.179  18.151  0.00  0.00    +0.000 A 
ATOM     16  C   UNL     1      -1.814  10.276  17.337  0.00  0.00    +0.000 A 
ATOM     17  C   UNL     1      -2.351   9.852  16.123  0.00  0.00    +0.000 A 
ATOM     18  C   UNL     1      -3.593  10.329  15.707  0.00  0.00    +0.000 A 
ATOM     19  C   UNL     1      -4.299  11.228  16.506  0.00  0.00    +0.000 A 
ATOM     20  C   UNL     1      -3.762  11.652  17.722  0.00  0.00    +0.000 A 
ENDBRANCH  14  15
ENDBRANCH  13  14
ENDBRANCH  11  13
ENDBRANCH   3   7
BRANCH   5  21
ATOM     21  C   UNL     1       4.210   6.054  17.541  0.00  0.00    +0.000 C 
ATOM     22  F   UNL     1       4.038   4.964  16.736  0.00  0.00    +0.000 F 
ATOM     23  F   UNL     1       4.040   7.136  16.732  0.00  0.00    +0.000 F 
ATOM     24  F   UNL     1       5.526   6.044  17.891  0.00  0.00    +0.000 F 
ENDBRANCH   5  21
BRANCH   1  25
ATOM     25  S   UNL     1       1.571   3.407  21.047  0.00  0.00    +0.000 S 
ATOM     26  O   UNL     1       2.527   2.975  22.221  0.00  0.00    +0.000 OA
BRANCH  25  28
ATOM     27  C   UNL     1       0.731   2.202  18.728  0.00  0.00    +0.000 C 
ATOM     28  C   UNL     1       1.960   2.372  19.605  0.00  0.00    +0.000 C 
ENDBRANCH  25  28
ENDBRANCH   1  25
TORSDOF 7
ENDMDL
MODEL 8
REMARK VINA RESULT:      -8.2      1.148      1.574
REMARK  Name = 
REMARK  8 active torsions:
REMARK  status: ('A' for Active; 'I' for Inactive)
REMARK    1  A    between atoms: C_1  and  C_2
REMARK    2  A    between atoms: C_2  and  S_3
REMARK    3  A    between atoms: S_3  and  C_5
REMARK    4  A    between atoms: C_7  and  C_8
REMARK    5  A    between atoms: C_12  and  O_13
REMARK    6  A    between atoms: O_13  and  C_14
REMARK    7  A    between atoms: C_14  and  C_15
REMARK    8  A    between atoms: C_23  and  C_24
REMARK                            x       y       z     vdW  Elec       q    Type
REMARK                         _______ _______ _______ _____ _____    ______ ____
ROOT
ATOM      1  C   UNL     1       2.685   4.658  18.239  0.00  0.00    +0.000 A 
ATOM      2  N   UNL     1       2.082   5.619  18.943  0.00  0.00    +0.000 NA
ATOM      3  C   UNL     1       2.544   6.875  18.784  0.00  0.00    +0.000 A 
ATOM      4  C   UNL     1       3.580   7.150  17.909  0.00  0.00    +0.000 A 
ATOM      5  C   UNL     1       4.133   6.086  17.205  0.00  0.00    +0.000 A 
ATOM      6  N   UNL     1       3.689   4.811  17.367  0.00  0.00    +0.000 NA
ENDROOT
BRANCH   3   7
ATOM      7  C   UNL     1       1.828   7.923  19.545  0.00  0.00    +0.000 A 
ATOM      8  C   UNL     1       1.725   7.831  20.945  0.00  0.00    +0.000 A 
ATOM      9  C   UNL     1       1.037   8.789  21.691  0.00  0.00    +0.000 A 
ATOM     10  C   UNL     1       0.423   9.861  21.052  0.00  0.00    +0.000 A 
ATOM     11  C   UNL     1       0.479   9.966  19.662  0.00  0.00    +0.000 A 
ATOM     12  C   UNL     1       1.206   9.024  18.924  0.00  0.00    +0.000 A 
BRANCH  11  13
ATOM     13  O   UNL     1      -0.136  10.945  18.926  0.00  0.00    +0.000 OA
BRANCH  13  14
ATOM     14  C   UNL     1      -1.524  11.137  19.216  0.00  0.00    +0.000 C 
BRANCH  14  15
ATOM     15  C   UNL     1      -2.335  10.952  17.959  0.00  0.00    +0.000 A 
ATOM     16  C   UNL     1      -1.886  10.084  16.951  0.00  0.00    +0.000 A 
ATOM     17  C   UNL     1      -2.641   9.890  15.796  0.00  0.00    +0.000 A 
ATOM     18  C   UNL     1      -3.849  10.564  15.633  0.00  0.00    +0.000 A 
ATOM     19  C   UNL     1      -4.305  11.431  16.626  0.00  0.00    +0.000 A 
ATOM     20  C   UNL     1      -3.550  11.625  17.784  0.00  0.00    +0.000 A 
ENDBRANCH  14  15
ENDBRANCH  13  14
ENDBRANCH  11  13
ENDBRANCH   3   7
BRANCH   5  21
ATOM     21  C   UNL     1       5.242   6.353  16.196  0.00  0.00    +0.000 C 
ATOM     22  F   UNL     1       6.287   7.059  16.719  0.00  0.00    +0.000 F 
ATOM     23  F   UNL     1       5.786   5.211  15.694  0.00  0.00    +0.000 F 
ATOM     24  F   UNL     1       4.815   7.075  15.123  0.00  0.00    +0.000 F 
ENDBRANCH   5  21
BRANCH   1  25
ATOM     25  S   UNL     1       1.954   3.032  18.300  0.00  0.00    +0.000 S 
ATOM     26  O   UNL     1       1.214   2.846  19.677  0.00  0.00    +0.000 OA
BRANCH  25  28
ATOM     27  C   UNL     1       4.143   2.202  19.735  0.00  0.00    +0.000 C 
ATOM     28  C   UNL     1       3.497   2.074  18.366  0.00  0.00    +0.000 C 
ENDBRANCH  25  28
ENDBRANCH   1  25
TORSDOF 7
ENDMDL
MODEL 9
REMARK VINA RESULT:      -8.2      0.772      1.153
REMARK  Name = 
REMARK  8 active torsions:
REMARK  status: ('A' for Active; 'I' for Inactive)
REMARK    1  A    between atoms: C_1  and  C_2
REMARK    2  A    between atoms: C_2  and  S_3
REMARK    3  A    between atoms: S_3  and  C_5
REMARK    4  A    between atoms: C_7  and  C_8
REMARK    5  A    between atoms: C_12  and  O_13
REMARK    6  A    between atoms: O_13  and  C_14
REMARK    7  A    between atoms: C_14  and  C_15
REMARK    8  A    between atoms: C_23  and  C_24
REMARK                            x       y       z     vdW  Elec       q    Type
REMARK                         _______ _______ _______ _____ _____    ______ ____
ROOT
ATOM      1  C   UNL     1       3.176   4.777  19.666  0.00  0.00    +0.000 A 
ATOM      2  N   UNL     1       2.448   5.790  20.144  0.00  0.00    +0.000 NA
ATOM      3  C   UNL     1       2.528   6.963  19.487  0.00  0.00    +0.000 A 
ATOM      4  C   UNL     1       3.312   7.096  18.354  0.00  0.00    +0.000 A 
ATOM      5  C   UNL     1       4.020   5.980  17.921  0.00  0.00    +0.000 A 
ATOM      6  N   UNL     1       3.962   4.794  18.583  0.00  0.00    +0.000 NA
ENDROOT
BRANCH   3   7
ATOM      7  C   UNL     1       1.678   8.054  20.015  0.00  0.00    +0.000 A 
ATOM      8  C   UNL     1       1.331   8.079  21.378  0.00  0.00    +0.000 A 
ATOM      9  C   UNL     1       0.512   9.079  21.904  0.00  0.00    +0.000 A 
ATOM     10  C   UNL     1       0.009  10.076  21.075  0.00  0.00    +0.000 A 
ATOM     11  C   UNL     1       0.308  10.063  19.713  0.00  0.00    +0.000 A 
ATOM     12  C   UNL     1       1.163   9.080  19.199  0.00  0.00    +0.000 A 
BRANCH  11  13
ATOM     13  O   UNL     1      -0.179  10.958  18.796  0.00  0.00    +0.000 OA
BRANCH  13  14
ATOM     14  C   UNL     1      -1.531  11.372  19.014  0.00  0.00    +0.000 C 
BRANCH  14  15
ATOM     15  C   UNL     1      -2.369  11.017  17.812  0.00  0.00    +0.000 A 
ATOM     16  C   UNL     1      -3.609  11.643  17.606  0.00  0.00    +0.000 A 
ATOM     17  C   UNL     1      -4.379  11.338  16.487  0.00  0.00    +0.000 A 
ATOM     18  C   UNL     1      -3.923  10.401  15.562  0.00  0.00    +0.000 A 
ATOM     19  C   UNL     1      -2.693   9.770  15.755  0.00  0.00    +0.000 A 
ATOM     20  C   UNL     1      -1.921  10.077  16.877  0.00  0.00    +0.000 A 
ENDBRANCH  14  15
ENDBRANCH  13  14
ENDBRANCH  11  13
ENDBRANCH   3   7
BRANCH   5  21
ATOM     21  C   UNL     1       4.855   6.072  16.652  0.00  0.00    +0.000 C 
ATOM     22  F   UNL     1       6.192   6.206  16.894  0.00  0.00    +0.000 F 
ATOM     23  F   UNL     1       4.735   4.970  15.860  0.00  0.00    +0.000 F 
ATOM     24  F   UNL     1       4.517   7.138  15.874  0.00  0.00    +0.000 F 
ENDBRANCH   5  21
BRANCH   1  25
ATOM     25  S   UNL     1       2.925   3.177  20.415  0.00  0.00    +0.000 S 
ATOM     26  O   UNL     1       3.581   2.071  19.508  0.00  0.00    +0.000 OA
BRANCH  25  28
ATOM     27  C   UNL     1       0.789   2.484  18.836  0.00  0.00    +0.000 C 
ATOM     28  C   UNL     1       1.124   3.084  20.191  0.00  0.00    +0.000 C 
ENDBRANCH  25  28
ENDBRANCH   1  25
TORSDOF 7
ENDMDL
