MODEL 1
REMARK VINA RESULT:      -7.9      0.000      0.000
REMARK  Name = 
REMARK  5 active torsions:
REMARK  status: ('A' for Active; 'I' for Inactive)
REMARK    1  A    between atoms: C_1  and  N_2
REMARK    2  A    between atoms: C_4  and  C_5
REMARK    3  A    between atoms: C_5  and  O_7
REMARK    4  A    between atoms: C_12  and  C_13
REMARK    5  A    between atoms: C_13  and  C_14
REMARK                            x       y       z     vdW  Elec       q    Type
REMARK                         _______ _______ _______ _____ _____    ______ ____
ROOT
ATOM      1  C   UNL     1       3.174   2.688  17.705  0.00  0.00    +0.000 C 
ATOM      2  N   UNL     1       3.932   3.910  17.425  0.00  0.00    +0.000 N 
ATOM      3  C   UNL     1       5.261   3.871  17.026  0.00  0.00    +0.000 A 
ATOM      4  C   UNL     1       6.038   4.930  16.754  0.00  0.00    +0.000 A 
ATOM      5  C   UNL     1       5.420   6.264  16.894  0.00  0.00    +0.000 A 
ATOM      6  O   UNL     1       6.069   7.274  16.621  0.00  0.00    +0.000 OA
ATOM      7  C   UNL     1       4.023   6.346  17.381  0.00  0.00    +0.000 A 
ATOM      8  C   UNL     1       3.456   7.613  17.590  0.00  0.00    +0.000 A 
ATOM      9  C   UNL     1       2.148   7.732  18.067  0.00  0.00    +0.000 A 
ATOM     10  C   UNL     1       1.420   6.562  18.306  0.00  0.00    +0.000 A 
ATOM     11  C   UNL     1       1.988   5.300  18.087  0.00  0.00    +0.000 A 
ATOM     12  C   UNL     1       3.306   5.159  17.631  0.00  0.00    +0.000 A 
ENDROOT
BRANCH   4  13
ATOM     13  C   UNL     1       7.444   4.717  16.349  0.00  0.00    +0.000 C 
ATOM     14  O   UNL     1       8.268   4.152  17.050  0.00  0.00    +0.000 OA
BRANCH  13  15
ATOM     15  O   UNL     1       7.753   5.208  15.127  0.00  0.00    +0.000 OA
ATOM     16  H   UNL     1       8.573   5.760  15.114  0.00  0.00    +0.000 HD
ENDBRANCH  13  15
ENDBRANCH   4  13
BRANCH   9  17
ATOM     17  C   UNL     1       1.537   9.093  18.305  0.00  0.00    +0.000 C 
BRANCH  17  18
ATOM     18  C   UNL     1       0.984   9.321  19.699  0.00  0.00    +0.000 A 
ATOM     19  C   UNL     1       1.510   8.557  20.760  0.00  0.00    +0.000 A 
ATOM     20  C   UNL     1       1.128   8.793  22.081  0.00  0.00    +0.000 A 
ATOM     21  C   UNL     1       0.204   9.792  22.366  0.00  0.00    +0.000 A 
ATOM     22  C   UNL     1      -0.366  10.535  21.329  0.00  0.00    +0.000 A 
ATOM     23 CL   UNL     1      -1.512  11.755  21.774  0.00  0.00    +0.000 Cl
ATOM     24  C   UNL     1       0.010  10.298  19.994  0.00  0.00    +0.000 A 
ATOM     25 CL   UNL     1      -0.712  11.229  18.718  0.00  0.00    +0.000 Cl
ENDBRANCH  17  18
ENDBRANCH   9  17
TORSDOF 4
ENDMDL
MODEL 2
REMARK VINA RESULT:      -7.9      5.261      8.367
REMARK  Name = 
REMARK  5 active torsions:
REMARK  status: ('A' for Active; 'I' for Inactive)
REMARK    1  A    between atoms: C_1  and  N_2
REMARK    2  A    between atoms: C_4  and  C_5
REMARK    3  A    between atoms: C_5  and  O_7
REMARK    4  A    between atoms: C_12  and  C_13
REMARK    5  A    between atoms: C_13  and  C_14
REMARK                            x       y       z     vdW  Elec       q    Type
REMARK                         _______ _______ _______ _____ _____    ______ ____
ROOT
ATOM      1  C   UNL     1      -1.602  11.655  17.914  0.00  0.00    +0.000 C 
ATOM      2  N   UNL     1      -1.046  11.209  19.194  0.00  0.00    +0.000 N 
ATOM      3  C   UNL     1      -1.397  11.813  20.393  0.00  0.00    +0.000 A 
ATOM      4  C   UNL     1      -0.941  11.484  21.611  0.00  0.00    +0.000 A 
ATOM      5  C   UNL     1       0.030  10.373  21.680  0.00  0.00    +0.000 A 
ATOM      6  O   UNL     1       0.456   9.995  22.772  0.00  0.00    +0.000 OA
ATOM      7  C   UNL     1       0.477   9.747  20.413  0.00  0.00    +0.000 A 
ATOM      8  C   UNL     1       1.457   8.743  20.467  0.00  0.00    +0.000 A 
ATOM      9  C   UNL     1       1.920   8.143  19.293  0.00  0.00    +0.000 A 
ATOM     10  C   UNL     1       1.365   8.553  18.076  0.00  0.00    +0.000 A 
ATOM     11  C   UNL     1       0.381   9.550  18.029  0.00  0.00    +0.000 A 
ATOM     12  C   UNL     1      -0.079  10.180  19.193  0.00  0.00    +0.000 A 
ENDROOT
BRANCH   4  13
ATOM     13  C   UNL     1      -1.409  12.237  22.793  0.00  0.00    +0.000 C 
ATOM     14  O   UNL     1      -2.541  12.153  23.241  0.00  0.00    +0.000 OA
BRANCH  13  15
ATOM     15  O   UNL     1      -0.473  13.044  23.346  0.00  0.00    +0.000 OA
ATOM     16  H   UNL     1      -0.623  14.005  23.173  0.00  0.00    +0.000 HD
ENDBRANCH  13  15
ENDBRANCH   4  13
BRANCH   9  17
ATOM     17  C   UNL     1       2.981   7.071  19.344  0.00  0.00    +0.000 C 
BRANCH  17  18
ATOM     18  C   UNL     1       2.464   5.647  19.412  0.00  0.00    +0.000 A 
ATOM     19  C   UNL     1       1.547   5.318  20.431  0.00  0.00    +0.000 A 
ATOM     20  C   UNL     1       0.947   4.059  20.485  0.00  0.00    +0.000 A 
ATOM     21  C   UNL     1       1.259   3.101  19.527  0.00  0.00    +0.000 A 
ATOM     22  C   UNL     1       2.197   3.387  18.532  0.00  0.00    +0.000 A 
ATOM     23 CL   UNL     1       2.531   2.135  17.383  0.00  0.00    +0.000 Cl
ATOM     24  C   UNL     1       2.812   4.651  18.474  0.00  0.00    +0.000 A 
ATOM     25 CL   UNL     1       3.979   4.986  17.233  0.00  0.00    +0.000 Cl
ENDBRANCH  17  18
ENDBRANCH   9  17
TORSDOF 4
ENDMDL
MODEL 3
REMARK VINA RESULT:      -7.8      1.507      1.586
REMARK  Name = 
REMARK  5 active torsions:
REMARK  status: ('A' for Active; 'I' for Inactive)
REMARK    1  A    between atoms: C_1  and  N_2
REMARK    2  A    between atoms: C_4  and  C_5
REMARK    3  A    between atoms: C_5  and  O_7
REMARK    4  A    between atoms: C_12  and  C_13
REMARK    5  A    between atoms: C_13  and  C_14
REMARK                            x       y       z     vdW  Elec       q    Type
REMARK                         _______ _______ _______ _____ _____    ______ ____
ROOT
ATOM      1  C   UNL     1       3.809   3.760  20.339  0.00  0.00    +0.000 C 
ATOM      2  N   UNL     1       4.324   4.599  19.254  0.00  0.00    +0.000 N 
ATOM      3  C   UNL     1       5.527   4.317  18.619  0.00  0.00    +0.000 A 
ATOM      4  C   UNL     1       6.084   5.025  17.626  0.00  0.00    +0.000 A 
ATOM      5  C   UNL     1       5.347   6.219  17.164  0.00  0.00    +0.000 A 
ATOM      6  O   UNL     1       5.785   6.888  16.228  0.00  0.00    +0.000 OA
ATOM      7  C   UNL     1       4.093   6.587  17.862  0.00  0.00    +0.000 A 
ATOM      8  C   UNL     1       3.429   7.763  17.478  0.00  0.00    +0.000 A 
ATOM      9  C   UNL     1       2.254   8.156  18.126  0.00  0.00    +0.000 A 
ATOM     10  C   UNL     1       1.752   7.336  19.141  0.00  0.00    +0.000 A 
ATOM     11  C   UNL     1       2.414   6.158  19.514  0.00  0.00    +0.000 A 
ATOM     12  C   UNL     1       3.606   5.760  18.893  0.00  0.00    +0.000 A 
ENDROOT
BRANCH   4  13
ATOM     13  C   UNL     1       7.381   4.594  17.063  0.00  0.00    +0.000 C 
ATOM     14  O   UNL     1       8.280   4.113  17.734  0.00  0.00    +0.000 OA
BRANCH  13  15
ATOM     15  O   UNL     1       7.499   4.781  15.728  0.00  0.00    +0.000 OA
ATOM     16  H   UNL     1       6.897   4.210  15.190  0.00  0.00    +0.000 HD
ENDBRANCH  13  15
ENDBRANCH   4  13
BRANCH   9  17
ATOM     17  C   UNL     1       1.543   9.426  17.726  0.00  0.00    +0.000 C 
BRANCH  17  18
ATOM     18  C   UNL     1       0.727  10.086  18.821  0.00  0.00    +0.000 A 
ATOM     19  C   UNL     1       1.362  10.368  20.048  0.00  0.00    +0.000 A 
ATOM     20  C   UNL     1       0.705  11.073  21.057  0.00  0.00    +0.000 A 
ATOM     21  C   UNL     1      -0.605  11.501  20.862  0.00  0.00    +0.000 A 
ATOM     22  C   UNL     1      -1.271  11.197  19.673  0.00  0.00    +0.000 A 
ATOM     23 CL   UNL     1      -2.900  11.763  19.518  0.00  0.00    +0.000 Cl
ATOM     24  C   UNL     1      -0.617  10.481  18.654  0.00  0.00    +0.000 A 
ATOM     25 CL   UNL     1      -1.463  10.108  17.184  0.00  0.00    +0.000 Cl
ENDBRANCH  17  18
ENDBRANCH   9  17
TORSDOF 4
ENDMDL
MODEL 4
REMARK VINA RESULT:      -7.8      4.764      7.851
REMARK  Name = 
REMARK  5 active torsions:
REMARK  status: ('A' for Active; 'I' for Inactive)
REMARK    1  A    between atoms: C_1  and  N_2
REMARK    2  A    between atoms: C_4  and  C_5
REMARK    3  A    between atoms: C_5  and  O_7
REMARK    4  A    between atoms: C_12  and  C_13
REMARK    5  A    between atoms: C_13  and  C_14
REMARK                            x       y       z     vdW  Elec       q    Type
REMARK                         _______ _______ _______ _____ _____    ______ ____
ROOT
ATOM      1  C   UNL     1       0.578  12.130  18.932  0.00  0.00    +0.000 C 
ATOM      2  N   UNL     1       0.706  10.900  19.717  0.00  0.00    +0.000 N 
ATOM      3  C   UNL     1       0.259  10.821  21.030  0.00  0.00    +0.000 A 
ATOM      4  C   UNL     1       0.337   9.748  21.830  0.00  0.00    +0.000 A 
ATOM      5  C   UNL     1       0.958   8.535  21.259  0.00  0.00    +0.000 A 
ATOM      6  O   UNL     1       1.023   7.504  21.929  0.00  0.00    +0.000 OA
ATOM      7  C   UNL     1       1.504   8.603  19.883  0.00  0.00    +0.000 A 
ATOM      8  C   UNL     1       2.164   7.478  19.364  0.00  0.00    +0.000 A 
ATOM      9  C   UNL     1       2.710   7.509  18.078  0.00  0.00    +0.000 A 
ATOM     10  C   UNL     1       2.560   8.676  17.323  0.00  0.00    +0.000 A 
ATOM     11  C   UNL     1       1.893   9.794  17.843  0.00  0.00    +0.000 A 
ATOM     12  C   UNL     1       1.359   9.790  19.139  0.00  0.00    +0.000 A 
ENDROOT
BRANCH   4  13
ATOM     13  C   UNL     1      -0.178   9.831  23.213  0.00  0.00    +0.000 C 
ATOM     14  O   UNL     1       0.492   9.564  24.198  0.00  0.00    +0.000 OA
BRANCH  13  15
ATOM     15  O   UNL     1      -1.468  10.228  23.304  0.00  0.00    +0.000 OA
ATOM     16  H   UNL     1      -1.737  10.503  24.215  0.00  0.00    +0.000 HD
ENDBRANCH  13  15
ENDBRANCH   4  13
BRANCH   9  17
ATOM     17  C   UNL     1       3.431   6.306  17.519  0.00  0.00    +0.000 C 
BRANCH  17  18
ATOM     18  C   UNL     1       3.058   4.976  18.147  0.00  0.00    +0.000 A 
ATOM     19  C   UNL     1       1.801   4.421  17.837  0.00  0.00    +0.000 A 
ATOM     20  C   UNL     1       1.439   3.151  18.289  0.00  0.00    +0.000 A 
ATOM     21  C   UNL     1       2.326   2.416  19.070  0.00  0.00    +0.000 A 
ATOM     22  C   UNL     1       3.560   2.962  19.429  0.00  0.00    +0.000 A 
ATOM     23 CL   UNL     1       4.599   1.981  20.408  0.00  0.00    +0.000 Cl
ATOM     24  C   UNL     1       3.929   4.244  18.982  0.00  0.00    +0.000 A 
ATOM     25 CL   UNL     1       5.466   4.907  19.441  0.00  0.00    +0.000 Cl
ENDBRANCH  17  18
ENDBRANCH   9  17
TORSDOF 4
ENDMDL
MODEL 5
REMARK VINA RESULT:      -7.7      2.819      3.904
REMARK  Name = 
REMARK  5 active torsions:
REMARK  status: ('A' for Active; 'I' for Inactive)
REMARK    1  A    between atoms: C_1  and  N_2
REMARK    2  A    between atoms: C_4  and  C_5
REMARK    3  A    between atoms: C_5  and  O_7
REMARK    4  A    between atoms: C_12  and  C_13
REMARK    5  A    between atoms: C_13  and  C_14
REMARK                            x       y       z     vdW  Elec       q    Type
REMARK                         _______ _______ _______ _____ _____    ______ ____
ROOT
ATOM      1  C   UNL     1       4.800   6.082  16.430  0.00  0.00    +0.000 C 
ATOM      2  N   UNL     1       4.144   5.714  17.687  0.00  0.00    +0.000 N 
ATOM      3  C   UNL     1       4.273   4.445  18.235  0.00  0.00    +0.000 A 
ATOM      4  C   UNL     1       3.708   4.011  19.372  0.00  0.00    +0.000 A 
ATOM      5  C   UNL     1       2.870   4.978  20.111  0.00  0.00    +0.000 A 
ATOM      6  O   UNL     1       2.357   4.654  21.182  0.00  0.00    +0.000 OA
ATOM      7  C   UNL     1       2.658   6.321  19.522  0.00  0.00    +0.000 A 
ATOM      8  C   UNL     1       1.801   7.217  20.181  0.00  0.00    +0.000 A 
ATOM      9  C   UNL     1       1.559   8.486  19.647  0.00  0.00    +0.000 A 
ATOM     10  C   UNL     1       2.210   8.841  18.462  0.00  0.00    +0.000 A 
ATOM     11  C   UNL     1       3.072   7.946  17.814  0.00  0.00    +0.000 A 
ATOM     12  C   UNL     1       3.308   6.661  18.320  0.00  0.00    +0.000 A 
ENDROOT
BRANCH   4  13
ATOM     13  C   UNL     1       3.937   2.620  19.814  0.00  0.00    +0.000 C 
ATOM     14  O   UNL     1       5.026   2.194  20.166  0.00  0.00    +0.000 OA
BRANCH  13  15
ATOM     15  O   UNL     1       2.831   1.840  19.795  0.00  0.00    +0.000 OA
ATOM     16  H   UNL     1       2.215   2.040  19.047  0.00  0.00    +0.000 HD
ENDBRANCH  13  15
ENDBRANCH   4  13
BRANCH   9  17
ATOM     17  C   UNL     1       0.628   9.449  20.344  0.00  0.00    +0.000 C 
BRANCH  17  18
ATOM     18  C   UNL     1      -0.069  10.448  19.440  0.00  0.00    +0.000 A 
ATOM     19  C   UNL     1      -1.119   9.987  18.621  0.00  0.00    +0.000 A 
ATOM     20  C   UNL     1      -1.876  10.870  17.850  0.00  0.00    +0.000 A 
ATOM     21  C   UNL     1      -1.589  12.231  17.875  0.00  0.00    +0.000 A 
ATOM     22  C   UNL     1      -0.525  12.708  18.644  0.00  0.00    +0.000 A 
ATOM     23 CL   UNL     1      -0.235  14.415  18.612  0.00  0.00    +0.000 Cl
ATOM     24  C   UNL     1       0.246  11.823  19.420  0.00  0.00    +0.000 A 
ATOM     25 CL   UNL     1       1.567  12.434  20.366  0.00  0.00    +0.000 Cl
ENDBRANCH  17  18
ENDBRANCH   9  17
TORSDOF 4
ENDMDL
MODEL 6
REMARK VINA RESULT:      -7.7      1.330      2.109
REMARK  Name = 
REMARK  5 active torsions:
REMARK  status: ('A' for Active; 'I' for Inactive)
REMARK    1  A    between atoms: C_1  and  N_2
REMARK    2  A    between atoms: C_4  and  C_5
REMARK    3  A    between atoms: C_5  and  O_7
REMARK    4  A    between atoms: C_12  and  C_13
REMARK    5  A    between atoms: C_13  and  C_14
REMARK                            x       y       z     vdW  Elec       q    Type
REMARK                         _______ _______ _______ _____ _____    ______ ____
ROOT
ATOM      1  C   UNL     1       2.555   1.978  17.744  0.00  0.00    +0.000 C 
ATOM      2  N   UNL     1       3.305   3.236  17.712  0.00  0.00    +0.000 N 
ATOM      3  C   UNL     1       4.469   3.375  16.970  0.00  0.00    +0.000 A 
ATOM      4  C   UNL     1       5.227   4.478  16.882  0.00  0.00    +0.000 A 
ATOM      5  C   UNL     1       4.779   5.657  17.651  0.00  0.00    +0.000 A 
ATOM      6  O   UNL     1       5.408   6.713  17.580  0.00  0.00    +0.000 OA
ATOM      7  C   UNL     1       3.575   5.526  18.505  0.00  0.00    +0.000 A 
ATOM      8  C   UNL     1       3.189   6.619  19.296  0.00  0.00    +0.000 A 
ATOM      9  C   UNL     1       2.071   6.528  20.131  0.00  0.00    +0.000 A 
ATOM     10  C   UNL     1       1.343   5.334  20.135  0.00  0.00    +0.000 A 
ATOM     11  C   UNL     1       1.728   4.249  19.337  0.00  0.00    +0.000 A 
ATOM     12  C   UNL     1       2.859   4.312  18.511  0.00  0.00    +0.000 A 
ENDROOT
BRANCH   4  13
ATOM     13  C   UNL     1       6.450   4.458  16.053  0.00  0.00    +0.000 C 
ATOM     14  O   UNL     1       6.443   4.271  14.847  0.00  0.00    +0.000 OA
BRANCH  13  15
ATOM     15  O   UNL     1       7.596   4.661  16.744  0.00  0.00    +0.000 OA
ATOM     16  H   UNL     1       7.477   4.653  17.725  0.00  0.00    +0.000 HD
ENDBRANCH  13  15
ENDBRANCH   4  13
BRANCH   9  17
ATOM     17  C   UNL     1       1.658   7.697  20.993  0.00  0.00    +0.000 C 
BRANCH  17  18
ATOM     18  C   UNL     1       1.030   8.861  20.251  0.00  0.00    +0.000 A 
ATOM     19  C   UNL     1       1.329   9.019  18.882  0.00  0.00    +0.000 A 
ATOM     20  C   UNL     1       0.701  10.000  18.113  0.00  0.00    +0.000 A 
ATOM     21  C   UNL     1      -0.231  10.849  18.702  0.00  0.00    +0.000 A 
ATOM     22  C   UNL     1      -0.512  10.743  20.065  0.00  0.00    +0.000 A 
ATOM     23 CL   UNL     1      -1.679  11.844  20.716  0.00  0.00    +0.000 Cl
ATOM     24  C   UNL     1       0.122   9.760  20.849  0.00  0.00    +0.000 A 
ATOM     25 CL   UNL     1      -0.237   9.646  22.543  0.00  0.00    +0.000 Cl
ENDBRANCH  17  18
ENDBRANCH   9  17
TORSDOF 4
ENDMDL
MODEL 7
REMARK VINA RESULT:      -7.7      4.828      8.239
REMARK  Name = 
REMARK  5 active torsions:
REMARK  status: ('A' for Active; 'I' for Inactive)
REMARK    1  A    between atoms: C_1  and  N_2
REMARK    2  A    between atoms: C_4  and  C_5
REMARK    3  A    between atoms: C_5  and  O_7
REMARK    4  A    between atoms: C_12  and  C_13
REMARK    5  A    between atoms: C_13  and  C_14
REMARK                            x       y       z     vdW  Elec       q    Type
REMARK                         _______ _______ _______ _____ _____    ______ ____
ROOT
ATOM      1  C   UNL     1      -1.160  11.392  17.778  0.00  0.00    +0.000 C 
ATOM      2  N   UNL     1      -0.674  10.925  19.079  0.00  0.00    +0.000 N 
ATOM      3  C   UNL     1      -1.073  11.523  20.267  0.00  0.00    +0.000 A 
ATOM      4  C   UNL     1      -0.681  11.174  21.501  0.00  0.00    +0.000 A 
ATOM      5  C   UNL     1       0.268  10.046  21.605  0.00  0.00    +0.000 A 
ATOM      6  O   UNL     1       0.634   9.652  22.712  0.00  0.00    +0.000 OA
ATOM      7  C   UNL     1       0.765   9.426  20.355  0.00  0.00    +0.000 A 
ATOM      8  C   UNL     1       1.725   8.406  20.445  0.00  0.00    +0.000 A 
ATOM      9  C   UNL     1       2.234   7.809  19.288  0.00  0.00    +0.000 A 
ATOM     10  C   UNL     1       1.745   8.240  18.051  0.00  0.00    +0.000 A 
ATOM     11  C   UNL     1       0.781   9.253  17.967  0.00  0.00    +0.000 A 
ATOM     12  C   UNL     1       0.276   9.880  19.114  0.00  0.00    +0.000 A 
ENDROOT
BRANCH   4  13
ATOM     13  C   UNL     1      -1.193  11.924  22.667  0.00  0.00    +0.000 C 
ATOM     14  O   UNL     1      -0.875  13.074  22.921  0.00  0.00    +0.000 OA
BRANCH  13  15
ATOM     15  O   UNL     1      -2.052  11.225  23.446  0.00  0.00    +0.000 OA
ATOM     16  H   UNL     1      -2.009  11.467  24.403  0.00  0.00    +0.000 HD
ENDBRANCH  13  15
ENDBRANCH   4  13
BRANCH   9  17
ATOM     17  C   UNL     1       3.275   6.719  19.379  0.00  0.00    +0.000 C 
BRANCH  17  18
ATOM     18  C   UNL     1       2.944   5.441  18.631  0.00  0.00    +0.000 A 
ATOM     19  C   UNL     1       3.684   5.136  17.472  0.00  0.00    +0.000 A 
ATOM     20  C   UNL     1       3.509   3.926  16.799  0.00  0.00    +0.000 A 
ATOM     21  C   UNL     1       2.582   3.001  17.269  0.00  0.00    +0.000 A 
ATOM     22  C   UNL     1       1.804   3.298  18.391  0.00  0.00    +0.000 A 
ATOM     23 CL   UNL     1       0.671   2.093  18.902  0.00  0.00    +0.000 Cl
ATOM     24  C   UNL     1       1.971   4.519  19.070  0.00  0.00    +0.000 A 
ATOM     25 CL   UNL     1       0.992   4.872  20.460  0.00  0.00    +0.000 Cl
ENDBRANCH  17  18
ENDBRANCH   9  17
TORSDOF 4
ENDMDL
MODEL 8
REMARK VINA RESULT:      -7.6      5.268      8.502
REMARK  Name = 
REMARK  5 active torsions:
REMARK  status: ('A' for Active; 'I' for Inactive)
REMARK    1  A    between atoms: C_1  and  N_2
REMARK    2  A    between atoms: C_4  and  C_5
REMARK    3  A    between atoms: C_5  and  O_7
REMARK    4  A    between atoms: C_12  and  C_13
REMARK    5  A    between atoms: C_13  and  C_14
REMARK                            x       y       z     vdW  Elec       q    Type
REMARK                         _______ _______ _______ _____ _____    ______ ____
ROOT
ATOM      1  C   UNL     1       0.787  11.727  18.413  0.00  0.00    +0.000 C 
ATOM      2  N   UNL     1       0.466  11.078  19.687  0.00  0.00    +0.000 N 
ATOM      3  C   UNL     1      -0.211  11.746  20.698  0.00  0.00    +0.000 A 
ATOM      4  C   UNL     1      -0.544  11.243  21.896  0.00  0.00    +0.000 A 
ATOM      5  C   UNL     1      -0.150   9.845  22.164  0.00  0.00    +0.000 A 
ATOM      6  O   UNL     1      -0.461   9.312  23.230  0.00  0.00    +0.000 OA
ATOM      7  C   UNL     1       0.631   9.122  21.133  0.00  0.00    +0.000 A 
ATOM      8  C   UNL     1       1.074   7.820  21.414  0.00  0.00    +0.000 A 
ATOM      9  C   UNL     1       1.831   7.113  20.475  0.00  0.00    +0.000 A 
ATOM     10  C   UNL     1       2.109   7.727  19.250  0.00  0.00    +0.000 A 
ATOM     11  C   UNL     1       1.657   9.024  18.972  0.00  0.00    +0.000 A 
ATOM     12  C   UNL     1       0.918   9.758  19.909  0.00  0.00    +0.000 A 
ENDROOT
BRANCH   4  13
ATOM     13  C   UNL     1      -1.259  12.094  22.870  0.00  0.00    +0.000 C 
ATOM     14  O   UNL     1      -0.920  13.234  23.145  0.00  0.00    +0.000 OA
BRANCH  13  15
ATOM     15  O   UNL     1      -2.332  11.502  23.445  0.00  0.00    +0.000 OA
ATOM     16  H   UNL     1      -2.850  10.930  22.828  0.00  0.00    +0.000 HD
ENDBRANCH  13  15
ENDBRANCH   4  13
BRANCH   9  17
ATOM     17  C   UNL     1       2.320   5.717  20.776  0.00  0.00    +0.000 C 
BRANCH  17  18
ATOM     18  C   UNL     1       2.453   4.801  19.574  0.00  0.00    +0.000 A 
ATOM     19  C   UNL     1       1.318   4.077  19.158  0.00  0.00    +0.000 A 
ATOM     20  C   UNL     1       1.338   3.304  17.996  0.00  0.00    +0.000 A 
ATOM     21  C   UNL     1       2.499   3.233  17.233  0.00  0.00    +0.000 A 
ATOM     22  C   UNL     1       3.651   3.906  17.646  0.00  0.00    +0.000 A 
ATOM     23 CL   UNL     1       5.052   3.757  16.640  0.00  0.00    +0.000 Cl
ATOM     24  C   UNL     1       3.640   4.682  18.820  0.00  0.00    +0.000 A 
ATOM     25 CL   UNL     1       5.082   5.507  19.321  0.00  0.00    +0.000 Cl
ENDBRANCH  17  18
ENDBRANCH   9  17
TORSDOF 4
ENDMDL
MODEL 9
REMARK VINA RESULT:      -7.6      4.718      8.080
REMARK  Name = 
REMARK  5 active torsions:
REMARK  status: ('A' for Active; 'I' for Inactive)
REMARK    1  A    between atoms: C_1  and  N_2
REMARK    2  A    between atoms: C_4  and  C_5
REMARK    3  A    between atoms: C_5  and  O_7
REMARK    4  A    between atoms: C_12  and  C_13
REMARK    5  A    between atoms: C_13  and  C_14
REMARK                            x       y       z     vdW  Elec       q    Type
REMARK                         _______ _______ _______ _____ _____    ______ ____
ROOT
ATOM      1  C   UNL     1      -0.131   9.416  23.214  0.00  0.00    +0.000 C 
ATOM      2  N   UNL     1      -0.030   9.996  21.873  0.00  0.00    +0.000 N 
ATOM      3  C   UNL     1      -0.697  11.164  21.529  0.00  0.00    +0.000 A 
ATOM      4  C   UNL     1      -0.673  11.767  20.331  0.00  0.00    +0.000 A 
ATOM      5  C   UNL     1       0.141  11.127  19.278  0.00  0.00    +0.000 A 
ATOM      6  O   UNL     1       0.236  11.653  18.169  0.00  0.00    +0.000 OA
ATOM      7  C   UNL     1       0.815   9.845  19.591  0.00  0.00    +0.000 A 
ATOM      8  C   UNL     1       1.526   9.192  18.571  0.00  0.00    +0.000 A 
ATOM      9  C   UNL     1       2.159   7.971  18.821  0.00  0.00    +0.000 A 
ATOM     10  C   UNL     1       2.082   7.437  20.110  0.00  0.00    +0.000 A 
ATOM     11  C   UNL     1       1.378   8.096  21.126  0.00  0.00    +0.000 A 
ATOM     12  C   UNL     1       0.717   9.309  20.890  0.00  0.00    +0.000 A 
ENDROOT
BRANCH   4  13
ATOM     13  C   UNL     1      -1.453  13.006  20.124  0.00  0.00    +0.000 C 
ATOM     14  O   UNL     1      -1.320  14.008  20.809  0.00  0.00    +0.000 OA
BRANCH  13  15
ATOM     15  O   UNL     1      -2.341  12.942  19.105  0.00  0.00    +0.000 OA
ATOM     16  H   UNL     1      -1.930  13.038  18.211  0.00  0.00    +0.000 HD
ENDBRANCH  13  15
ENDBRANCH   4  13
BRANCH   9  17
ATOM     17  C   UNL     1       2.916   7.259  17.725  0.00  0.00    +0.000 C 
BRANCH  17  18
ATOM     18  C   UNL     1       3.576   5.956  18.133  0.00  0.00    +0.000 A 
ATOM     19  C   UNL     1       4.924   5.991  18.544  0.00  0.00    +0.000 A 
ATOM     20  C   UNL     1       5.559   4.851  19.038  0.00  0.00    +0.000 A 
ATOM     21  C   UNL     1       4.861   3.650  19.119  0.00  0.00    +0.000 A 
ATOM     22  C   UNL     1       3.538   3.578  18.677  0.00  0.00    +0.000 A 
ATOM     23 CL   UNL     1       2.748   2.043  18.810  0.00  0.00    +0.000 Cl
ATOM     24  C   UNL     1       2.893   4.722  18.173  0.00  0.00    +0.000 A 
ATOM     25 CL   UNL     1       1.250   4.612  17.624  0.00  0.00    +0.000 Cl
ENDBRANCH  17  18
ENDBRANCH   9  17
TORSDOF 4
ENDMDL
