MODEL 1
REMARK VINA RESULT:      -8.0      0.000      0.000
REMARK  Name = 
REMARK  10 active torsions:
REMARK  status: ('A' for Active; 'I' for Inactive)
REMARK    1  A    between atoms: C_1  and  S_2
REMARK    2  A    between atoms: S_2  and  C_3
REMARK    3  A    between atoms: C_7  and  O_8
REMARK    4  A    between atoms: O_8  and  C_9
REMARK    5  A    between atoms: C_15  and  C_16
REMARK    6  A    between atoms: N_18  and  C_19
REMARK    7  A    between atoms: C_19  and  C_20
REMARK    8  A    between atoms: C_19  and  C_21
REMARK    9  A    between atoms: C_24  and  C_25
REMARK   10  A    between atoms: C_25  and  O_27
REMARK                            x       y       z     vdW  Elec       q    Type
REMARK                         _______ _______ _______ _____ _____    ______ ____
ROOT
ATOM      1  C   UNL     1       2.214   6.129  19.943  0.00  0.00    +0.000 A 
ATOM      2  N   UNL     1       1.179   5.590  20.642  0.00  0.00    +0.000 NA
ATOM      3  C   UNL     1       0.756   4.355  20.291  0.00  0.00    +0.000 A 
ATOM      4  C   UNL     1       1.341   3.617  19.278  0.00  0.00    +0.000 A 
ATOM      5 CL   UNL     1       0.720   2.075  18.846  0.00  0.00    +0.000 Cl
ATOM      6  C   UNL     1       2.433   4.157  18.612  0.00  0.00    +0.000 A 
ATOM      7  C   UNL     1       2.909   5.438  18.945  0.00  0.00    +0.000 A 
ENDROOT
BRANCH   7   8
ATOM      8  C   UNL     1       4.083   5.945  18.182  0.00  0.00    +0.000 C 
ATOM      9  O   UNL     1       3.959   6.966  17.512  0.00  0.00    +0.000 OA
ATOM     10  N   UNL     1       5.272   5.247  18.243  0.00  0.00    +0.000 N 
ATOM     11  H   UNL     1       5.308   4.362  18.727  0.00  0.00    +0.000 HD
BRANCH  10  12
ATOM     12  C   UNL     1       6.420   5.628  17.428  0.00  0.00    +0.000 C 
ATOM     13  C   UNL     1       7.726   5.232  18.118  0.00  0.00    +0.000 C 
BRANCH  12  14
ATOM     14  C   UNL     1       6.313   5.036  16.031  0.00  0.00    +0.000 A 
ATOM     15  C   UNL     1       5.210   4.230  15.707  0.00  0.00    +0.000 A 
ATOM     16  C   UNL     1       5.098   3.641  14.444  0.00  0.00    +0.000 A 
ATOM     17  C   UNL     1       6.095   3.841  13.485  0.00  0.00    +0.000 A 
ATOM     18  C   UNL     1       7.180   4.678  13.780  0.00  0.00    +0.000 A 
ATOM     19  C   UNL     1       7.290   5.264  15.047  0.00  0.00    +0.000 A 
BRANCH  17  20
ATOM     20  C   UNL     1       5.937   3.174  12.167  0.00  0.00    +0.000 C 
ATOM     21  O   UNL     1       4.892   3.179  11.542  0.00  0.00    +0.000 OA
BRANCH  20  22
ATOM     22  O   UNL     1       7.041   2.521  11.746  0.00  0.00    +0.000 OA
ATOM     23  H   UNL     1       7.329   2.740  10.840  0.00  0.00    +0.000 HD
ENDBRANCH  20  22
ENDBRANCH  17  20
ENDBRANCH  12  14
ENDBRANCH  10  12
ENDBRANCH   7   8
BRANCH   1  24
ATOM     24  O   UNL     1       2.589   7.426  20.267  0.00  0.00    +0.000 OA
BRANCH  24  29
ATOM     25  C   UNL     1       0.101  10.180  20.481  0.00  0.00    +0.000 A 
ATOM     26  C   UNL     1      -0.092  10.396  19.110  0.00  0.00    +0.000 A 
ATOM     27  C   UNL     1       0.606   9.643  18.162  0.00  0.00    +0.000 A 
ATOM     28  C   UNL     1       1.510   8.665  18.577  0.00  0.00    +0.000 A 
ATOM     29  C   UNL     1       1.721   8.446  19.939  0.00  0.00    +0.000 A 
ATOM     30  C   UNL     1       0.992   9.182  20.886  0.00  0.00    +0.000 A 
BRANCH  25  32
ATOM     31  C   UNL     1      -0.792  10.151  23.145  0.00  0.00    +0.000 C 
ATOM     32  S   UNL     1      -0.880  11.141  21.625  0.00  0.00    +0.000 S 
ENDBRANCH  25  32
ENDBRANCH  24  29
ENDBRANCH   1  24
TORSDOF 8
ENDMDL
MODEL 2
REMARK VINA RESULT:      -7.9      3.695      8.578
REMARK  Name = 
REMARK  10 active torsions:
REMARK  status: ('A' for Active; 'I' for Inactive)
REMARK    1  A    between atoms: C_1  and  S_2
REMARK    2  A    between atoms: S_2  and  C_3
REMARK    3  A    between atoms: C_7  and  O_8
REMARK    4  A    between atoms: O_8  and  C_9
REMARK    5  A    between atoms: C_15  and  C_16
REMARK    6  A    between atoms: N_18  and  C_19
REMARK    7  A    between atoms: C_19  and  C_20
REMARK    8  A    between atoms: C_19  and  C_21
REMARK    9  A    between atoms: C_24  and  C_25
REMARK   10  A    between atoms: C_25  and  O_27
REMARK                            x       y       z     vdW  Elec       q    Type
REMARK                         _______ _______ _______ _____ _____    ______ ____
ROOT
ATOM      1  C   UNL     1       2.947   5.986  18.530  0.00  0.00    +0.000 A 
ATOM      2  N   UNL     1       3.113   4.652  18.317  0.00  0.00    +0.000 NA
ATOM      3  C   UNL     1       2.554   3.799  19.204  0.00  0.00    +0.000 A 
ATOM      4  C   UNL     1       1.810   4.221  20.292  0.00  0.00    +0.000 A 
ATOM      5 CL   UNL     1       1.172   3.085  21.411  0.00  0.00    +0.000 Cl
ATOM      6  C   UNL     1       1.602   5.583  20.462  0.00  0.00    +0.000 A 
ATOM      7  C   UNL     1       2.163   6.508  19.563  0.00  0.00    +0.000 A 
ENDROOT
BRANCH   7   8
ATOM      8  C   UNL     1       1.895   7.950  19.818  0.00  0.00    +0.000 C 
ATOM      9  O   UNL     1       1.805   8.341  20.978  0.00  0.00    +0.000 OA
ATOM     10  N   UNL     1       1.747   8.803  18.743  0.00  0.00    +0.000 N 
ATOM     11  H   UNL     1       1.734   8.428  17.806  0.00  0.00    +0.000 HD
BRANCH  10  12
ATOM     12  C   UNL     1       1.370  10.200  18.927  0.00  0.00    +0.000 C 
ATOM     13  C   UNL     1       2.314  11.119  18.152  0.00  0.00    +0.000 C 
BRANCH  12  14
ATOM     14  C   UNL     1      -0.084  10.423  18.542  0.00  0.00    +0.000 A 
ATOM     15  C   UNL     1      -0.840  11.384  19.233  0.00  0.00    +0.000 A 
ATOM     16  C   UNL     1      -2.189  11.590  18.930  0.00  0.00    +0.000 A 
ATOM     17  C   UNL     1      -2.808  10.831  17.932  0.00  0.00    +0.000 A 
ATOM     18  C   UNL     1      -2.055   9.899  17.205  0.00  0.00    +0.000 A 
ATOM     19  C   UNL     1      -0.705   9.694  17.514  0.00  0.00    +0.000 A 
BRANCH  17  20
ATOM     20  C   UNL     1      -4.249  11.075  17.665  0.00  0.00    +0.000 C 
ATOM     21  O   UNL     1      -5.141  10.460  18.222  0.00  0.00    +0.000 OA
BRANCH  20  22
ATOM     22  O   UNL     1      -4.481  12.007  16.717  0.00  0.00    +0.000 OA
ATOM     23  H   UNL     1      -5.284  12.545  16.855  0.00  0.00    +0.000 HD
ENDBRANCH  20  22
ENDBRANCH  17  20
ENDBRANCH  12  14
ENDBRANCH  10  12
ENDBRANCH   7   8
BRANCH   1  24
ATOM     24  O   UNL     1       3.588   6.850  17.651  0.00  0.00    +0.000 OA
BRANCH  24  29
ATOM     25  C   UNL     1       6.105   5.204  15.465  0.00  0.00    +0.000 A 
ATOM     26  C   UNL     1       7.263   5.571  16.165  0.00  0.00    +0.000 A 
ATOM     27  C   UNL     1       7.182   6.353  17.320  0.00  0.00    +0.000 A 
ATOM     28  C   UNL     1       5.940   6.782  17.788  0.00  0.00    +0.000 A 
ATOM     29  C   UNL     1       4.779   6.433  17.095  0.00  0.00    +0.000 A 
ATOM     30  C   UNL     1       4.863   5.620  15.955  0.00  0.00    +0.000 A 
BRANCH  25  32
ATOM     31  C   UNL     1       7.578   5.002  13.081  0.00  0.00    +0.000 C 
ATOM     32  S   UNL     1       6.291   4.148  14.036  0.00  0.00    +0.000 S 
ENDBRANCH  25  32
ENDBRANCH  24  29
ENDBRANCH   1  24
TORSDOF 8
ENDMDL
MODEL 3
REMARK VINA RESULT:      -7.9      0.875      1.451
REMARK  Name = 
REMARK  10 active torsions:
REMARK  status: ('A' for Active; 'I' for Inactive)
REMARK    1  A    between atoms: C_1  and  S_2
REMARK    2  A    between atoms: S_2  and  C_3
REMARK    3  A    between atoms: C_7  and  O_8
REMARK    4  A    between atoms: O_8  and  C_9
REMARK    5  A    between atoms: C_15  and  C_16
REMARK    6  A    between atoms: N_18  and  C_19
REMARK    7  A    between atoms: C_19  and  C_20
REMARK    8  A    between atoms: C_19  and  C_21
REMARK    9  A    between atoms: C_24  and  C_25
REMARK   10  A    between atoms: C_25  and  O_27
REMARK                            x       y       z     vdW  Elec       q    Type
REMARK                         _______ _______ _______ _____ _____    ______ ____
ROOT
ATOM      1  C   UNL     1       2.150   6.073  19.933  0.00  0.00    +0.000 A 
ATOM      2  N   UNL     1       1.144   5.491  20.640  0.00  0.00    +0.000 NA
ATOM      3  C   UNL     1       0.721   4.269  20.245  0.00  0.00    +0.000 A 
ATOM      4  C   UNL     1       1.279   3.585  19.180  0.00  0.00    +0.000 A 
ATOM      5 CL   UNL     1       0.660   2.058  18.698  0.00  0.00    +0.000 Cl
ATOM      6  C   UNL     1       2.344   4.168  18.505  0.00  0.00    +0.000 A 
ATOM      7  C   UNL     1       2.818   5.437  18.882  0.00  0.00    +0.000 A 
ENDROOT
BRANCH   7   8
ATOM      8  C   UNL     1       3.961   5.992  18.105  0.00  0.00    +0.000 C 
ATOM      9  O   UNL     1       3.793   7.019  17.454  0.00  0.00    +0.000 OA
ATOM     10  N   UNL     1       5.172   5.331  18.133  0.00  0.00    +0.000 N 
ATOM     11  H   UNL     1       5.245   4.440  18.602  0.00  0.00    +0.000 HD
BRANCH  10  12
ATOM     12  C   UNL     1       6.292   5.760  17.303  0.00  0.00    +0.000 C 
ATOM     13  C   UNL     1       7.621   5.471  18.000  0.00  0.00    +0.000 C 
BRANCH  12  14
ATOM     14  C   UNL     1       6.222   5.120  15.925  0.00  0.00    +0.000 A 
ATOM     15  C   UNL     1       5.185   4.217  15.637  0.00  0.00    +0.000 A 
ATOM     16  C   UNL     1       5.111   3.584  14.393  0.00  0.00    +0.000 A 
ATOM     17  C   UNL     1       6.079   3.836  13.417  0.00  0.00    +0.000 A 
ATOM     18  C   UNL     1       7.096   4.767  13.676  0.00  0.00    +0.000 A 
ATOM     19  C   UNL     1       7.168   5.397  14.924  0.00  0.00    +0.000 A 
BRANCH  17  20
ATOM     20  C   UNL     1       5.965   3.119  12.121  0.00  0.00    +0.000 C 
ATOM     21  O   UNL     1       4.950   3.124  11.448  0.00  0.00    +0.000 OA
BRANCH  20  22
ATOM     22  O   UNL     1       7.070   2.423  11.779  0.00  0.00    +0.000 OA
ATOM     23  H   UNL     1       6.983   1.882  10.972  0.00  0.00    +0.000 HD
ENDBRANCH  20  22
ENDBRANCH  17  20
ENDBRANCH  12  14
ENDBRANCH  10  12
ENDBRANCH   7   8
BRANCH   1  24
ATOM     24  O   UNL     1       2.523   7.358  20.305  0.00  0.00    +0.000 OA
BRANCH  24  29
ATOM     25  C   UNL     1      -0.002  10.016  19.686  0.00  0.00    +0.000 A 
ATOM     26  C   UNL     1      -0.410  10.229  21.010  0.00  0.00    +0.000 A 
ATOM     27  C   UNL     1       0.145   9.491  22.057  0.00  0.00    +0.000 A 
ATOM     28  C   UNL     1       1.114   8.523  21.792  0.00  0.00    +0.000 A 
ATOM     29  C   UNL     1       1.523   8.292  20.477  0.00  0.00    +0.000 A 
ATOM     30  C   UNL     1       0.987   9.060  19.433  0.00  0.00    +0.000 A 
BRANCH  25  32
ATOM     31  C   UNL     1      -2.111  11.826  19.275  0.00  0.00    +0.000 C 
ATOM     32  S   UNL     1      -0.714  11.050  18.413  0.00  0.00    +0.000 S 
ENDBRANCH  25  32
ENDBRANCH  24  29
ENDBRANCH   1  24
TORSDOF 8
ENDMDL
MODEL 4
REMARK VINA RESULT:      -7.8      3.712      8.440
REMARK  Name = 
REMARK  10 active torsions:
REMARK  status: ('A' for Active; 'I' for Inactive)
REMARK    1  A    between atoms: C_1  and  S_2
REMARK    2  A    between atoms: S_2  and  C_3
REMARK    3  A    between atoms: C_7  and  O_8
REMARK    4  A    between atoms: O_8  and  C_9
REMARK    5  A    between atoms: C_15  and  C_16
REMARK    6  A    between atoms: N_18  and  C_19
REMARK    7  A    between atoms: C_19  and  C_20
REMARK    8  A    between atoms: C_19  and  C_21
REMARK    9  A    between atoms: C_24  and  C_25
REMARK   10  A    between atoms: C_25  and  O_27
REMARK                            x       y       z     vdW  Elec       q    Type
REMARK                         _______ _______ _______ _____ _____    ______ ____
ROOT
ATOM      1  C   UNL     1       2.780   5.819  18.513  0.00  0.00    +0.000 A 
ATOM      2  N   UNL     1       2.915   4.479  18.318  0.00  0.00    +0.000 NA
ATOM      3  C   UNL     1       2.410   3.651  19.260  0.00  0.00    +0.000 A 
ATOM      4  C   UNL     1       1.749   4.105  20.387  0.00  0.00    +0.000 A 
ATOM      5 CL   UNL     1       1.177   3.001  21.572  0.00  0.00    +0.000 Cl
ATOM      6  C   UNL     1       1.568   5.473  20.542  0.00  0.00    +0.000 A 
ATOM      7  C   UNL     1       2.075   6.372  19.587  0.00  0.00    +0.000 A 
ENDROOT
BRANCH   7   8
ATOM      8  C   UNL     1       1.842   7.822  19.830  0.00  0.00    +0.000 C 
ATOM      9  O   UNL     1       1.849   8.240  20.984  0.00  0.00    +0.000 OA
ATOM     10  N   UNL     1       1.616   8.652  18.750  0.00  0.00    +0.000 N 
ATOM     11  H   UNL     1       1.525   8.257  17.826  0.00  0.00    +0.000 HD
BRANCH  10  12
ATOM     12  C   UNL     1       1.268  10.057  18.931  0.00  0.00    +0.000 C 
ATOM     13  C   UNL     1       2.215  10.954  18.133  0.00  0.00    +0.000 C 
BRANCH  12  14
ATOM     14  C   UNL     1      -0.188  10.305  18.570  0.00  0.00    +0.000 A 
ATOM     15  C   UNL     1      -0.755   9.620  17.483  0.00  0.00    +0.000 A 
ATOM     16  C   UNL     1      -2.080   9.850  17.102  0.00  0.00    +0.000 A 
ATOM     17  C   UNL     1      -2.860  10.777  17.798  0.00  0.00    +0.000 A 
ATOM     18  C   UNL     1      -2.321  11.436  18.913  0.00  0.00    +0.000 A 
ATOM     19  C   UNL     1      -0.992  11.205  19.289  0.00  0.00    +0.000 A 
BRANCH  17  20
ATOM     20  C   UNL     1      -4.255  10.999  17.338  0.00  0.00    +0.000 C 
ATOM     21  O   UNL     1      -5.169  11.270  18.096  0.00  0.00    +0.000 OA
BRANCH  20  22
ATOM     22  O   UNL     1      -4.429  10.828  16.010  0.00  0.00    +0.000 OA
ATOM     23  H   UNL     1      -5.258  11.196  15.652  0.00  0.00    +0.000 HD
ENDBRANCH  20  22
ENDBRANCH  17  20
ENDBRANCH  12  14
ENDBRANCH  10  12
ENDBRANCH   7   8
BRANCH   1  24
ATOM     24  O   UNL     1       3.368   6.657  17.574  0.00  0.00    +0.000 OA
BRANCH  24  29
ATOM     25  C   UNL     1       6.392   5.519  15.736  0.00  0.00    +0.000 A 
ATOM     26  C   UNL     1       7.358   5.847  16.697  0.00  0.00    +0.000 A 
ATOM     27  C   UNL     1       6.990   6.438  17.908  0.00  0.00    +0.000 A 
ATOM     28  C   UNL     1       5.648   6.714  18.170  0.00  0.00    +0.000 A 
ATOM     29  C   UNL     1       4.676   6.403  17.218  0.00  0.00    +0.000 A 
ATOM     30  C   UNL     1       5.047   5.778  16.018  0.00  0.00    +0.000 A 
BRANCH  25  32
ATOM     31  C   UNL     1       5.415   3.928  13.636  0.00  0.00    +0.000 C 
ATOM     32  S   UNL     1       6.941   4.704  14.242  0.00  0.00    +0.000 S 
ENDBRANCH  25  32
ENDBRANCH  24  29
ENDBRANCH   1  24
TORSDOF 8
ENDMDL
MODEL 5
REMARK VINA RESULT:      -7.8      4.308      6.849
REMARK  Name = 
REMARK  10 active torsions:
REMARK  status: ('A' for Active; 'I' for Inactive)
REMARK    1  A    between atoms: C_1  and  S_2
REMARK    2  A    between atoms: S_2  and  C_3
REMARK    3  A    between atoms: C_7  and  O_8
REMARK    4  A    between atoms: O_8  and  C_9
REMARK    5  A    between atoms: C_15  and  C_16
REMARK    6  A    between atoms: N_18  and  C_19
REMARK    7  A    between atoms: C_19  and  C_20
REMARK    8  A    between atoms: C_19  and  C_21
REMARK    9  A    between atoms: C_24  and  C_25
REMARK   10  A    between atoms: C_25  and  O_27
REMARK                            x       y       z     vdW  Elec       q    Type
REMARK                         _______ _______ _______ _____ _____    ______ ____
ROOT
ATOM      1  C   UNL     1      -1.985  11.874  18.830  0.00  0.00    +0.000 A 
ATOM      2  N   UNL     1      -3.192  12.130  18.256  0.00  0.00    +0.000 NA
ATOM      3  C   UNL     1      -3.557  11.378  17.194  0.00  0.00    +0.000 A 
ATOM      4  C   UNL     1      -2.774  10.356  16.688  0.00  0.00    +0.000 A 
ATOM      5 CL   UNL     1      -3.273   9.472  15.303  0.00  0.00    +0.000 Cl
ATOM      6  C   UNL     1      -1.571  10.069  17.321  0.00  0.00    +0.000 A 
ATOM      7  C   UNL     1      -1.152  10.824  18.431  0.00  0.00    +0.000 A 
ENDROOT
BRANCH   7   8
ATOM      8  C   UNL     1       0.151  10.455  19.049  0.00  0.00    +0.000 C 
ATOM      9  O   UNL     1       1.168  11.039  18.686  0.00  0.00    +0.000 OA
ATOM     10  N   UNL     1       0.179   9.460  20.005  0.00  0.00    +0.000 N 
ATOM     11  H   UNL     1      -0.661   8.938  20.209  0.00  0.00    +0.000 HD
BRANCH  10  12
ATOM     12  C   UNL     1       1.437   8.975  20.563  0.00  0.00    +0.000 C 
ATOM     13  C   UNL     1       1.362   8.913  22.088  0.00  0.00    +0.000 C 
BRANCH  12  14
ATOM     14  C   UNL     1       1.815   7.633  19.957  0.00  0.00    +0.000 A 
ATOM     15  C   UNL     1       2.400   7.593  18.681  0.00  0.00    +0.000 A 
ATOM     16  C   UNL     1       2.728   6.375  18.079  0.00  0.00    +0.000 A 
ATOM     17  C   UNL     1       2.468   5.172  18.741  0.00  0.00    +0.000 A 
ATOM     18  C   UNL     1       1.923   5.198  20.033  0.00  0.00    +0.000 A 
ATOM     19  C   UNL     1       1.594   6.420  20.631  0.00  0.00    +0.000 A 
BRANCH  17  20
ATOM     20  C   UNL     1       2.815   3.905  18.047  0.00  0.00    +0.000 C 
ATOM     21  O   UNL     1       2.017   3.277  17.374  0.00  0.00    +0.000 OA
BRANCH  20  22
ATOM     22  O   UNL     1       4.080   3.488  18.266  0.00  0.00    +0.000 OA
ATOM     23  H   UNL     1       4.773   4.037  17.853  0.00  0.00    +0.000 HD
ENDBRANCH  20  22
ENDBRANCH  17  20
ENDBRANCH  12  14
ENDBRANCH  10  12
ENDBRANCH   7   8
BRANCH   1  24
ATOM     24  O   UNL     1      -1.592  12.703  19.873  0.00  0.00    +0.000 OA
BRANCH  24  29
ATOM     25  C   UNL     1      -4.101  13.079  22.591  0.00  0.00    +0.000 A 
ATOM     26  C   UNL     1      -3.435  12.359  23.592  0.00  0.00    +0.000 A 
ATOM     27  C   UNL     1      -2.195  11.766  23.342  0.00  0.00    +0.000 A 
ATOM     28  C   UNL     1      -1.608  11.883  22.082  0.00  0.00    +0.000 A 
ATOM     29  C   UNL     1      -2.263  12.588  21.072  0.00  0.00    +0.000 A 
ATOM     30  C   UNL     1      -3.492  13.210  21.339  0.00  0.00    +0.000 A 
BRANCH  25  32
ATOM     31  C   UNL     1      -6.403  12.659  24.146  0.00  0.00    +0.000 C 
ATOM     32  S   UNL     1      -5.651  13.863  23.014  0.00  0.00    +0.000 S 
ENDBRANCH  25  32
ENDBRANCH  24  29
ENDBRANCH   1  24
TORSDOF 8
ENDMDL
MODEL 6
REMARK VINA RESULT:      -7.7      0.915      1.823
REMARK  Name = 
REMARK  10 active torsions:
REMARK  status: ('A' for Active; 'I' for Inactive)
REMARK    1  A    between atoms: C_1  and  S_2
REMARK    2  A    between atoms: S_2  and  C_3
REMARK    3  A    between atoms: C_7  and  O_8
REMARK    4  A    between atoms: O_8  and  C_9
REMARK    5  A    between atoms: C_15  and  C_16
REMARK    6  A    between atoms: N_18  and  C_19
REMARK    7  A    between atoms: C_19  and  C_20
REMARK    8  A    between atoms: C_19  and  C_21
REMARK    9  A    between atoms: C_24  and  C_25
REMARK   10  A    between atoms: C_25  and  O_27
REMARK                            x       y       z     vdW  Elec       q    Type
REMARK                         _______ _______ _______ _____ _____    ______ ____
ROOT
ATOM      1  C   UNL     1       2.142   6.202  20.040  0.00  0.00    +0.000 A 
ATOM      2  N   UNL     1       1.199   5.577  20.797  0.00  0.00    +0.000 NA
ATOM      3  C   UNL     1       0.779   4.356  20.397  0.00  0.00    +0.000 A 
ATOM      4  C   UNL     1       1.277   3.715  19.277  0.00  0.00    +0.000 A 
ATOM      5 CL   UNL     1       0.660   2.187  18.794  0.00  0.00    +0.000 Cl
ATOM      6  C   UNL     1       2.280   4.342  18.549  0.00  0.00    +0.000 A 
ATOM      7  C   UNL     1       2.750   5.611  18.928  0.00  0.00    +0.000 A 
ENDROOT
BRANCH   7   8
ATOM      8  C   UNL     1       3.824   6.215  18.092  0.00  0.00    +0.000 C 
ATOM      9  O   UNL     1       3.559   7.194  17.401  0.00  0.00    +0.000 OA
ATOM     10  N   UNL     1       5.083   5.650  18.111  0.00  0.00    +0.000 N 
ATOM     11  H   UNL     1       5.238   4.791  18.618  0.00  0.00    +0.000 HD
BRANCH  10  12
ATOM     12  C   UNL     1       6.143   6.124  17.229  0.00  0.00    +0.000 C 
ATOM     13  C   UNL     1       7.495   6.091  17.942  0.00  0.00    +0.000 C 
BRANCH  12  14
ATOM     14  C   UNL     1       6.165   5.329  15.933  0.00  0.00    +0.000 A 
ATOM     15  C   UNL     1       7.194   5.552  15.004  0.00  0.00    +0.000 A 
ATOM     16  C   UNL     1       7.225   4.864  13.787  0.00  0.00    +0.000 A 
ATOM     17  C   UNL     1       6.219   3.945  13.475  0.00  0.00    +0.000 A 
ATOM     18  C   UNL     1       5.209   3.680  14.411  0.00  0.00    +0.000 A 
ATOM     19  C   UNL     1       5.181   4.374  15.627  0.00  0.00    +0.000 A 
BRANCH  17  20
ATOM     20  C   UNL     1       6.288   3.258  12.159  0.00  0.00    +0.000 C 
ATOM     21  O   UNL     1       5.404   2.531  11.744  0.00  0.00    +0.000 OA
BRANCH  20  22
ATOM     22  O   UNL     1       7.438   3.474  11.487  0.00  0.00    +0.000 OA
ATOM     23  H   UNL     1       7.343   3.543  10.518  0.00  0.00    +0.000 HD
ENDBRANCH  20  22
ENDBRANCH  17  20
ENDBRANCH  12  14
ENDBRANCH  10  12
ENDBRANCH   7   8
BRANCH   1  24
ATOM     24  O   UNL     1       2.511   7.485  20.423  0.00  0.00    +0.000 OA
BRANCH  24  29
ATOM     25  C   UNL     1      -0.047  10.129  19.881  0.00  0.00    +0.000 A 
ATOM     26  C   UNL     1      -0.433  10.323  21.214  0.00  0.00    +0.000 A 
ATOM     27  C   UNL     1       0.146   9.577  22.243  0.00  0.00    +0.000 A 
ATOM     28  C   UNL     1       1.119   8.621  21.948  0.00  0.00    +0.000 A 
ATOM     29  C   UNL     1       1.506   8.408  20.624  0.00  0.00    +0.000 A 
ATOM     30  C   UNL     1       0.946   9.185  19.599  0.00  0.00    +0.000 A 
BRANCH  25  32
ATOM     31  C   UNL     1       0.300  12.625  18.639  0.00  0.00    +0.000 C 
ATOM     32  S   UNL     1      -0.789  11.173  18.634  0.00  0.00    +0.000 S 
ENDBRANCH  25  32
ENDBRANCH  24  29
ENDBRANCH   1  24
TORSDOF 8
ENDMDL
MODEL 7
REMARK VINA RESULT:      -7.7      2.593      4.321
REMARK  Name = 
REMARK  10 active torsions:
REMARK  status: ('A' for Active; 'I' for Inactive)
REMARK    1  A    between atoms: C_1  and  S_2
REMARK    2  A    between atoms: S_2  and  C_3
REMARK    3  A    between atoms: C_7  and  O_8
REMARK    4  A    between atoms: O_8  and  C_9
REMARK    5  A    between atoms: C_15  and  C_16
REMARK    6  A    between atoms: N_18  and  C_19
REMARK    7  A    between atoms: C_19  and  C_20
REMARK    8  A    between atoms: C_19  and  C_21
REMARK    9  A    between atoms: C_24  and  C_25
REMARK   10  A    between atoms: C_25  and  O_27
REMARK                            x       y       z     vdW  Elec       q    Type
REMARK                         _______ _______ _______ _____ _____    ______ ____
ROOT
ATOM      1  C   UNL     1       2.703   4.995  19.644  0.00  0.00    +0.000 A 
ATOM      2  N   UNL     1       1.405   4.898  20.043  0.00  0.00    +0.000 NA
ATOM      3  C   UNL     1       0.762   3.731  19.815  0.00  0.00    +0.000 A 
ATOM      4  C   UNL     1       1.368   2.638  19.222  0.00  0.00    +0.000 A 
ATOM      5 CL   UNL     1       0.478   1.202  18.913  0.00  0.00    +0.000 Cl
ATOM      6  C   UNL     1       2.709   2.734  18.874  0.00  0.00    +0.000 A 
ATOM      7  C   UNL     1       3.419   3.928  19.094  0.00  0.00    +0.000 A 
ENDROOT
BRANCH   7   8
ATOM      8  C   UNL     1       4.852   3.949  18.689  0.00  0.00    +0.000 C 
ATOM      9  O   UNL     1       5.693   3.492  19.458  0.00  0.00    +0.000 OA
ATOM     10  N   UNL     1       5.192   4.489  17.466  0.00  0.00    +0.000 N 
ATOM     11  H   UNL     1       4.485   4.940  16.903  0.00  0.00    +0.000 HD
BRANCH  10  12
ATOM     12  C   UNL     1       6.586   4.643  17.063  0.00  0.00    +0.000 C 
ATOM     13  C   UNL     1       6.733   4.470  15.552  0.00  0.00    +0.000 C 
BRANCH  12  14
ATOM     14  C   UNL     1       7.143   5.975  17.540  0.00  0.00    +0.000 A 
ATOM     15  C   UNL     1       6.846   7.144  16.819  0.00  0.00    +0.000 A 
ATOM     16  C   UNL     1       7.370   8.380  17.208  0.00  0.00    +0.000 A 
ATOM     17  C   UNL     1       8.210   8.467  18.322  0.00  0.00    +0.000 A 
ATOM     18  C   UNL     1       8.481   7.316  19.076  0.00  0.00    +0.000 A 
ATOM     19  C   UNL     1       7.955   6.080  18.681  0.00  0.00    +0.000 A 
BRANCH  17  20
ATOM     20  C   UNL     1       8.757   9.801  18.679  0.00  0.00    +0.000 C 
ATOM     21  O   UNL     1       8.663  10.773  17.951  0.00  0.00    +0.000 OA
BRANCH  20  22
ATOM     22  O   UNL     1       9.411   9.829  19.859  0.00  0.00    +0.000 OA
ATOM     23  H   UNL     1       9.084   9.196  20.526  0.00  0.00    +0.000 HD
ENDBRANCH  20  22
ENDBRANCH  17  20
ENDBRANCH  12  14
ENDBRANCH  10  12
ENDBRANCH   7   8
BRANCH   1  24
ATOM     24  O   UNL     1       3.327   6.223  19.819  0.00  0.00    +0.000 OA
BRANCH  24  29
ATOM     25  C   UNL     1       1.083   9.187  19.867  0.00  0.00    +0.000 A 
ATOM     26  C   UNL     1       1.194   9.556  18.519  0.00  0.00    +0.000 A 
ATOM     27  C   UNL     1       2.006   8.831  17.644  0.00  0.00    +0.000 A 
ATOM     28  C   UNL     1       2.723   7.728  18.109  0.00  0.00    +0.000 A 
ATOM     29  C   UNL     1       2.631   7.355  19.451  0.00  0.00    +0.000 A 
ATOM     30  C   UNL     1       1.787   8.066  20.317  0.00  0.00    +0.000 A 
BRANCH  25  32
ATOM     31  C   UNL     1      -0.537  11.482  19.806  0.00  0.00    +0.000 C 
ATOM     32  S   UNL     1      -0.030  10.127  20.903  0.00  0.00    +0.000 S 
ENDBRANCH  25  32
ENDBRANCH  24  29
ENDBRANCH   1  24
TORSDOF 8
ENDMDL
MODEL 8
REMARK VINA RESULT:      -7.6      3.497      8.147
REMARK  Name = 
REMARK  10 active torsions:
REMARK  status: ('A' for Active; 'I' for Inactive)
REMARK    1  A    between atoms: C_1  and  S_2
REMARK    2  A    between atoms: S_2  and  C_3
REMARK    3  A    between atoms: C_7  and  O_8
REMARK    4  A    between atoms: O_8  and  C_9
REMARK    5  A    between atoms: C_15  and  C_16
REMARK    6  A    between atoms: N_18  and  C_19
REMARK    7  A    between atoms: C_19  and  C_20
REMARK    8  A    between atoms: C_19  and  C_21
REMARK    9  A    between atoms: C_24  and  C_25
REMARK   10  A    between atoms: C_25  and  O_27
REMARK                            x       y       z     vdW  Elec       q    Type
REMARK                         _______ _______ _______ _____ _____    ______ ____
ROOT
ATOM      1  C   UNL     1       2.587   5.470  18.384  0.00  0.00    +0.000 A 
ATOM      2  N   UNL     1       2.611   4.121  18.204  0.00  0.00    +0.000 NA
ATOM      3  C   UNL     1       2.153   3.344  19.210  0.00  0.00    +0.000 A 
ATOM      4  C   UNL     1       1.645   3.857  20.390  0.00  0.00    +0.000 A 
ATOM      5 CL   UNL     1       1.128   2.811  21.651  0.00  0.00    +0.000 Cl
ATOM      6  C   UNL     1       1.574   5.236  20.535  0.00  0.00    +0.000 A 
ATOM      7  C   UNL     1       2.038   6.085  19.514  0.00  0.00    +0.000 A 
ENDROOT
BRANCH   7   8
ATOM      8  C   UNL     1       1.929   7.551  19.749  0.00  0.00    +0.000 C 
ATOM      9  O   UNL     1       2.050   7.980  20.892  0.00  0.00    +0.000 OA
ATOM     10  N   UNL     1       1.687   8.384  18.675  0.00  0.00    +0.000 N 
ATOM     11  H   UNL     1       1.499   7.986  17.766  0.00  0.00    +0.000 HD
BRANCH  10  12
ATOM     12  C   UNL     1       1.456   9.812  18.857  0.00  0.00    +0.000 C 
ATOM     13  C   UNL     1       2.471  10.629  18.057  0.00  0.00    +0.000 C 
BRANCH  12  14
ATOM     14  C   UNL     1       0.024  10.179  18.501  0.00  0.00    +0.000 A 
ATOM     15  C   UNL     1      -0.647  11.153  19.260  0.00  0.00    +0.000 A 
ATOM     16  C   UNL     1      -1.976  11.488  18.982  0.00  0.00    +0.000 A 
ATOM     17  C   UNL     1      -2.660  10.848  17.945  0.00  0.00    +0.000 A 
ATOM     18  C   UNL     1      -1.990   9.905  17.153  0.00  0.00    +0.000 A 
ATOM     19  C   UNL     1      -0.660   9.570  17.436  0.00  0.00    +0.000 A 
BRANCH  17  20
ATOM     20  C   UNL     1      -4.077  11.227  17.708  0.00  0.00    +0.000 C 
ATOM     21  O   UNL     1      -4.986  10.889  18.444  0.00  0.00    +0.000 OA
BRANCH  20  22
ATOM     22  O   UNL     1      -4.273  11.940  16.579  0.00  0.00    +0.000 OA
ATOM     23  H   UNL     1      -3.458  12.205  16.112  0.00  0.00    +0.000 HD
ENDBRANCH  20  22
ENDBRANCH  17  20
ENDBRANCH  12  14
ENDBRANCH  10  12
ENDBRANCH   7   8
BRANCH   1  24
ATOM     24  O   UNL     1       3.129   6.253  17.373  0.00  0.00    +0.000 OA
BRANCH  24  29
ATOM     25  C   UNL     1       6.826   6.602  17.543  0.00  0.00    +0.000 A 
ATOM     26  C   UNL     1       7.159   5.874  16.393  0.00  0.00    +0.000 A 
ATOM     27  C   UNL     1       6.166   5.284  15.607  0.00  0.00    +0.000 A 
ATOM     28  C   UNL     1       4.824   5.413  15.967  0.00  0.00    +0.000 A 
ATOM     29  C   UNL     1       4.478   6.126  17.116  0.00  0.00    +0.000 A 
ATOM     30  C   UNL     1       5.477   6.744  17.882  0.00  0.00    +0.000 A 
BRANCH  25  32
ATOM     31  C   UNL     1       8.092   9.091  17.852  0.00  0.00    +0.000 C 
ATOM     32  S   UNL     1       8.153   7.379  18.454  0.00  0.00    +0.000 S 
ENDBRANCH  25  32
ENDBRANCH  24  29
ENDBRANCH   1  24
TORSDOF 8
ENDMDL
MODEL 9
REMARK VINA RESULT:      -7.6      0.669      1.109
REMARK  Name = 
REMARK  10 active torsions:
REMARK  status: ('A' for Active; 'I' for Inactive)
REMARK    1  A    between atoms: C_1  and  S_2
REMARK    2  A    between atoms: S_2  and  C_3
REMARK    3  A    between atoms: C_7  and  O_8
REMARK    4  A    between atoms: O_8  and  C_9
REMARK    5  A    between atoms: C_15  and  C_16
REMARK    6  A    between atoms: N_18  and  C_19
REMARK    7  A    between atoms: C_19  and  C_20
REMARK    8  A    between atoms: C_19  and  C_21
REMARK    9  A    between atoms: C_24  and  C_25
REMARK   10  A    between atoms: C_25  and  O_27
REMARK                            x       y       z     vdW  Elec       q    Type
REMARK                         _______ _______ _______ _____ _____    ______ ____
ROOT
ATOM      1  C   UNL     1       2.194   6.184  19.957  0.00  0.00    +0.000 A 
ATOM      2  N   UNL     1       1.146   5.655  20.646  0.00  0.00    +0.000 NA
ATOM      3  C   UNL     1       0.734   4.412  20.308  0.00  0.00    +0.000 A 
ATOM      4  C   UNL     1       1.341   3.658  19.319  0.00  0.00    +0.000 A 
ATOM      5 CL   UNL     1       0.734   2.107  18.903  0.00  0.00    +0.000 Cl
ATOM      6  C   UNL     1       2.445   4.191  18.666  0.00  0.00    +0.000 A 
ATOM      7  C   UNL     1       2.910   5.479  18.986  0.00  0.00    +0.000 A 
ENDROOT
BRANCH   7   8
ATOM      8  C   UNL     1       4.096   5.977  18.236  0.00  0.00    +0.000 C 
ATOM      9  O   UNL     1       3.954   6.907  17.449  0.00  0.00    +0.000 OA
ATOM     10  N   UNL     1       5.319   5.371  18.442  0.00  0.00    +0.000 N 
ATOM     11  H   UNL     1       5.378   4.549  19.025  0.00  0.00    +0.000 HD
BRANCH  10  12
ATOM     12  C   UNL     1       6.492   5.737  17.655  0.00  0.00    +0.000 C 
ATOM     13  C   UNL     1       7.776   5.392  18.409  0.00  0.00    +0.000 C 
BRANCH  12  14
ATOM     14  C   UNL     1       6.446   5.085  16.282  0.00  0.00    +0.000 A 
ATOM     15  C   UNL     1       7.275   5.575  15.259  0.00  0.00    +0.000 A 
ATOM     16  C   UNL     1       7.233   5.023  13.975  0.00  0.00    +0.000 A 
ATOM     17  C   UNL     1       6.353   3.975  13.690  0.00  0.00    +0.000 A 
ATOM     18  C   UNL     1       5.551   3.448  14.712  0.00  0.00    +0.000 A 
ATOM     19  C   UNL     1       5.594   4.005  15.996  0.00  0.00    +0.000 A 
BRANCH  17  20
ATOM     20  C   UNL     1       6.333   3.441  12.304  0.00  0.00    +0.000 C 
ATOM     21  O   UNL     1       5.557   2.576  11.937  0.00  0.00    +0.000 OA
BRANCH  20  22
ATOM     22  O   UNL     1       7.283   3.964  11.500  0.00  0.00    +0.000 OA
ATOM     23  H   UNL     1       8.174   4.014  11.894  0.00  0.00    +0.000 HD
ENDBRANCH  20  22
ENDBRANCH  17  20
ENDBRANCH  12  14
ENDBRANCH  10  12
ENDBRANCH   7   8
BRANCH   1  24
ATOM     24  O   UNL     1       2.558   7.489  20.266  0.00  0.00    +0.000 OA
BRANCH  24  29
ATOM     25  C   UNL     1       0.054  10.236  20.353  0.00  0.00    +0.000 A 
ATOM     26  C   UNL     1      -0.090  10.432  18.973  0.00  0.00    +0.000 A 
ATOM     27  C   UNL     1       0.643   9.668  18.062  0.00  0.00    +0.000 A 
ATOM     28  C   UNL     1       1.535   8.700  18.522  0.00  0.00    +0.000 A 
ATOM     29  C   UNL     1       1.698   8.500  19.894  0.00  0.00    +0.000 A 
ATOM     30  C   UNL     1       0.934   9.246  20.803  0.00  0.00    +0.000 A 
BRANCH  25  32
ATOM     31  C   UNL     1       0.005  12.727  21.652  0.00  0.00    +0.000 C 
ATOM     32  S   UNL     1      -0.970  11.209  21.449  0.00  0.00    +0.000 S 
ENDBRANCH  25  32
ENDBRANCH  24  29
ENDBRANCH   1  24
TORSDOF 8
ENDMDL
