MODEL 1
REMARK VINA RESULT:      -7.2      0.000      0.000
REMARK  Name = 
REMARK  4 active torsions:
REMARK  status: ('A' for Active; 'I' for Inactive)
REMARK    1  A    between atoms: C_1  and  C_2
REMARK    2  A    between atoms: C_5  and  C_6
REMARK    3  A    between atoms: C_6  and  C_7
REMARK    4  A    between atoms: C_16  and  C_17
REMARK                            x       y       z     vdW  Elec       q    Type
REMARK                         _______ _______ _______ _____ _____    ______ ____
ROOT
ATOM      1  C   UNL     1       6.085   5.814  17.999  0.00  0.00    +0.000 C 
ENDROOT
BRANCH   1   2
ATOM      2  C   UNL     1       6.825   5.822  16.675  0.00  0.00    +0.000 C 
ATOM      3  O   UNL     1       7.619   6.731  16.443  0.00  0.00    +0.000 OA
ATOM      4  N   UNL     1       6.432   4.838  15.792  0.00  0.00    +0.000 N 
ATOM      5  C   UNL     1       6.921   4.808  14.513  0.00  0.00    +0.000 A 
ATOM      6  N   UNL     1       7.881   5.524  13.986  0.00  0.00    +0.000 NA
ATOM      7  C   UNL     1       7.981   5.248  12.641  0.00  0.00    +0.000 A 
ATOM      8  C   UNL     1       7.090   4.313  12.161  0.00  0.00    +0.000 A 
ATOM      9  S   UNL     1       6.134   3.715  13.461  0.00  0.00    +0.000 S 
ATOM     10  H   UNL     1       5.711   4.175  16.035  0.00  0.00    +0.000 HD
ENDBRANCH   1   2
BRANCH   1  15
ATOM     11  C   UNL     1       0.964   3.061  18.486  0.00  0.00    +0.000 C 
ATOM     12  C   UNL     1       2.302   3.730  18.310  0.00  0.00    +0.000 A 
ATOM     13  C   UNL     1       2.350   5.115  18.086  0.00  0.00    +0.000 A 
ATOM     14  C   UNL     1       3.570   5.777  17.955  0.00  0.00    +0.000 A 
ATOM     15  C   UNL     1       4.772   5.070  18.036  0.00  0.00    +0.000 A 
ATOM     16  C   UNL     1       4.732   3.686  18.255  0.00  0.00    +0.000 A 
ATOM     17  C   UNL     1       3.510   3.007  18.393  0.00  0.00    +0.000 A 
ATOM     18  C   UNL     1       3.512   1.523  18.649  0.00  0.00    +0.000 C 
ENDBRANCH   1  15
TORSDOF 2
ENDMDL
MODEL 2
REMARK VINA RESULT:      -6.7      6.541      9.143
REMARK  Name = 
REMARK  4 active torsions:
REMARK  status: ('A' for Active; 'I' for Inactive)
REMARK    1  A    between atoms: C_1  and  C_2
REMARK    2  A    between atoms: C_5  and  C_6
REMARK    3  A    between atoms: C_6  and  C_7
REMARK    4  A    between atoms: C_16  and  C_17
REMARK                            x       y       z     vdW  Elec       q    Type
REMARK                         _______ _______ _______ _____ _____    ______ ____
ROOT
ATOM      1  C   UNL     1       9.317  10.318  19.237  0.00  0.00    +0.000 C 
ENDROOT
BRANCH   1   2
ATOM      2  C   UNL     1       8.546   9.343  18.367  0.00  0.00    +0.000 C 
ATOM      3  O   UNL     1       7.877   9.781  17.433  0.00  0.00    +0.000 OA
ATOM      4  N   UNL     1       8.583   8.034  18.798  0.00  0.00    +0.000 N 
ATOM      5  C   UNL     1       7.826   7.072  18.186  0.00  0.00    +0.000 A 
ATOM      6  N   UNL     1       7.126   7.158  17.085  0.00  0.00    +0.000 NA
ATOM      7  C   UNL     1       6.431   5.987  16.882  0.00  0.00    +0.000 A 
ATOM      8  C   UNL     1       6.621   5.014  17.840  0.00  0.00    +0.000 A 
ATOM      9  S   UNL     1       7.760   5.572  19.003  0.00  0.00    +0.000 S 
ATOM     10  H   UNL     1       9.096   7.771  19.628  0.00  0.00    +0.000 HD
ENDBRANCH   1   2
BRANCH   1  15
ATOM     11  C   UNL     1      11.359  15.285  16.955  0.00  0.00    +0.000 C 
ATOM     12  C   UNL     1      10.774  14.011  17.508  0.00  0.00    +0.000 A 
ATOM     13  C   UNL     1      11.492  12.813  17.368  0.00  0.00    +0.000 A 
ATOM     14  C   UNL     1      11.003  11.620  17.899  0.00  0.00    +0.000 A 
ATOM     15  C   UNL     1       9.782  11.593  18.575  0.00  0.00    +0.000 A 
ATOM     16  C   UNL     1       9.057  12.785  18.715  0.00  0.00    +0.000 A 
ATOM     17  C   UNL     1       9.540  13.995  18.189  0.00  0.00    +0.000 A 
ATOM     18  C   UNL     1       8.741  15.257  18.380  0.00  0.00    +0.000 C 
ENDBRANCH   1  15
TORSDOF 2
ENDMDL
MODEL 3
REMARK VINA RESULT:      -6.6      3.833      6.564
REMARK  Name = 
REMARK  4 active torsions:
REMARK  status: ('A' for Active; 'I' for Inactive)
REMARK    1  A    between atoms: C_1  and  C_2
REMARK    2  A    between atoms: C_5  and  C_6
REMARK    3  A    between atoms: C_6  and  C_7
REMARK    4  A    between atoms: C_16  and  C_17
REMARK                            x       y       z     vdW  Elec       q    Type
REMARK                         _______ _______ _______ _____ _____    ______ ____
ROOT
ATOM      1  C   UNL     1       4.584   3.690  16.464  0.00  0.00    +0.000 C 
ENDROOT
BRANCH   1   2
ATOM      2  C   UNL     1       3.350   3.397  17.295  0.00  0.00    +0.000 C 
ATOM      3  O   UNL     1       2.241   3.580  16.799  0.00  0.00    +0.000 OA
ATOM      4  N   UNL     1       3.609   3.052  18.606  0.00  0.00    +0.000 N 
ATOM      5  C   UNL     1       2.588   2.890  19.503  0.00  0.00    +0.000 A 
ATOM      6  N   UNL     1       1.299   2.862  19.281  0.00  0.00    +0.000 NA
ATOM      7  C   UNL     1       0.623   2.783  20.477  0.00  0.00    +0.000 A 
ATOM      8  C   UNL     1       1.417   2.744  21.603  0.00  0.00    +0.000 A 
ATOM      9  S   UNL     1       3.072   2.747  21.136  0.00  0.00    +0.000 S 
ATOM     10  H   UNL     1       4.555   3.002  18.956  0.00  0.00    +0.000 HD
ENDBRANCH   1   2
BRANCH   1  15
ATOM     11  C   UNL     1       7.995   8.240  17.772  0.00  0.00    +0.000 C 
ATOM     12  C   UNL     1       7.091   7.066  17.498  0.00  0.00    +0.000 A 
ATOM     13  C   UNL     1       6.177   7.142  16.436  0.00  0.00    +0.000 A 
ATOM     14  C   UNL     1       5.349   6.063  16.126  0.00  0.00    +0.000 A 
ATOM     15  C   UNL     1       5.408   4.887  16.875  0.00  0.00    +0.000 A 
ATOM     16  C   UNL     1       6.317   4.805  17.941  0.00  0.00    +0.000 A 
ATOM     17  C   UNL     1       7.159   5.882  18.261  0.00  0.00    +0.000 A 
ATOM     18  C   UNL     1       8.136   5.746  19.399  0.00  0.00    +0.000 C 
ENDBRANCH   1  15
TORSDOF 2
ENDMDL
MODEL 4
REMARK VINA RESULT:      -6.6      4.605      5.658
REMARK  Name = 
REMARK  4 active torsions:
REMARK  status: ('A' for Active; 'I' for Inactive)
REMARK    1  A    between atoms: C_1  and  C_2
REMARK    2  A    between atoms: C_5  and  C_6
REMARK    3  A    between atoms: C_6  and  C_7
REMARK    4  A    between atoms: C_16  and  C_17
REMARK                            x       y       z     vdW  Elec       q    Type
REMARK                         _______ _______ _______ _____ _____    ______ ____
ROOT
ATOM      1  C   UNL     1       8.226   6.716  18.680  0.00  0.00    +0.000 C 
ENDROOT
BRANCH   1   2
ATOM      2  C   UNL     1       8.194   8.178  18.277  0.00  0.00    +0.000 C 
ATOM      3  O   UNL     1       7.644   8.492  17.224  0.00  0.00    +0.000 OA
ATOM      4  N   UNL     1       8.910   9.018  19.104  0.00  0.00    +0.000 N 
ATOM      5  C   UNL     1       9.076  10.339  18.787  0.00  0.00    +0.000 A 
ATOM      6  N   UNL     1       8.509  11.030  17.832  0.00  0.00    +0.000 NA
ATOM      7  C   UNL     1       9.038  12.301  17.800  0.00  0.00    +0.000 A 
ATOM      8  C   UNL     1      10.006  12.561  18.746  0.00  0.00    +0.000 A 
ATOM      9  S   UNL     1      10.214  11.178  19.748  0.00  0.00    +0.000 S 
ATOM     10  H   UNL     1       9.402   8.662  19.911  0.00  0.00    +0.000 HD
ENDBRANCH   1   2
BRANCH   1  15
ATOM     11  C   UNL     1       3.805   3.180  17.267  0.00  0.00    +0.000 C 
ATOM     12  C   UNL     1       4.929   4.133  17.580  0.00  0.00    +0.000 A 
ATOM     13  C   UNL     1       5.017   4.686  18.867  0.00  0.00    +0.000 A 
ATOM     14  C   UNL     1       6.064   5.543  19.207  0.00  0.00    +0.000 A 
ATOM     15  C   UNL     1       7.042   5.874  18.268  0.00  0.00    +0.000 A 
ATOM     16  C   UNL     1       6.958   5.329  16.979  0.00  0.00    +0.000 A 
ATOM     17  C   UNL     1       5.912   4.462  16.624  0.00  0.00    +0.000 A 
ATOM     18  C   UNL     1       5.870   3.881  15.235  0.00  0.00    +0.000 C 
ENDBRANCH   1  15
TORSDOF 2
ENDMDL
MODEL 5
REMARK VINA RESULT:      -6.5      5.769      7.285
REMARK  Name = 
REMARK  4 active torsions:
REMARK  status: ('A' for Active; 'I' for Inactive)
REMARK    1  A    between atoms: C_1  and  C_2
REMARK    2  A    between atoms: C_5  and  C_6
REMARK    3  A    between atoms: C_6  and  C_7
REMARK    4  A    between atoms: C_16  and  C_17
REMARK                            x       y       z     vdW  Elec       q    Type
REMARK                         _______ _______ _______ _____ _____    ______ ____
ROOT
ATOM      1  C   UNL     1       2.913   7.385  19.127  0.00  0.00    +0.000 C 
ENDROOT
BRANCH   1   2
ATOM      2  C   UNL     1       1.903   8.459  18.773  0.00  0.00    +0.000 C 
ATOM      3  O   UNL     1       1.876   8.894  17.624  0.00  0.00    +0.000 OA
ATOM      4  N   UNL     1       1.171   8.934  19.841  0.00  0.00    +0.000 N 
ATOM      5  C   UNL     1       0.318   9.995  19.690  0.00  0.00    +0.000 A 
ATOM      6  N   UNL     1      -0.059  10.592  18.590  0.00  0.00    +0.000 NA
ATOM      7  C   UNL     1      -0.844  11.681  18.898  0.00  0.00    +0.000 A 
ATOM      8  C   UNL     1      -1.057  11.894  20.242  0.00  0.00    +0.000 A 
ATOM      9  S   UNL     1      -0.295  10.645  21.147  0.00  0.00    +0.000 S 
ATOM     10  H   UNL     1       1.313   8.574  20.774  0.00  0.00    +0.000 HD
ENDBRANCH   1   2
BRANCH   1  15
ATOM     11  C   UNL     1       0.704   1.992  18.840  0.00  0.00    +0.000 C 
ATOM     12  C   UNL     1       1.327   3.359  18.949  0.00  0.00    +0.000 A 
ATOM     13  C   UNL     1       1.564   4.097  17.778  0.00  0.00    +0.000 A 
ATOM     14  C   UNL     1       2.104   5.381  17.839  0.00  0.00    +0.000 A 
ATOM     15  C   UNL     1       2.430   5.956  19.069  0.00  0.00    +0.000 A 
ATOM     16  C   UNL     1       2.200   5.223  20.243  0.00  0.00    +0.000 A 
ATOM     17  C   UNL     1       1.652   3.931  20.196  0.00  0.00    +0.000 A 
ATOM     18  C   UNL     1       1.402   3.186  21.481  0.00  0.00    +0.000 C 
ENDBRANCH   1  15
TORSDOF 2
ENDMDL
MODEL 6
REMARK VINA RESULT:      -6.5      6.025      7.791
REMARK  Name = 
REMARK  4 active torsions:
REMARK  status: ('A' for Active; 'I' for Inactive)
REMARK    1  A    between atoms: C_1  and  C_2
REMARK    2  A    between atoms: C_5  and  C_6
REMARK    3  A    between atoms: C_6  and  C_7
REMARK    4  A    between atoms: C_16  and  C_17
REMARK                            x       y       z     vdW  Elec       q    Type
REMARK                         _______ _______ _______ _____ _____    ______ ____
ROOT
ATOM      1  C   UNL     1       2.311   8.890  17.976  0.00  0.00    +0.000 C 
ENDROOT
BRANCH   1   2
ATOM      2  C   UNL     1       1.251   9.923  18.305  0.00  0.00    +0.000 C 
ATOM      3  O   UNL     1       1.491  10.769  19.164  0.00  0.00    +0.000 OA
ATOM      4  N   UNL     1       0.043   9.731  17.667  0.00  0.00    +0.000 N 
ATOM      5  C   UNL     1      -1.042  10.509  17.971  0.00  0.00    +0.000 A 
ATOM      6  N   UNL     1      -1.098  11.581  18.717  0.00  0.00    +0.000 NA
ATOM      7  C   UNL     1      -2.406  11.993  18.842  0.00  0.00    +0.000 A 
ATOM      8  C   UNL     1      -3.334  11.222  18.177  0.00  0.00    +0.000 A 
ATOM      9  S   UNL     1      -2.526   9.972  17.315  0.00  0.00    +0.000 S 
ATOM     10  H   UNL     1      -0.096   8.958  17.032  0.00  0.00    +0.000 HD
ENDBRANCH   1   2
BRANCH   1  15
ATOM     11  C   UNL     1       2.042   3.675  20.581  0.00  0.00    +0.000 C 
ATOM     12  C   UNL     1       2.062   5.002  19.867  0.00  0.00    +0.000 A 
ATOM     13  C   UNL     1       1.908   6.181  20.613  0.00  0.00    +0.000 A 
ATOM     14  C   UNL     1       1.957   7.430  19.994  0.00  0.00    +0.000 A 
ATOM     15  C   UNL     1       2.153   7.531  18.616  0.00  0.00    +0.000 A 
ATOM     16  C   UNL     1       2.303   6.357  17.863  0.00  0.00    +0.000 A 
ATOM     17  C   UNL     1       2.259   5.093  18.474  0.00  0.00    +0.000 A 
ATOM     18  C   UNL     1       2.446   3.858  17.633  0.00  0.00    +0.000 C 
ENDBRANCH   1  15
TORSDOF 2
ENDMDL
MODEL 7
REMARK VINA RESULT:      -6.5      1.760      2.891
REMARK  Name = 
REMARK  4 active torsions:
REMARK  status: ('A' for Active; 'I' for Inactive)
REMARK    1  A    between atoms: C_1  and  C_2
REMARK    2  A    between atoms: C_5  and  C_6
REMARK    3  A    between atoms: C_6  and  C_7
REMARK    4  A    between atoms: C_16  and  C_17
REMARK                            x       y       z     vdW  Elec       q    Type
REMARK                         _______ _______ _______ _____ _____    ______ ____
ROOT
ATOM      1  C   UNL     1       4.579   3.936  17.424  0.00  0.00    +0.000 C 
ENDROOT
BRANCH   1   2
ATOM      2  C   UNL     1       5.666   4.421  16.484  0.00  0.00    +0.000 C 
ATOM      3  O   UNL     1       6.399   5.339  16.845  0.00  0.00    +0.000 OA
ATOM      4  N   UNL     1       5.646   3.839  15.233  0.00  0.00    +0.000 N 
ATOM      5  C   UNL     1       6.485   4.276  14.243  0.00  0.00    +0.000 A 
ATOM      6  N   UNL     1       7.480   5.120  14.326  0.00  0.00    +0.000 NA
ATOM      7  C   UNL     1       7.993   5.359  13.071  0.00  0.00    +0.000 A 
ATOM      8  C   UNL     1       7.377   4.680  12.042  0.00  0.00    +0.000 A 
ATOM      9  S   UNL     1       6.149   3.660  12.684  0.00  0.00    +0.000 S 
ATOM     10  H   UNL     1       4.955   3.144  14.991  0.00  0.00    +0.000 HD
ENDBRANCH   1   2
BRANCH   1  15
ATOM     11  C   UNL     1       1.523   7.825  20.521  0.00  0.00    +0.000 C 
ATOM     12  C   UNL     1       2.360   6.868  19.711  0.00  0.00    +0.000 A 
ATOM     13  C   UNL     1       2.732   5.639  20.277  0.00  0.00    +0.000 A 
ATOM     14  C   UNL     1       3.474   4.711  19.547  0.00  0.00    +0.000 A 
ATOM     15  C   UNL     1       3.869   4.991  18.238  0.00  0.00    +0.000 A 
ATOM     16  C   UNL     1       3.505   6.220  17.667  0.00  0.00    +0.000 A 
ATOM     17  C   UNL     1       2.754   7.162  18.389  0.00  0.00    +0.000 A 
ATOM     18  C   UNL     1       2.365   8.460  17.732  0.00  0.00    +0.000 C 
ENDBRANCH   1  15
TORSDOF 2
ENDMDL
MODEL 8
REMARK VINA RESULT:      -6.5      4.975      7.009
REMARK  Name = 
REMARK  4 active torsions:
REMARK  status: ('A' for Active; 'I' for Inactive)
REMARK    1  A    between atoms: C_1  and  C_2
REMARK    2  A    between atoms: C_5  and  C_6
REMARK    3  A    between atoms: C_6  and  C_7
REMARK    4  A    between atoms: C_16  and  C_17
REMARK                            x       y       z     vdW  Elec       q    Type
REMARK                         _______ _______ _______ _____ _____    ______ ____
ROOT
ATOM      1  C   UNL     1       3.375   7.582  17.653  0.00  0.00    +0.000 C 
ENDROOT
BRANCH   1   2
ATOM      2  C   UNL     1       2.235   8.435  18.176  0.00  0.00    +0.000 C 
ATOM      3  O   UNL     1       1.702   9.243  17.419  0.00  0.00    +0.000 OA
ATOM      4  N   UNL     1       1.982   8.292  19.524  0.00  0.00    +0.000 N 
ATOM      5  C   UNL     1       1.071   9.095  20.155  0.00  0.00    +0.000 A 
ATOM      6  N   UNL     1       0.228   9.947  19.631  0.00  0.00    +0.000 NA
ATOM      7  C   UNL     1      -0.433  10.623  20.632  0.00  0.00    +0.000 A 
ATOM      8  C   UNL     1      -0.082  10.267  21.917  0.00  0.00    +0.000 A 
ATOM      9  S   UNL     1       1.074   8.995  21.861  0.00  0.00    +0.000 S 
ATOM     10  H   UNL     1       2.524   7.659  20.093  0.00  0.00    +0.000 HD
ENDBRANCH   1   2
BRANCH   1  15
ATOM     11  C   UNL     1       3.852   2.016  19.339  0.00  0.00    +0.000 C 
ATOM     12  C   UNL     1       3.677   3.460  18.947  0.00  0.00    +0.000 A 
ATOM     13  C   UNL     1       4.772   4.333  19.047  0.00  0.00    +0.000 A 
ATOM     14  C   UNL     1       4.661   5.668  18.659  0.00  0.00    +0.000 A 
ATOM     15  C   UNL     1       3.452   6.165  18.169  0.00  0.00    +0.000 A 
ATOM     16  C   UNL     1       2.352   5.300  18.070  0.00  0.00    +0.000 A 
ATOM     17  C   UNL     1       2.451   3.953  18.454  0.00  0.00    +0.000 A 
ATOM     18  C   UNL     1       1.253   3.052  18.311  0.00  0.00    +0.000 C 
ENDBRANCH   1  15
TORSDOF 2
ENDMDL
MODEL 9
REMARK VINA RESULT:      -6.4      5.119      7.379
REMARK  Name = 
REMARK  4 active torsions:
REMARK  status: ('A' for Active; 'I' for Inactive)
REMARK    1  A    between atoms: C_1  and  C_2
REMARK    2  A    between atoms: C_5  and  C_6
REMARK    3  A    between atoms: C_6  and  C_7
REMARK    4  A    between atoms: C_16  and  C_17
REMARK                            x       y       z     vdW  Elec       q    Type
REMARK                         _______ _______ _______ _____ _____    ______ ____
ROOT
ATOM      1  C   UNL     1       3.059   5.879  19.787  0.00  0.00    +0.000 C 
ENDROOT
BRANCH   1   2
ATOM      2  C   UNL     1       2.233   7.145  19.657  0.00  0.00    +0.000 C 
ATOM      3  O   UNL     1       2.206   7.729  18.576  0.00  0.00    +0.000 OA
ATOM      4  N   UNL     1       1.670   7.587  20.836  0.00  0.00    +0.000 N 
ATOM      5  C   UNL     1       1.010   8.786  20.891  0.00  0.00    +0.000 A 
ATOM      6  N   UNL     1       0.671   9.580  19.909  0.00  0.00    +0.000 NA
ATOM      7  C   UNL     1       0.114  10.734  20.415  0.00  0.00    +0.000 A 
ATOM      8  C   UNL     1       0.032  10.796  21.789  0.00  0.00    +0.000 A 
ATOM      9  S   UNL     1       0.621   9.328  22.465  0.00  0.00    +0.000 S 
ATOM     10  H   UNL     1       1.808   7.087  21.701  0.00  0.00    +0.000 HD
ENDBRANCH   1   2
BRANCH   1  15
ATOM     11  C   UNL     1       6.079   3.860  15.221  0.00  0.00    +0.000 C 
ATOM     12  C   UNL     1       5.303   4.444  16.373  0.00  0.00    +0.000 A 
ATOM     13  C   UNL     1       4.047   3.905  16.692  0.00  0.00    +0.000 A 
ATOM     14  C   UNL     1       3.313   4.393  17.774  0.00  0.00    +0.000 A 
ATOM     15  C   UNL     1       3.813   5.435  18.557  0.00  0.00    +0.000 A 
ATOM     16  C   UNL     1       5.065   5.981  18.241  0.00  0.00    +0.000 A 
ATOM     17  C   UNL     1       5.816   5.497  17.158  0.00  0.00    +0.000 A 
ATOM     18  C   UNL     1       7.167   6.097  16.866  0.00  0.00    +0.000 C 
ENDBRANCH   1  15
TORSDOF 2
ENDMDL
