MODEL 1
REMARK VINA RESULT:      -7.4      0.000      0.000
REMARK  Name = 
REMARK  4 active torsions:
REMARK  status: ('A' for Active; 'I' for Inactive)
REMARK    1  A    between atoms: C_2  and  C_19
REMARK    2  A    between atoms: N_3  and  C_4
REMARK    3  A    between atoms: CA_6  and  C_7
REMARK    4  A    between atoms: C_7  and  OXT_9
REMARK                            x       y       z     vdW  Elec       q    Type
REMARK                         _______ _______ _______ _____ _____    ______ ____
ROOT
ATOM      1  O   UNL     1      -0.969  12.472  18.050  0.00  0.00    +0.000 OA
ATOM      2  C   UNL     1      -0.190  12.017  18.891  0.00  0.00    +0.000 C 
ATOM      3  N   UNL     1       0.701  12.835  19.553  0.00  0.00    +0.000 N 
ATOM      4  H   UNL     1       1.492  12.381  20.002  0.00  0.00    +0.000 HD
ENDROOT
BRANCH   3   5
ATOM      5  C   UNL     1       0.764  14.282  19.314  0.00  0.00    +0.000 C 
ATOM      6  C   UNL     1      -0.160  15.004  20.314  0.00  0.00    +0.000 C 
ATOM      7  CA  UNL     1       0.107  16.497  20.355  0.00  0.00    +0.000 C 
ATOM      8  N   UNL     1       1.486  16.692  20.833  0.00  0.00    +0.000 N 
ATOM      9  C   UNL     1       2.466  16.023  20.065  0.00  0.00    +0.000 A 
ATOM     10  C   UNL     1       3.773  16.526  20.103  0.00  0.00    +0.000 A 
ATOM     11  C   UNL     1       4.783  15.930  19.366  0.00  0.00    +0.000 A 
ATOM     12 CL   UNL     1       6.368  16.601  19.380  0.00  0.00    +0.000 Cl
ATOM     13  C   UNL     1       4.518  14.804  18.600  0.00  0.00    +0.000 A 
ATOM     14  C   UNL     1       3.229  14.262  18.589  0.00  0.00    +0.000 A 
ATOM     15 CL   UNL     1       2.987  12.886  17.568  0.00  0.00    +0.000 Cl
ATOM     16  C   UNL     1       2.184  14.831  19.350  0.00  0.00    +0.000 A 
ATOM     17  H   UNL     1       1.705  17.692  20.879  0.00  0.00    +0.000 HD
BRANCH   7  18
ATOM     18  C   UNL     1      -0.129  17.306  19.056  0.00  0.00    +0.000 C 
ATOM     19  O   UNL     1       0.483  18.329  18.794  0.00  0.00    +0.000 OA
BRANCH  18  20
ATOM     20  OXT UNL     1      -1.118  16.862  18.256  0.00  0.00    +0.000 OA
ATOM     21  HXT UNL     1      -1.815  16.314  18.656  0.00  0.00    +0.000 HD
ENDBRANCH  18  20
ENDBRANCH   7  18
ENDBRANCH   3   5
BRANCH   2  22
ATOM     22  C   UNL     1      -0.241  10.550  19.309  0.00  0.00    +0.000 C 
ATOM     23  C   UNL     1      -0.399  10.327  20.814  0.00  0.00    +0.000 A 
ATOM     24  C   UNL     1      -1.244  10.958  21.711  0.00  0.00    +0.000 A 
ATOM     25  C   UNL     1      -1.081  10.677  23.071  0.00  0.00    +0.000 A 
ATOM     26  C   UNL     1      -0.099   9.774  23.509  0.00  0.00    +0.000 A 
ATOM     27  C   UNL     1       0.687   9.077  22.591  0.00  0.00    +0.000 A 
ATOM     28  C   UNL     1       0.506   9.336  21.244  0.00  0.00    +0.000 A 
ATOM     29  C   UNL     1       1.208   8.813  20.098  0.00  0.00    +0.000 A 
ATOM     30  C   UNL     1       1.957   7.656  19.970  0.00  0.00    +0.000 A 
ATOM     31  C   UNL     1       2.566   7.397  18.744  0.00  0.00    +0.000 A 
ATOM     32  C   UNL     1       2.454   8.316  17.687  0.00  0.00    +0.000 A 
ATOM     33  C   UNL     1       1.629   9.446  17.793  0.00  0.00    +0.000 A 
ATOM     34  C   UNL     1       0.955   9.650  18.986  0.00  0.00    +0.000 A 
ENDBRANCH   2  22
TORSDOF 4
ENDMDL
MODEL 2
REMARK VINA RESULT:      -7.3      4.866      9.280
REMARK  Name = 
REMARK  4 active torsions:
REMARK  status: ('A' for Active; 'I' for Inactive)
REMARK    1  A    between atoms: C_2  and  C_19
REMARK    2  A    between atoms: N_3  and  C_4
REMARK    3  A    between atoms: CA_6  and  C_7
REMARK    4  A    between atoms: C_7  and  OXT_9
REMARK                            x       y       z     vdW  Elec       q    Type
REMARK                         _______ _______ _______ _____ _____    ______ ____
ROOT
ATOM      1  O   UNL     1       2.099   7.557  21.428  0.00  0.00    +0.000 OA
ATOM      2  C   UNL     1       1.510   7.721  20.357  0.00  0.00    +0.000 C 
ATOM      3  N   UNL     1       1.566   6.771  19.359  0.00  0.00    +0.000 N 
ATOM      4  H   UNL     1       1.317   7.077  18.423  0.00  0.00    +0.000 HD
ENDROOT
BRANCH   3   5
ATOM      5  C   UNL     1       2.306   5.513  19.515  0.00  0.00    +0.000 C 
ATOM      6  C   UNL     1       1.324   4.390  19.902  0.00  0.00    +0.000 C 
ATOM      7  CA  UNL     1       1.949   3.015  19.749  0.00  0.00    +0.000 C 
ATOM      8  N   UNL     1       2.271   2.826  18.325  0.00  0.00    +0.000 N 
ATOM      9  C   UNL     1       3.108   3.826  17.782  0.00  0.00    +0.000 A 
ATOM     10  C   UNL     1       3.864   3.494  16.649  0.00  0.00    +0.000 A 
ATOM     11  C   UNL     1       4.717   4.420  16.070  0.00  0.00    +0.000 A 
ATOM     12 CL   UNL     1       5.681   3.971  14.717  0.00  0.00    +0.000 Cl
ATOM     13  C   UNL     1       4.812   5.703  16.589  0.00  0.00    +0.000 A 
ATOM     14  C   UNL     1       4.029   6.064  17.691  0.00  0.00    +0.000 A 
ATOM     15 CL   UNL     1       4.253   7.670  18.293  0.00  0.00    +0.000 Cl
ATOM     16  C   UNL     1       3.132   5.152  18.287  0.00  0.00    +0.000 A 
ATOM     17  H   UNL     1       2.693   1.904  18.178  0.00  0.00    +0.000 HD
BRANCH   7  18
ATOM     18  C   UNL     1       3.183   2.683  20.625  0.00  0.00    +0.000 C 
ATOM     19  O   UNL     1       4.276   2.416  20.153  0.00  0.00    +0.000 OA
BRANCH  18  20
ATOM     20  OXT UNL     1       2.963   2.622  21.953  0.00  0.00    +0.000 OA
ATOM     21  HXT UNL     1       3.625   3.023  22.542  0.00  0.00    +0.000 HD
ENDBRANCH  18  20
ENDBRANCH   7  18
ENDBRANCH   3   5
BRANCH   2  22
ATOM     22  C   UNL     1       0.614   8.934  20.123  0.00  0.00    +0.000 C 
ATOM     23  C   UNL     1       1.241  10.023  19.251  0.00  0.00    +0.000 A 
ATOM     24  C   UNL     1       1.952   9.902  18.069  0.00  0.00    +0.000 A 
ATOM     25  C   UNL     1       2.557  11.050  17.550  0.00  0.00    +0.000 A 
ATOM     26  C   UNL     1       2.436  12.288  18.201  0.00  0.00    +0.000 A 
ATOM     27  C   UNL     1       1.645  12.418  19.343  0.00  0.00    +0.000 A 
ATOM     28  C   UNL     1       1.023  11.286  19.840  0.00  0.00    +0.000 A 
ATOM     29  C   UNL     1       0.208  11.118  21.018  0.00  0.00    +0.000 A 
ATOM     30  C   UNL     1      -0.501  12.060  21.745  0.00  0.00    +0.000 A 
ATOM     31  C   UNL     1      -1.191  11.634  22.878  0.00  0.00    +0.000 A 
ATOM     32  C   UNL     1      -1.124  10.292  23.288  0.00  0.00    +0.000 A 
ATOM     33  C   UNL     1      -0.473   9.325  22.506  0.00  0.00    +0.000 A 
ATOM     34  C   UNL     1       0.135   9.741  21.333  0.00  0.00    +0.000 A 
ENDBRANCH   2  22
TORSDOF 4
ENDMDL
MODEL 3
REMARK VINA RESULT:      -7.2      2.713      5.602
REMARK  Name = 
REMARK  4 active torsions:
REMARK  status: ('A' for Active; 'I' for Inactive)
REMARK    1  A    between atoms: C_2  and  C_19
REMARK    2  A    between atoms: N_3  and  C_4
REMARK    3  A    between atoms: CA_6  and  C_7
REMARK    4  A    between atoms: C_7  and  OXT_9
REMARK                            x       y       z     vdW  Elec       q    Type
REMARK                         _______ _______ _______ _____ _____    ______ ____
ROOT
ATOM      1  O   UNL     1       1.276   7.946  17.536  0.00  0.00    +0.000 OA
ATOM      2  C   UNL     1       1.922   8.049  18.582  0.00  0.00    +0.000 C 
ATOM      3  N   UNL     1       1.674   9.073  19.473  0.00  0.00    +0.000 N 
ATOM      4  H   UNL     1       2.405   9.275  20.150  0.00  0.00    +0.000 HD
ENDROOT
BRANCH   3   5
ATOM      5  C   UNL     1       0.630  10.078  19.244  0.00  0.00    +0.000 C 
ATOM      6  C   UNL     1      -0.492   9.893  20.284  0.00  0.00    +0.000 C 
ATOM      7  CA  UNL     1      -1.426  11.088  20.327  0.00  0.00    +0.000 C 
ATOM      8  N   UNL     1      -0.639  12.257  20.753  0.00  0.00    +0.000 N 
ATOM      9  C   UNL     1       0.488  12.524  19.944  0.00  0.00    +0.000 A 
ATOM     10  C   UNL     1       0.985  13.834  19.937  0.00  0.00    +0.000 A 
ATOM     11  C   UNL     1       2.079  14.173  19.157  0.00  0.00    +0.000 A 
ATOM     12 CL   UNL     1       2.633  15.802  19.116  0.00  0.00    +0.000 Cl
ATOM     13  C   UNL     1       2.717  13.207  18.393  0.00  0.00    +0.000 A 
ATOM     14  C   UNL     1       2.263  11.885  18.427  0.00  0.00    +0.000 A 
ATOM     15 CL   UNL     1       3.096  10.764  17.404  0.00  0.00    +0.000 Cl
ATOM     16  C   UNL     1       1.168  11.503  19.230  0.00  0.00    +0.000 A 
ATOM     17  H   UNL     1      -1.237  13.087  20.799  0.00  0.00    +0.000 HD
BRANCH   7  18
ATOM     18  C   UNL     1      -2.227  11.422  19.044  0.00  0.00    +0.000 C 
ATOM     19  O   UNL     1      -2.408  10.613  18.149  0.00  0.00    +0.000 OA
BRANCH  18  20
ATOM     20  OXT UNL     1      -2.649  12.696  18.927  0.00  0.00    +0.000 OA
ATOM     21  HXT UNL     1      -3.608  12.861  18.945  0.00  0.00    +0.000 HD
ENDBRANCH  18  20
ENDBRANCH   7  18
ENDBRANCH   3   5
BRANCH   2  22
ATOM     22  C   UNL     1       2.952   6.999  18.986  0.00  0.00    +0.000 C 
ATOM     23  C   UNL     1       3.867   6.543  17.848  0.00  0.00    +0.000 A 
ATOM     24  C   UNL     1       4.521   7.299  16.889  0.00  0.00    +0.000 A 
ATOM     25  C   UNL     1       5.177   6.621  15.858  0.00  0.00    +0.000 A 
ATOM     26  C   UNL     1       5.182   5.218  15.805  0.00  0.00    +0.000 A 
ATOM     27  C   UNL     1       4.597   4.465  16.823  0.00  0.00    +0.000 A 
ATOM     28  C   UNL     1       3.972   5.138  17.859  0.00  0.00    +0.000 A 
ATOM     29  C   UNL     1       3.246   4.622  18.994  0.00  0.00    +0.000 A 
ATOM     30  C   UNL     1       3.299   3.371  19.584  0.00  0.00    +0.000 A 
ATOM     31  C   UNL     1       2.458   3.116  20.665  0.00  0.00    +0.000 A 
ATOM     32  C   UNL     1       1.553   4.097  21.106  0.00  0.00    +0.000 A 
ATOM     33  C   UNL     1       1.559   5.389  20.561  0.00  0.00    +0.000 A 
ATOM     34  C   UNL     1       2.460   5.661  19.545  0.00  0.00    +0.000 A 
ENDBRANCH   2  22
TORSDOF 4
ENDMDL
MODEL 4
REMARK VINA RESULT:      -7.0      0.920      1.182
REMARK  Name = 
REMARK  4 active torsions:
REMARK  status: ('A' for Active; 'I' for Inactive)
REMARK    1  A    between atoms: C_2  and  C_19
REMARK    2  A    between atoms: N_3  and  C_4
REMARK    3  A    between atoms: CA_6  and  C_7
REMARK    4  A    between atoms: C_7  and  OXT_9
REMARK                            x       y       z     vdW  Elec       q    Type
REMARK                         _______ _______ _______ _____ _____    ______ ____
ROOT
ATOM      1  O   UNL     1      -0.780  12.984  17.549  0.00  0.00    +0.000 OA
ATOM      2  C   UNL     1      -0.270  12.632  18.616  0.00  0.00    +0.000 C 
ATOM      3  N   UNL     1       0.565  13.475  19.319  0.00  0.00    +0.000 N 
ATOM      4  H   UNL     1       1.169  13.045  20.014  0.00  0.00    +0.000 HD
ENDROOT
BRANCH   3   5
ATOM      5  C   UNL     1       0.879  14.832  18.857  0.00  0.00    +0.000 C 
ATOM      6  C   UNL     1      -0.051  15.838  19.563  0.00  0.00    +0.000 C 
ATOM      7  CA  UNL     1       0.433  17.267  19.399  0.00  0.00    +0.000 C 
ATOM      8  N   UNL     1       1.748  17.372  20.053  0.00  0.00    +0.000 N 
ATOM      9  C   UNL     1       2.709  16.454  19.575  0.00  0.00    +0.000 A 
ATOM     10  C   UNL     1       4.061  16.787  19.739  0.00  0.00    +0.000 A 
ATOM     11  C   UNL     1       5.058  15.941  19.283  0.00  0.00    +0.000 A 
ATOM     12 CL   UNL     1       6.710  16.398  19.440  0.00  0.00    +0.000 Cl
ATOM     13  C   UNL     1       4.731  14.734  18.681  0.00  0.00    +0.000 A 
ATOM     14  C   UNL     1       3.387  14.367  18.553  0.00  0.00    +0.000 A 
ATOM     15 CL   UNL     1       3.079  12.866  17.748  0.00  0.00    +0.000 Cl
ATOM     16  C   UNL     1       2.349  15.194  19.030  0.00  0.00    +0.000 A 
ATOM     17  H   UNL     1       2.109  18.327  19.968  0.00  0.00    +0.000 HD
BRANCH   7  18
ATOM     18  C   UNL     1       0.502  17.843  17.963  0.00  0.00    +0.000 C 
ATOM     19  O   UNL     1       1.461  18.476  17.550  0.00  0.00    +0.000 OA
BRANCH  18  20
ATOM     20  OXT UNL     1      -0.602  17.679  17.208  0.00  0.00    +0.000 OA
ATOM     21  HXT UNL     1      -0.765  16.800  16.827  0.00  0.00    +0.000 HD
ENDBRANCH  18  20
ENDBRANCH   7  18
ENDBRANCH   3   5
BRANCH   2  22
ATOM     22  C   UNL     1      -0.614  11.290  19.255  0.00  0.00    +0.000 C 
ATOM     23  C   UNL     1      -1.151  11.390  20.683  0.00  0.00    +0.000 A 
ATOM     24  C   UNL     1      -2.091  12.260  21.210  0.00  0.00    +0.000 A 
ATOM     25  C   UNL     1      -2.292  12.246  22.593  0.00  0.00    +0.000 A 
ATOM     26  C   UNL     1      -1.571  11.368  23.419  0.00  0.00    +0.000 A 
ATOM     27  C   UNL     1      -0.692  10.434  22.870  0.00  0.00    +0.000 A 
ATOM     28  C   UNL     1      -0.515  10.430  21.497  0.00  0.00    +0.000 A 
ATOM     29  C   UNL     1       0.361   9.629  20.678  0.00  0.00    +0.000 A 
ATOM     30  C   UNL     1       0.956   8.408  20.951  0.00  0.00    +0.000 A 
ATOM     31  C   UNL     1       1.796   7.855  19.986  0.00  0.00    +0.000 A 
ATOM     32  C   UNL     1       2.061   8.549  18.793  0.00  0.00    +0.000 A 
ATOM     33  C   UNL     1       1.394   9.744  18.485  0.00  0.00    +0.000 A 
ATOM     34  C   UNL     1       0.492  10.243  19.411  0.00  0.00    +0.000 A 
ENDBRANCH   2  22
TORSDOF 4
ENDMDL
MODEL 5
REMARK VINA RESULT:      -6.8      4.212      7.148
REMARK  Name = 
REMARK  4 active torsions:
REMARK  status: ('A' for Active; 'I' for Inactive)
REMARK    1  A    between atoms: C_2  and  C_19
REMARK    2  A    between atoms: N_3  and  C_4
REMARK    3  A    between atoms: CA_6  and  C_7
REMARK    4  A    between atoms: C_7  and  OXT_9
REMARK                            x       y       z     vdW  Elec       q    Type
REMARK                         _______ _______ _______ _____ _____    ______ ____
ROOT
ATOM      1  O   UNL     1      -2.694  11.931  22.661  0.00  0.00    +0.000 OA
ATOM      2  C   UNL     1      -1.994  12.587  21.886  0.00  0.00    +0.000 C 
ATOM      3  N   UNL     1      -2.332  12.714  20.555  0.00  0.00    +0.000 N 
ATOM      4  H   UNL     1      -1.593  13.007  19.922  0.00  0.00    +0.000 HD
ENDROOT
BRANCH   3   5
ATOM      5  C   UNL     1      -3.539  12.100  19.990  0.00  0.00    +0.000 C 
ATOM      6  C   UNL     1      -4.709  13.101  20.081  0.00  0.00    +0.000 C 
ATOM      7  CA  UNL     1      -5.885  12.674  19.222  0.00  0.00    +0.000 C 
ATOM      8  N   UNL     1      -5.437  12.670  17.820  0.00  0.00    +0.000 N 
ATOM      9  C   UNL     1      -4.310  11.855  17.573  0.00  0.00    +0.000 A 
ATOM     10  C   UNL     1      -4.122  11.386  16.266  0.00  0.00    +0.000 A 
ATOM     11  C   UNL     1      -3.046  10.571  15.954  0.00  0.00    +0.000 A 
ATOM     12 CL   UNL     1      -2.870   9.956  14.356  0.00  0.00    +0.000 Cl
ATOM     13  C   UNL     1      -2.119  10.233  16.929  0.00  0.00    +0.000 A 
ATOM     14  C   UNL     1      -2.266  10.732  18.227  0.00  0.00    +0.000 A 
ATOM     15 CL   UNL     1      -1.086  10.216  19.383  0.00  0.00    +0.000 Cl
ATOM     16  C   UNL     1      -3.337  11.585  18.571  0.00  0.00    +0.000 A 
ATOM     17  H   UNL     1      -6.207  12.391  17.204  0.00  0.00    +0.000 HD
BRANCH   7  18
ATOM     18  C   UNL     1      -6.579  11.334  19.566  0.00  0.00    +0.000 C 
ATOM     19  O   UNL     1      -6.567  10.852  20.688  0.00  0.00    +0.000 OA
BRANCH  18  20
ATOM     20  OXT UNL     1      -7.135  10.674  18.531  0.00  0.00    +0.000 OA
ATOM     21  HXT UNL     1      -7.502   9.789  18.700  0.00  0.00    +0.000 HD
ENDBRANCH  18  20
ENDBRANCH   7  18
ENDBRANCH   3   5
BRANCH   2  22
ATOM     22  C   UNL     1      -0.779  13.366  22.380  0.00  0.00    +0.000 C 
ATOM     23  C   UNL     1      -1.093  14.780  22.872  0.00  0.00    +0.000 A 
ATOM     24  C   UNL     1      -2.123  15.218  23.687  0.00  0.00    +0.000 A 
ATOM     25  C   UNL     1      -2.278  16.596  23.860  0.00  0.00    +0.000 A 
ATOM     26  C   UNL     1      -1.408  17.505  23.237  0.00  0.00    +0.000 A 
ATOM     27  C   UNL     1      -0.320  17.051  22.491  0.00  0.00    +0.000 A 
ATOM     28  C   UNL     1      -0.151  15.685  22.343  0.00  0.00    +0.000 A 
ATOM     29  C   UNL     1       0.834  14.950  21.589  0.00  0.00    +0.000 A 
ATOM     30  C   UNL     1       2.084  15.346  21.144  0.00  0.00    +0.000 A 
ATOM     31  C   UNL     1       2.835  14.439  20.398  0.00  0.00    +0.000 A 
ATOM     32  C   UNL     1       2.307  13.177  20.074  0.00  0.00    +0.000 A 
ATOM     33  C   UNL     1       1.077  12.749  20.594  0.00  0.00    +0.000 A 
ATOM     34  C   UNL     1       0.376  13.624  21.409  0.00  0.00    +0.000 A 
ENDBRANCH   2  22
TORSDOF 4
ENDMDL
MODEL 6
REMARK VINA RESULT:      -6.8      1.826      2.953
REMARK  Name = 
REMARK  4 active torsions:
REMARK  status: ('A' for Active; 'I' for Inactive)
REMARK    1  A    between atoms: C_2  and  C_19
REMARK    2  A    between atoms: N_3  and  C_4
REMARK    3  A    between atoms: CA_6  and  C_7
REMARK    4  A    between atoms: C_7  and  OXT_9
REMARK                            x       y       z     vdW  Elec       q    Type
REMARK                         _______ _______ _______ _____ _____    ______ ____
ROOT
ATOM      1  O   UNL     1      -0.777  13.203  17.977  0.00  0.00    +0.000 OA
ATOM      2  C   UNL     1      -0.680  13.234  19.207  0.00  0.00    +0.000 C 
ATOM      3  N   UNL     1      -0.032  14.272  19.844  0.00  0.00    +0.000 N 
ATOM      4  H   UNL     1       0.265  14.106  20.801  0.00  0.00    +0.000 HD
ENDROOT
BRANCH   3   5
ATOM      5  C   UNL     1       0.558  15.397  19.109  0.00  0.00    +0.000 C 
ATOM      6  C   UNL     1      -0.305  16.656  19.327  0.00  0.00    +0.000 C 
ATOM      7  CA  UNL     1       0.416  17.918  18.888  0.00  0.00    +0.000 C 
ATOM      8  N   UNL     1       1.610  18.069  19.734  0.00  0.00    +0.000 N 
ATOM      9  C   UNL     1       2.481  16.957  19.714  0.00  0.00    +0.000 A 
ATOM     10  C   UNL     1       3.824  17.179  20.045  0.00  0.00    +0.000 A 
ATOM     11  C   UNL     1       4.738  16.138  20.033  0.00  0.00    +0.000 A 
ATOM     12 CL   UNL     1       6.395  16.445  20.383  0.00  0.00    +0.000 Cl
ATOM     13  C   UNL     1       4.327  14.850  19.721  0.00  0.00    +0.000 A 
ATOM     14  C   UNL     1       2.980  14.604  19.435  0.00  0.00    +0.000 A 
ATOM     15 CL   UNL     1       2.574  12.976  19.012  0.00  0.00    +0.000 Cl
ATOM     16  C   UNL     1       2.020  15.638  19.464  0.00  0.00    +0.000 A 
ATOM     17  H   UNL     1       2.124  18.916  19.471  0.00  0.00    +0.000 HD
BRANCH   7  18
ATOM     18  C   UNL     1       0.800  18.044  17.392  0.00  0.00    +0.000 C 
ATOM     19  O   UNL     1       1.957  18.057  17.006  0.00  0.00    +0.000 OA
BRANCH  18  20
ATOM     20  OXT UNL     1      -0.223  18.224  16.534  0.00  0.00    +0.000 OA
ATOM     21  HXT UNL     1      -1.067  17.784  16.734  0.00  0.00    +0.000 HD
ENDBRANCH  18  20
ENDBRANCH   7  18
ENDBRANCH   3   5
BRANCH   2  22
ATOM     22  C   UNL     1      -1.354  12.183  20.083  0.00  0.00    +0.000 C 
ATOM     23  C   UNL     1      -2.404  12.741  21.044  0.00  0.00    +0.000 A 
ATOM     24  C   UNL     1      -3.404  13.670  20.811  0.00  0.00    +0.000 A 
ATOM     25  C   UNL     1      -4.138  14.130  21.907  0.00  0.00    +0.000 A 
ATOM     26  C   UNL     1      -3.876  13.655  23.203  0.00  0.00    +0.000 A 
ATOM     27  C   UNL     1      -2.927  12.655  23.415  0.00  0.00    +0.000 A 
ATOM     28  C   UNL     1      -2.221  12.180  22.324  0.00  0.00    +0.000 A 
ATOM     29  C   UNL     1      -1.158  11.207  22.261  0.00  0.00    +0.000 A 
ATOM     30  C   UNL     1      -0.818  10.208  23.158  0.00  0.00    +0.000 A 
ATOM     31  C   UNL     1       0.289   9.413  22.870  0.00  0.00    +0.000 A 
ATOM     32  C   UNL     1       1.060   9.659  21.720  0.00  0.00    +0.000 A 
ATOM     33  C   UNL     1       0.666  10.616  20.773  0.00  0.00    +0.000 A 
ATOM     34  C   UNL     1      -0.487  11.342  21.023  0.00  0.00    +0.000 A 
ENDBRANCH   2  22
TORSDOF 4
ENDMDL
MODEL 7
REMARK VINA RESULT:      -6.7      3.948      6.943
REMARK  Name = 
REMARK  4 active torsions:
REMARK  status: ('A' for Active; 'I' for Inactive)
REMARK    1  A    between atoms: C_2  and  C_19
REMARK    2  A    between atoms: N_3  and  C_4
REMARK    3  A    between atoms: CA_6  and  C_7
REMARK    4  A    between atoms: C_7  and  OXT_9
REMARK                            x       y       z     vdW  Elec       q    Type
REMARK                         _______ _______ _______ _____ _____    ______ ____
ROOT
ATOM      1  O   UNL     1      -1.495  11.192  21.746  0.00  0.00    +0.000 OA
ATOM      2  C   UNL     1      -1.094  12.118  21.036  0.00  0.00    +0.000 C 
ATOM      3  N   UNL     1      -1.839  12.569  19.967  0.00  0.00    +0.000 N 
ATOM      4  H   UNL     1      -1.346  13.114  19.265  0.00  0.00    +0.000 HD
ENDROOT
BRANCH   3   5
ATOM      5  C   UNL     1      -3.146  11.996  19.623  0.00  0.00    +0.000 C 
ATOM      6  C   UNL     1      -4.250  13.025  19.936  0.00  0.00    +0.000 C 
ATOM      7  CA  UNL     1      -5.574  12.643  19.300  0.00  0.00    +0.000 C 
ATOM      8  N   UNL     1      -5.388  12.650  17.840  0.00  0.00    +0.000 N 
ATOM      9  C   UNL     1      -4.347  11.811  17.384  0.00  0.00    +0.000 A 
ATOM     10  C   UNL     1      -4.413  11.358  16.059  0.00  0.00    +0.000 A 
ATOM     11  C   UNL     1      -3.435  10.522  15.547  0.00  0.00    +0.000 A 
ATOM     12 CL   UNL     1      -3.568   9.929  13.937  0.00  0.00    +0.000 Cl
ATOM     13  C   UNL     1      -2.357  10.143  16.334  0.00  0.00    +0.000 A 
ATOM     14  C   UNL     1      -2.252  10.625  17.643  0.00  0.00    +0.000 A 
ATOM     15 CL   UNL     1      -0.897  10.060  18.559  0.00  0.00    +0.000 Cl
ATOM     16  C   UNL     1      -3.218  11.499  18.185  0.00  0.00    +0.000 A 
ATOM     17  H   UNL     1      -6.264  12.401  17.371  0.00  0.00    +0.000 HD
BRANCH   7  18
ATOM     18  C   UNL     1      -6.232  11.315  19.749  0.00  0.00    +0.000 C 
ATOM     19  O   UNL     1      -6.570  10.446  18.963  0.00  0.00    +0.000 OA
BRANCH  18  20
ATOM     20  OXT UNL     1      -6.493  11.202  21.066  0.00  0.00    +0.000 OA
ATOM     21  HXT UNL     1      -6.777  12.001  21.543  0.00  0.00    +0.000 HD
ENDBRANCH  18  20
ENDBRANCH   7  18
ENDBRANCH   3   5
BRANCH   2  22
ATOM     22  C   UNL     1       0.193  12.869  21.364  0.00  0.00    +0.000 C 
ATOM     23  C   UNL     1      -0.013  14.151  22.171  0.00  0.00    +0.000 A 
ATOM     24  C   UNL     1      -0.819  14.375  23.275  0.00  0.00    +0.000 A 
ATOM     25  C   UNL     1      -0.947  15.688  23.735  0.00  0.00    +0.000 A 
ATOM     26  C   UNL     1      -0.270  16.744  23.104  0.00  0.00    +0.000 A 
ATOM     27  C   UNL     1       0.608  16.497  22.049  0.00  0.00    +0.000 A 
ATOM     28  C   UNL     1       0.756  15.192  21.612  0.00  0.00    +0.000 A 
ATOM     29  C   UNL     1       1.538  14.663  20.522  0.00  0.00    +0.000 A 
ATOM     30  C   UNL     1       2.634  15.207  19.874  0.00  0.00    +0.000 A 
ATOM     31  C   UNL     1       3.193  14.495  18.814  0.00  0.00    +0.000 A 
ATOM     32  C   UNL     1       2.621  13.281  18.395  0.00  0.00    +0.000 A 
ATOM     33  C   UNL     1       1.563  12.694  19.104  0.00  0.00    +0.000 A 
ATOM     34  C   UNL     1       1.070  13.365  20.211  0.00  0.00    +0.000 A 
ENDBRANCH   2  22
TORSDOF 4
ENDMDL
MODEL 8
REMARK VINA RESULT:      -6.6      4.661      8.217
REMARK  Name = 
REMARK  4 active torsions:
REMARK  status: ('A' for Active; 'I' for Inactive)
REMARK    1  A    between atoms: C_2  and  C_19
REMARK    2  A    between atoms: N_3  and  C_4
REMARK    3  A    between atoms: CA_6  and  C_7
REMARK    4  A    between atoms: C_7  and  OXT_9
REMARK                            x       y       z     vdW  Elec       q    Type
REMARK                         _______ _______ _______ _____ _____    ______ ____
ROOT
ATOM      1  O   UNL     1      -3.387  12.611  22.387  0.00  0.00    +0.000 OA
ATOM      2  C   UNL     1      -3.256  13.564  21.616  0.00  0.00    +0.000 C 
ATOM      3  N   UNL     1      -3.826  13.548  20.360  0.00  0.00    +0.000 N 
ATOM      4  H   UNL     1      -3.454  14.206  19.681  0.00  0.00    +0.000 HD
ENDROOT
BRANCH   3   5
ATOM      5  C   UNL     1      -4.629  12.418  19.877  0.00  0.00    +0.000 C 
ATOM      6  C   UNL     1      -6.112  12.834  19.823  0.00  0.00    +0.000 C 
ATOM      7  CA  UNL     1      -6.946  11.850  19.024  0.00  0.00    +0.000 C 
ATOM      8  N   UNL     1      -6.449  11.864  17.638  0.00  0.00    +0.000 N 
ATOM      9  C   UNL     1      -5.071  11.578  17.513  0.00  0.00    +0.000 A 
ATOM     10  C   UNL     1      -4.623  11.076  16.284  0.00  0.00    +0.000 A 
ATOM     11  C   UNL     1      -3.287  10.760  16.092  0.00  0.00    +0.000 A 
ATOM     12 CL   UNL     1      -2.769  10.087  14.595  0.00  0.00    +0.000 Cl
ATOM     13  C   UNL     1      -2.368  10.966  17.111  0.00  0.00    +0.000 A 
ATOM     14  C   UNL     1      -2.792  11.512  18.327  0.00  0.00    +0.000 A 
ATOM     15 CL   UNL     1      -1.580  11.687  19.550  0.00  0.00    +0.000 Cl
ATOM     16  C   UNL     1      -4.140  11.867  18.544  0.00  0.00    +0.000 A 
ATOM     17  H   UNL     1      -6.991  11.213  17.062  0.00  0.00    +0.000 HD
BRANCH   7  18
ATOM     18  C   UNL     1      -7.037  10.394  19.545  0.00  0.00    +0.000 C 
ATOM     19  O   UNL     1      -7.029   9.425  18.803  0.00  0.00    +0.000 OA
BRANCH  18  20
ATOM     20  OXT UNL     1      -7.213  10.254  20.873  0.00  0.00    +0.000 OA
ATOM     21  HXT UNL     1      -7.310   9.353  21.226  0.00  0.00    +0.000 HD
ENDBRANCH  18  20
ENDBRANCH   7  18
ENDBRANCH   3   5
BRANCH   2  22
ATOM     22  C   UNL     1      -2.543  14.842  22.048  0.00  0.00    +0.000 C 
ATOM     23  C   UNL     1      -1.212  15.094  21.337  0.00  0.00    +0.000 A 
ATOM     24  C   UNL     1      -0.898  14.975  19.993  0.00  0.00    +0.000 A 
ATOM     25  C   UNL     1       0.442  15.113  19.621  0.00  0.00    +0.000 A 
ATOM     26  C   UNL     1       1.435  15.376  20.579  0.00  0.00    +0.000 A 
ATOM     27  C   UNL     1       1.096  15.582  21.917  0.00  0.00    +0.000 A 
ATOM     28  C   UNL     1      -0.235  15.472  22.279  0.00  0.00    +0.000 A 
ATOM     29  C   UNL     1      -0.852  15.575  23.579  0.00  0.00    +0.000 A 
ATOM     30  C   UNL     1      -0.390  16.184  24.733  0.00  0.00    +0.000 A 
ATOM     31  C   UNL     1      -1.179  16.110  25.879  0.00  0.00    +0.000 A 
ATOM     32  C   UNL     1      -2.389  15.393  25.863  0.00  0.00    +0.000 A 
ATOM     33  C   UNL     1      -2.893  14.848  24.673  0.00  0.00    +0.000 A 
ATOM     34  C   UNL     1      -2.145  15.003  23.518  0.00  0.00    +0.000 A 
ENDBRANCH   2  22
TORSDOF 4
ENDMDL
MODEL 9
REMARK VINA RESULT:      -6.6      3.852      6.633
REMARK  Name = 
REMARK  4 active torsions:
REMARK  status: ('A' for Active; 'I' for Inactive)
REMARK    1  A    between atoms: C_2  and  C_19
REMARK    2  A    between atoms: N_3  and  C_4
REMARK    3  A    between atoms: CA_6  and  C_7
REMARK    4  A    between atoms: C_7  and  OXT_9
REMARK                            x       y       z     vdW  Elec       q    Type
REMARK                         _______ _______ _______ _____ _____    ______ ____
ROOT
ATOM      1  O   UNL     1       1.921   6.281  20.341  0.00  0.00    +0.000 OA
ATOM      2  C   UNL     1       1.849   6.751  19.202  0.00  0.00    +0.000 C 
ATOM      3  N   UNL     1       1.243   7.968  18.971  0.00  0.00    +0.000 N 
ATOM      4  H   UNL     1       0.960   8.163  18.015  0.00  0.00    +0.000 HD
ENDROOT
BRANCH   3   5
ATOM      5  C   UNL     1       0.670   8.777  20.053  0.00  0.00    +0.000 C 
ATOM      6  C   UNL     1       1.537   8.623  21.318  0.00  0.00    +0.000 C 
ATOM      7  CA  UNL     1       1.210   9.678  22.359  0.00  0.00    +0.000 C 
ATOM      8  N   UNL     1       1.531  10.993  21.781  0.00  0.00    +0.000 N 
ATOM      9  C   UNL     1       0.874  11.266  20.561  0.00  0.00    +0.000 A 
ATOM     10  C   UNL     1       0.702  12.610  20.204  0.00  0.00    +0.000 A 
ATOM     11  C   UNL     1       0.055  12.954  19.028  0.00  0.00    +0.000 A 
ATOM     12 CL   UNL     1      -0.200  14.611  18.640  0.00  0.00    +0.000 Cl
ATOM     13  C   UNL     1      -0.408  11.966  18.171  0.00  0.00    +0.000 A 
ATOM     14  C   UNL     1      -0.201  10.620  18.489  0.00  0.00    +0.000 A 
ATOM     15 CL   UNL     1      -0.854   9.463  17.381  0.00  0.00    +0.000 Cl
ATOM     16  C   UNL     1       0.477  10.238  19.667  0.00  0.00    +0.000 A 
ATOM     17  H   UNL     1       1.328  11.735  22.458  0.00  0.00    +0.000 HD
BRANCH   7  18
ATOM     18  C   UNL     1      -0.223   9.687  22.949  0.00  0.00    +0.000 C 
ATOM     19  O   UNL     1      -0.735  10.688  23.424  0.00  0.00    +0.000 OA
BRANCH  18  20
ATOM     20  OXT UNL     1      -0.853   8.497  22.986  0.00  0.00    +0.000 OA
ATOM     21  HXT UNL     1      -0.607   7.875  23.692  0.00  0.00    +0.000 HD
ENDBRANCH  18  20
ENDBRANCH   7  18
ENDBRANCH   3   5
BRANCH   2  22
ATOM     22  C   UNL     1       2.510   6.058  18.015  0.00  0.00    +0.000 C 
ATOM     23  C   UNL     1       2.353   4.537  18.003  0.00  0.00    +0.000 A 
ATOM     24  C   UNL     1       1.228   3.768  18.252  0.00  0.00    +0.000 A 
ATOM     25  C   UNL     1       1.388   2.382  18.332  0.00  0.00    +0.000 A 
ATOM     26  C   UNL     1       2.648   1.789  18.152  0.00  0.00    +0.000 A 
ATOM     27  C   UNL     1       3.758   2.564  17.814  0.00  0.00    +0.000 A 
ATOM     28  C   UNL     1       3.592   3.934  17.708  0.00  0.00    +0.000 A 
ATOM     29  C   UNL     1       4.562   4.966  17.434  0.00  0.00    +0.000 A 
ATOM     30  C   UNL     1       5.802   4.876  16.824  0.00  0.00    +0.000 A 
ATOM     31  C   UNL     1       6.565   6.036  16.710  0.00  0.00    +0.000 A 
ATOM     32  C   UNL     1       6.098   7.249  17.245  0.00  0.00    +0.000 A 
ATOM     33  C   UNL     1       4.809   7.354  17.789  0.00  0.00    +0.000 A 
ATOM     34  C   UNL     1       4.021   6.216  17.818  0.00  0.00    +0.000 A 
ENDBRANCH   2  22
TORSDOF 4
ENDMDL
