MODEL 1
REMARK VINA RESULT:      -7.5      0.000      0.000
REMARK  Name = 
REMARK  10 active torsions:
REMARK  status: ('A' for Active; 'I' for Inactive)
REMARK    1  A    between atoms: C_1  and  O_2
REMARK    2  A    between atoms: O_2  and  C_3
REMARK    3  A    between atoms: C_6  and  N_7
REMARK    4  A    between atoms: C_13  and  C_14
REMARK    5  A    between atoms: C_16  and  O_17
REMARK    6  A    between atoms: O_17  and  C_18
REMARK    7  A    between atoms: C_19  and  O_20
REMARK    8  A    between atoms: O_20  and  C_21
REMARK    9  A    between atoms: C_22  and  O_23
REMARK   10  A    between atoms: O_23  and  C_24
REMARK                            x       y       z     vdW  Elec       q    Type
REMARK                         _______ _______ _______ _____ _____    ______ ____
ROOT
ATOM      1  N   UNL     1       3.457   3.488  18.828  0.00  0.00    +0.000 N 
ATOM      2  C   UNL     1       2.532   2.469  18.590  0.00  0.00    +0.000 C 
ATOM      3  O   UNL     1       2.451   1.716  17.630  0.00  0.00    +0.000 OA
ATOM      4  N   UNL     1       1.696   2.393  19.659  0.00  0.00    +0.000 N 
ATOM      5  C   UNL     1       2.009   3.315  20.602  0.00  0.00    +0.000 C 
ATOM      6  O   UNL     1       1.441   3.436  21.677  0.00  0.00    +0.000 OA
ATOM      7  C   UNL     1       3.144   4.187  20.069  0.00  0.00    +0.000 C 
ATOM      8  H   UNL     1       0.969   1.702  19.753  0.00  0.00    +0.000 HD
ENDROOT
BRANCH   1  12
ATOM      9  C   UNL     1       6.683   4.633  16.303  0.00  0.00    +0.000 A 
ATOM     10  C   UNL     1       5.432   4.327  15.765  0.00  0.00    +0.000 A 
ATOM     11  C   UNL     1       4.369   3.935  16.592  0.00  0.00    +0.000 A 
ATOM     12  C   UNL     1       4.526   3.871  17.980  0.00  0.00    +0.000 A 
ATOM     13  C   UNL     1       5.773   4.210  18.516  0.00  0.00    +0.000 A 
ATOM     14  C   UNL     1       6.837   4.570  17.685  0.00  0.00    +0.000 A 
ATOM     15  F   UNL     1       8.009   4.839  18.278  0.00  0.00    +0.000 F 
BRANCH   9  17
ATOM     16  C   UNL     1       7.248   4.886  14.010  0.00  0.00    +0.000 C 
ATOM     17  O   UNL     1       7.632   4.969  15.378  0.00  0.00    +0.000 OA
ENDBRANCH   9  17
ENDBRANCH   1  12
BRANCH   7  18
ATOM     18  C   UNL     1       2.684   5.613  19.819  0.00  0.00    +0.000 A 
ATOM     19  C   UNL     1       3.108   6.294  18.679  0.00  0.00    +0.000 A 
ATOM     20  C   UNL     1       2.665   7.597  18.420  0.00  0.00    +0.000 A 
ATOM     21  C   UNL     1       1.815   8.260  19.336  0.00  0.00    +0.000 A 
ATOM     22  C   UNL     1       1.399   7.588  20.501  0.00  0.00    +0.000 A 
ATOM     23  C   UNL     1       1.822   6.268  20.712  0.00  0.00    +0.000 A 
BRANCH  20  24
ATOM     24  O   UNL     1       3.047   8.292  17.290  0.00  0.00    +0.000 OA
ATOM     25  C   UNL     1       4.145   7.748  16.565  0.00  0.00    +0.000 C 
ENDBRANCH  20  24
BRANCH  21  26
ATOM     26  O   UNL     1       1.516   9.567  19.018  0.00  0.00    +0.000 OA
ATOM     27  C   UNL     1       0.275   9.818  18.370  0.00  0.00    +0.000 C 
ENDBRANCH  21  26
BRANCH  22  28
ATOM     28  O   UNL     1       0.615   8.257  21.405  0.00  0.00    +0.000 OA
ATOM     29  C   UNL     1       1.245   9.118  22.346  0.00  0.00    +0.000 C 
ENDBRANCH  22  28
ENDBRANCH   7  18
TORSDOF 6
ENDMDL
MODEL 2
REMARK VINA RESULT:      -7.4      1.777      3.060
REMARK  Name = 
REMARK  10 active torsions:
REMARK  status: ('A' for Active; 'I' for Inactive)
REMARK    1  A    between atoms: C_1  and  O_2
REMARK    2  A    between atoms: O_2  and  C_3
REMARK    3  A    between atoms: C_6  and  N_7
REMARK    4  A    between atoms: C_13  and  C_14
REMARK    5  A    between atoms: C_16  and  O_17
REMARK    6  A    between atoms: O_17  and  C_18
REMARK    7  A    between atoms: C_19  and  O_20
REMARK    8  A    between atoms: O_20  and  C_21
REMARK    9  A    between atoms: C_22  and  O_23
REMARK   10  A    between atoms: O_23  and  C_24
REMARK                            x       y       z     vdW  Elec       q    Type
REMARK                         _______ _______ _______ _____ _____    ______ ____
ROOT
ATOM      1  N   UNL     1       3.470   4.924  18.679  0.00  0.00    +0.000 N 
ATOM      2  C   UNL     1       2.835   3.927  17.935  0.00  0.00    +0.000 C 
ATOM      3  O   UNL     1       3.147   3.468  16.846  0.00  0.00    +0.000 OA
ATOM      4  N   UNL     1       1.770   3.476  18.648  0.00  0.00    +0.000 N 
ATOM      5  C   UNL     1       1.652   4.125  19.832  0.00  0.00    +0.000 C 
ATOM      6  O   UNL     1       0.805   3.886  20.680  0.00  0.00    +0.000 OA
ATOM      7  C   UNL     1       2.719   5.216  19.894  0.00  0.00    +0.000 C 
ATOM      8  H   UNL     1       1.176   2.719  18.349  0.00  0.00    +0.000 HD
ENDROOT
BRANCH   1  12
ATOM      9  C   UNL     1       7.007   7.025  17.597  0.00  0.00    +0.000 A 
ATOM     10  C   UNL     1       5.814   7.235  16.904  0.00  0.00    +0.000 A 
ATOM     11  C   UNL     1       4.649   6.534  17.248  0.00  0.00    +0.000 A 
ATOM     12  C   UNL     1       4.643   5.630  18.314  0.00  0.00    +0.000 A 
ATOM     13  C   UNL     1       5.834   5.448  19.026  0.00  0.00    +0.000 A 
ATOM     14  C   UNL     1       6.999   6.125  18.660  0.00  0.00    +0.000 A 
ATOM     15  F   UNL     1       8.107   5.860  19.369  0.00  0.00    +0.000 F 
BRANCH   9  17
ATOM     16  C   UNL     1       8.288   9.020  17.743  0.00  0.00    +0.000 C 
ATOM     17  O   UNL     1       8.068   7.752  17.135  0.00  0.00    +0.000 OA
ENDBRANCH   9  17
ENDBRANCH   1  12
BRANCH   7  18
ATOM     18  C   UNL     1       2.101   6.604  19.862  0.00  0.00    +0.000 A 
ATOM     19  C   UNL     1       1.328   7.049  20.934  0.00  0.00    +0.000 A 
ATOM     20  C   UNL     1       0.780   8.337  20.931  0.00  0.00    +0.000 A 
ATOM     21  C   UNL     1       0.965   9.192  19.820  0.00  0.00    +0.000 A 
ATOM     22  C   UNL     1       1.725   8.744  18.723  0.00  0.00    +0.000 A 
ATOM     23  C   UNL     1       2.299   7.465  18.773  0.00  0.00    +0.000 A 
BRANCH  20  24
ATOM     24  O   UNL     1       0.030   8.819  21.985  0.00  0.00    +0.000 OA
ATOM     25  C   UNL     1       0.762   9.399  23.059  0.00  0.00    +0.000 C 
ENDBRANCH  20  24
BRANCH  21  26
ATOM     26  O   UNL     1       0.307  10.401  19.894  0.00  0.00    +0.000 OA
ATOM     27  C   UNL     1      -0.952  10.505  19.241  0.00  0.00    +0.000 C 
ENDBRANCH  21  26
BRANCH  22  28
ATOM     28  O   UNL     1       1.856   9.562  17.632  0.00  0.00    +0.000 OA
ATOM     29  C   UNL     1       2.478  10.830  17.803  0.00  0.00    +0.000 C 
ENDBRANCH  22  28
ENDBRANCH   7  18
TORSDOF 6
ENDMDL
MODEL 3
REMARK VINA RESULT:      -7.3      5.090      8.277
REMARK  Name = 
REMARK  10 active torsions:
REMARK  status: ('A' for Active; 'I' for Inactive)
REMARK    1  A    between atoms: C_1  and  O_2
REMARK    2  A    between atoms: O_2  and  C_3
REMARK    3  A    between atoms: C_6  and  N_7
REMARK    4  A    between atoms: C_13  and  C_14
REMARK    5  A    between atoms: C_16  and  O_17
REMARK    6  A    between atoms: O_17  and  C_18
REMARK    7  A    between atoms: C_19  and  O_20
REMARK    8  A    between atoms: O_20  and  C_21
REMARK    9  A    between atoms: C_22  and  O_23
REMARK   10  A    between atoms: O_23  and  C_24
REMARK                            x       y       z     vdW  Elec       q    Type
REMARK                         _______ _______ _______ _____ _____    ______ ____
ROOT
ATOM      1  N   UNL     1       0.898  12.258  19.385  0.00  0.00    +0.000 N 
ATOM      2  C   UNL     1       1.266  13.103  20.434  0.00  0.00    +0.000 C 
ATOM      3  O   UNL     1       1.937  12.850  21.424  0.00  0.00    +0.000 OA
ATOM      4  N   UNL     1       0.777  14.345  20.172  0.00  0.00    +0.000 N 
ATOM      5  C   UNL     1       0.093  14.373  19.004  0.00  0.00    +0.000 C 
ATOM      6  O   UNL     1      -0.415  15.372  18.515  0.00  0.00    +0.000 OA
ATOM      7  C   UNL     1       0.032  12.955  18.442  0.00  0.00    +0.000 C 
ATOM      8  H   UNL     1       0.949  15.148  20.755  0.00  0.00    +0.000 HD
ENDROOT
BRANCH   1  12
ATOM      9  C   UNL     1       1.902   8.142  18.994  0.00  0.00    +0.000 A 
ATOM     10  C   UNL     1       2.202   9.048  17.976  0.00  0.00    +0.000 A 
ATOM     11  C   UNL     1       1.861  10.403  18.094  0.00  0.00    +0.000 A 
ATOM     12  C   UNL     1       1.238  10.889  19.248  0.00  0.00    +0.000 A 
ATOM     13  C   UNL     1       0.969   9.982  20.279  0.00  0.00    +0.000 A 
ATOM     14  C   UNL     1       1.283   8.628  20.143  0.00  0.00    +0.000 A 
ATOM     15  F   UNL     1       0.952   7.820  21.161  0.00  0.00    +0.000 F 
BRANCH   9  17
ATOM     16  C   UNL     1       3.440   6.664  17.951  0.00  0.00    +0.000 C 
ATOM     17  O   UNL     1       2.264   6.851  18.730  0.00  0.00    +0.000 OA
ENDBRANCH   9  17
ENDBRANCH   1  12
BRANCH   7  18
ATOM     18  C   UNL     1      -1.385  12.407  18.458  0.00  0.00    +0.000 A 
ATOM     19  C   UNL     1      -1.828  11.585  17.423  0.00  0.00    +0.000 A 
ATOM     20  C   UNL     1      -3.121  11.047  17.442  0.00  0.00    +0.000 A 
ATOM     21  C   UNL     1      -4.014  11.367  18.491  0.00  0.00    +0.000 A 
ATOM     22  C   UNL     1      -3.584  12.216  19.529  0.00  0.00    +0.000 A 
ATOM     23  C   UNL     1      -2.269  12.703  19.507  0.00  0.00    +0.000 A 
BRANCH  20  24
ATOM     24  O   UNL     1      -3.584  10.211  16.446  0.00  0.00    +0.000 OA
ATOM     25  C   UNL     1      -3.309  10.620  15.111  0.00  0.00    +0.000 C 
ENDBRANCH  20  24
BRANCH  21  26
ATOM     26  O   UNL     1      -5.285  10.850  18.358  0.00  0.00    +0.000 OA
ATOM     27  C   UNL     1      -6.296  11.715  17.856  0.00  0.00    +0.000 C 
ENDBRANCH  21  26
BRANCH  22  28
ATOM     28  O   UNL     1      -4.473  12.558  20.514  0.00  0.00    +0.000 OA
ATOM     29  C   UNL     1      -3.988  12.723  21.841  0.00  0.00    +0.000 C 
ENDBRANCH  22  28
ENDBRANCH   7  18
TORSDOF 6
ENDMDL
MODEL 4
REMARK VINA RESULT:      -7.3      5.127      8.638
REMARK  Name = 
REMARK  10 active torsions:
REMARK  status: ('A' for Active; 'I' for Inactive)
REMARK    1  A    between atoms: C_1  and  O_2
REMARK    2  A    between atoms: O_2  and  C_3
REMARK    3  A    between atoms: C_6  and  N_7
REMARK    4  A    between atoms: C_13  and  C_14
REMARK    5  A    between atoms: C_16  and  O_17
REMARK    6  A    between atoms: O_17  and  C_18
REMARK    7  A    between atoms: C_19  and  O_20
REMARK    8  A    between atoms: O_20  and  C_21
REMARK    9  A    between atoms: C_22  and  O_23
REMARK   10  A    between atoms: O_23  and  C_24
REMARK                            x       y       z     vdW  Elec       q    Type
REMARK                         _______ _______ _______ _____ _____    ______ ____
ROOT
ATOM      1  N   UNL     1       0.900  12.325  19.420  0.00  0.00    +0.000 N 
ATOM      2  C   UNL     1       1.269  13.186  20.455  0.00  0.00    +0.000 C 
ATOM      3  O   UNL     1       1.934  12.946  21.452  0.00  0.00    +0.000 OA
ATOM      4  N   UNL     1       0.791  14.426  20.169  0.00  0.00    +0.000 N 
ATOM      5  C   UNL     1       0.113  14.440  18.996  0.00  0.00    +0.000 C 
ATOM      6  O   UNL     1      -0.385  15.433  18.488  0.00  0.00    +0.000 OA
ATOM      7  C   UNL     1       0.043  13.012  18.460  0.00  0.00    +0.000 C 
ATOM      8  H   UNL     1       0.967  15.239  20.738  0.00  0.00    +0.000 HD
ENDROOT
BRANCH   1  12
ATOM      9  C   UNL     1       1.873   8.195  19.106  0.00  0.00    +0.000 A 
ATOM     10  C   UNL     1       2.211   9.086  18.086  0.00  0.00    +0.000 A 
ATOM     11  C   UNL     1       1.880  10.446  18.178  0.00  0.00    +0.000 A 
ATOM     12  C   UNL     1       1.230  10.951  19.309  0.00  0.00    +0.000 A 
ATOM     13  C   UNL     1       0.923  10.059  20.342  0.00  0.00    +0.000 A 
ATOM     14  C   UNL     1       1.227   8.701  20.232  0.00  0.00    +0.000 A 
ATOM     15  F   UNL     1       0.860   7.909  21.250  0.00  0.00    +0.000 F 
BRANCH   9  17
ATOM     16  C   UNL     1       3.303   6.686  17.959  0.00  0.00    +0.000 C 
ATOM     17  O   UNL     1       2.229   6.897  18.868  0.00  0.00    +0.000 OA
ENDBRANCH   9  17
ENDBRANCH   1  12
BRANCH   7  18
ATOM     18  C   UNL     1      -1.378  12.475  18.480  0.00  0.00    +0.000 A 
ATOM     19  C   UNL     1      -2.214  12.751  19.561  0.00  0.00    +0.000 A 
ATOM     20  C   UNL     1      -3.536  12.290  19.576  0.00  0.00    +0.000 A 
ATOM     21  C   UNL     1      -4.031  11.498  18.514  0.00  0.00    +0.000 A 
ATOM     22  C   UNL     1      -3.188  11.195  17.428  0.00  0.00    +0.000 A 
ATOM     23  C   UNL     1      -1.882  11.708  17.419  0.00  0.00    +0.000 A 
BRANCH  20  24
ATOM     24  O   UNL     1      -4.397  12.565  20.619  0.00  0.00    +0.000 OA
ATOM     25  C   UNL     1      -3.799  12.698  21.904  0.00  0.00    +0.000 C 
ENDBRANCH  20  24
BRANCH  21  26
ATOM     26  O   UNL     1      -5.317  11.031  18.681  0.00  0.00    +0.000 OA
ATOM     27  C   UNL     1      -6.356  11.701  17.977  0.00  0.00    +0.000 C 
ENDBRANCH  21  26
BRANCH  22  28
ATOM     28  O   UNL     1      -3.662  10.387  16.429  0.00  0.00    +0.000 OA
ATOM     29  C   UNL     1      -3.114  10.526  15.123  0.00  0.00    +0.000 C 
ENDBRANCH  22  28
ENDBRANCH   7  18
TORSDOF 6
ENDMDL
MODEL 5
REMARK VINA RESULT:      -7.2      1.778      2.107
REMARK  Name = 
REMARK  10 active torsions:
REMARK  status: ('A' for Active; 'I' for Inactive)
REMARK    1  A    between atoms: C_1  and  O_2
REMARK    2  A    between atoms: O_2  and  C_3
REMARK    3  A    between atoms: C_6  and  N_7
REMARK    4  A    between atoms: C_13  and  C_14
REMARK    5  A    between atoms: C_16  and  O_17
REMARK    6  A    between atoms: O_17  and  C_18
REMARK    7  A    between atoms: C_19  and  O_20
REMARK    8  A    between atoms: O_20  and  C_21
REMARK    9  A    between atoms: C_22  and  O_23
REMARK   10  A    between atoms: O_23  and  C_24
REMARK                            x       y       z     vdW  Elec       q    Type
REMARK                         _______ _______ _______ _____ _____    ______ ____
ROOT
ATOM      1  N   UNL     1       3.344   4.882  18.691  0.00  0.00    +0.000 N 
ATOM      2  C   UNL     1       2.624   3.972  17.914  0.00  0.00    +0.000 C 
ATOM      3  O   UNL     1       2.878   3.553  16.794  0.00  0.00    +0.000 OA
ATOM      4  N   UNL     1       1.548   3.555  18.631  0.00  0.00    +0.000 N 
ATOM      5  C   UNL     1       1.504   4.145  19.850  0.00  0.00    +0.000 C 
ATOM      6  O   UNL     1       0.662   3.918  20.707  0.00  0.00    +0.000 OA
ATOM      7  C   UNL     1       2.644   5.158  19.940  0.00  0.00    +0.000 C 
ATOM      8  H   UNL     1       0.897   2.857  18.309  0.00  0.00    +0.000 HD
ENDROOT
BRANCH   1  12
ATOM      9  C   UNL     1       6.989   6.798  17.626  0.00  0.00    +0.000 A 
ATOM     10  C   UNL     1       5.812   7.068  16.926  0.00  0.00    +0.000 A 
ATOM     11  C   UNL     1       4.611   6.428  17.265  0.00  0.00    +0.000 A 
ATOM     12  C   UNL     1       4.554   5.526  18.332  0.00  0.00    +0.000 A 
ATOM     13  C   UNL     1       5.730   5.285  19.050  0.00  0.00    +0.000 A 
ATOM     14  C   UNL     1       6.930   5.901  18.689  0.00  0.00    +0.000 A 
ATOM     15  F   UNL     1       8.018   5.581  19.405  0.00  0.00    +0.000 F 
BRANCH   9  17
ATOM     16  C   UNL     1       8.299   8.779  17.685  0.00  0.00    +0.000 C 
ATOM     17  O   UNL     1       8.089   7.469  17.168  0.00  0.00    +0.000 OA
ENDBRANCH   9  17
ENDBRANCH   1  12
BRANCH   7  18
ATOM     18  C   UNL     1       2.122   6.583  19.999  0.00  0.00    +0.000 A 
ATOM     19  C   UNL     1       2.068   7.356  18.839  0.00  0.00    +0.000 A 
ATOM     20  C   UNL     1       1.559   8.659  18.873  0.00  0.00    +0.000 A 
ATOM     21  C   UNL     1       1.132   9.230  20.095  0.00  0.00    +0.000 A 
ATOM     22  C   UNL     1       1.204   8.467  21.275  0.00  0.00    +0.000 A 
ATOM     23  C   UNL     1       1.677   7.148  21.203  0.00  0.00    +0.000 A 
BRANCH  20  24
ATOM     24  O   UNL     1       1.469   9.443  17.740  0.00  0.00    +0.000 OA
ATOM     25  C   UNL     1       2.424  10.494  17.632  0.00  0.00    +0.000 C 
ENDBRANCH  20  24
BRANCH  21  26
ATOM     26  O   UNL     1       0.733  10.547  20.019  0.00  0.00    +0.000 OA
ATOM     27  C   UNL     1      -0.646  10.803  19.780  0.00  0.00    +0.000 C 
ENDBRANCH  21  26
BRANCH  22  28
ATOM     28  O   UNL     1       0.834   9.046  22.461  0.00  0.00    +0.000 OA
ATOM     29  C   UNL     1      -0.539   9.023  22.830  0.00  0.00    +0.000 C 
ENDBRANCH  22  28
ENDBRANCH   7  18
TORSDOF 6
ENDMDL
MODEL 6
REMARK VINA RESULT:      -7.2      0.077      2.371
REMARK  Name = 
REMARK  10 active torsions:
REMARK  status: ('A' for Active; 'I' for Inactive)
REMARK    1  A    between atoms: C_1  and  O_2
REMARK    2  A    between atoms: O_2  and  C_3
REMARK    3  A    between atoms: C_6  and  N_7
REMARK    4  A    between atoms: C_13  and  C_14
REMARK    5  A    between atoms: C_16  and  O_17
REMARK    6  A    between atoms: O_17  and  C_18
REMARK    7  A    between atoms: C_19  and  O_20
REMARK    8  A    between atoms: O_20  and  C_21
REMARK    9  A    between atoms: C_22  and  O_23
REMARK   10  A    between atoms: O_23  and  C_24
REMARK                            x       y       z     vdW  Elec       q    Type
REMARK                         _______ _______ _______ _____ _____    ______ ____
ROOT
ATOM      1  N   UNL     1       3.454   3.486  18.861  0.00  0.00    +0.000 N 
ATOM      2  C   UNL     1       2.526   2.470  18.629  0.00  0.00    +0.000 C 
ATOM      3  O   UNL     1       2.448   1.706  17.677  0.00  0.00    +0.000 OA
ATOM      4  N   UNL     1       1.682   2.410  19.693  0.00  0.00    +0.000 N 
ATOM      5  C   UNL     1       1.992   3.342  20.626  0.00  0.00    +0.000 C 
ATOM      6  O   UNL     1       1.417   3.478  21.696  0.00  0.00    +0.000 OA
ATOM      7  C   UNL     1       3.135   4.202  20.091  0.00  0.00    +0.000 C 
ATOM      8  H   UNL     1       0.951   1.724  19.790  0.00  0.00    +0.000 HD
ENDROOT
BRANCH   1  12
ATOM      9  C   UNL     1       6.703   4.586  16.346  0.00  0.00    +0.000 A 
ATOM     10  C   UNL     1       5.454   4.284  15.803  0.00  0.00    +0.000 A 
ATOM     11  C   UNL     1       4.383   3.907  16.627  0.00  0.00    +0.000 A 
ATOM     12  C   UNL     1       4.531   3.854  18.017  0.00  0.00    +0.000 A 
ATOM     13  C   UNL     1       5.777   4.190  18.557  0.00  0.00    +0.000 A 
ATOM     14  C   UNL     1       6.848   4.534  17.730  0.00  0.00    +0.000 A 
ATOM     15  F   UNL     1       8.019   4.800  18.328  0.00  0.00    +0.000 F 
BRANCH   9  17
ATOM     16  C   UNL     1       7.252   4.930  14.061  0.00  0.00    +0.000 C 
ATOM     17  O   UNL     1       7.661   4.907  15.424  0.00  0.00    +0.000 OA
ENDBRANCH   9  17
ENDBRANCH   1  12
BRANCH   7  18
ATOM     18  C   UNL     1       2.684   5.627  19.821  0.00  0.00    +0.000 A 
ATOM     19  C   UNL     1       1.842   6.276  20.723  0.00  0.00    +0.000 A 
ATOM     20  C   UNL     1       1.444   7.600  20.502  0.00  0.00    +0.000 A 
ATOM     21  C   UNL     1       1.855   8.286  19.336  0.00  0.00    +0.000 A 
ATOM     22  C   UNL     1       2.687   7.632  18.407  0.00  0.00    +0.000 A 
ATOM     23  C   UNL     1       3.105   6.321  18.677  0.00  0.00    +0.000 A 
BRANCH  20  24
ATOM     24  O   UNL     1       0.631   8.280  21.386  0.00  0.00    +0.000 OA
ATOM     25  C   UNL     1       1.297   9.081  22.357  0.00  0.00    +0.000 C 
ENDBRANCH  20  24
BRANCH  21  26
ATOM     26  O   UNL     1       1.332   9.552  19.185  0.00  0.00    +0.000 OA
ATOM     27  C   UNL     1       0.285   9.721  18.237  0.00  0.00    +0.000 C 
ENDBRANCH  21  26
BRANCH  22  28
ATOM     28  O   UNL     1       3.039   8.289  17.257  0.00  0.00    +0.000 OA
ATOM     29  C   UNL     1       4.072   7.739  16.449  0.00  0.00    +0.000 C 
ENDBRANCH  22  28
ENDBRANCH   7  18
TORSDOF 6
ENDMDL
MODEL 7
REMARK VINA RESULT:      -7.1      2.207      6.200
REMARK  Name = 
REMARK  10 active torsions:
REMARK  status: ('A' for Active; 'I' for Inactive)
REMARK    1  A    between atoms: C_1  and  O_2
REMARK    2  A    between atoms: O_2  and  C_3
REMARK    3  A    between atoms: C_6  and  N_7
REMARK    4  A    between atoms: C_13  and  C_14
REMARK    5  A    between atoms: C_16  and  O_17
REMARK    6  A    between atoms: O_17  and  C_18
REMARK    7  A    between atoms: C_19  and  O_20
REMARK    8  A    between atoms: O_20  and  C_21
REMARK    9  A    between atoms: C_22  and  O_23
REMARK   10  A    between atoms: O_23  and  C_24
REMARK                            x       y       z     vdW  Elec       q    Type
REMARK                         _______ _______ _______ _____ _____    ______ ____
ROOT
ATOM      1  N   UNL     1       2.397   4.693  19.635  0.00  0.00    +0.000 N 
ATOM      2  C   UNL     1       2.379   3.703  20.619  0.00  0.00    +0.000 C 
ATOM      3  O   UNL     1       2.029   3.789  21.787  0.00  0.00    +0.000 OA
ATOM      4  N   UNL     1       2.796   2.537  20.059  0.00  0.00    +0.000 N 
ATOM      5  C   UNL     1       3.100   2.695  18.748  0.00  0.00    +0.000 C 
ATOM      6  O   UNL     1       3.462   1.798  18.001  0.00  0.00    +0.000 OA
ATOM      7  C   UNL     1       2.958   4.174  18.393  0.00  0.00    +0.000 C 
ATOM      8  H   UNL     1       2.825   1.658  20.551  0.00  0.00    +0.000 HD
ENDROOT
BRANCH   1  12
ATOM      9  C   UNL     1       1.208   8.753  20.079  0.00  0.00    +0.000 A 
ATOM     10  C   UNL     1       1.074   7.852  21.137  0.00  0.00    +0.000 A 
ATOM     11  C   UNL     1       1.452   6.510  20.990  0.00  0.00    +0.000 A 
ATOM     12  C   UNL     1       2.001   6.045  19.792  0.00  0.00    +0.000 A 
ATOM     13  C   UNL     1       2.163   6.960  18.746  0.00  0.00    +0.000 A 
ATOM     14  C   UNL     1       1.756   8.289  18.886  0.00  0.00    +0.000 A 
ATOM     15  F   UNL     1       1.908   9.088  17.820  0.00  0.00    +0.000 F 
BRANCH   9  17
ATOM     16  C   UNL     1      -0.510  10.377  19.849  0.00  0.00    +0.000 C 
ATOM     17  O   UNL     1       0.772  10.020  20.353  0.00  0.00    +0.000 OA
ENDBRANCH   9  17
ENDBRANCH   1  12
BRANCH   7  18
ATOM     18  C   UNL     1       4.302   4.802  18.068  0.00  0.00    +0.000 A 
ATOM     19  C   UNL     1       5.174   5.159  19.096  0.00  0.00    +0.000 A 
ATOM     20  C   UNL     1       6.429   5.709  18.809  0.00  0.00    +0.000 A 
ATOM     21  C   UNL     1       6.814   5.954  17.470  0.00  0.00    +0.000 A 
ATOM     22  C   UNL     1       5.932   5.619  16.426  0.00  0.00    +0.000 A 
ATOM     23  C   UNL     1       4.699   5.028  16.741  0.00  0.00    +0.000 A 
BRANCH  20  24
ATOM     24  O   UNL     1       7.325   6.051  19.801  0.00  0.00    +0.000 OA
ATOM     25  C   UNL     1       8.385   5.129  20.028  0.00  0.00    +0.000 C 
ENDBRANCH  20  24
BRANCH  21  26
ATOM     26  O   UNL     1       8.033   6.578  17.316  0.00  0.00    +0.000 OA
ATOM     27  C   UNL     1       8.068   7.994  17.444  0.00  0.00    +0.000 C 
ENDBRANCH  21  26
BRANCH  22  28
ATOM     28  O   UNL     1       6.295   5.906  15.136  0.00  0.00    +0.000 OA
ATOM     29  C   UNL     1       6.838   4.864  14.335  0.00  0.00    +0.000 C 
ENDBRANCH  22  28
ENDBRANCH   7  18
TORSDOF 6
ENDMDL
MODEL 8
REMARK VINA RESULT:      -7.1      1.823      6.123
REMARK  Name = 
REMARK  10 active torsions:
REMARK  status: ('A' for Active; 'I' for Inactive)
REMARK    1  A    between atoms: C_1  and  O_2
REMARK    2  A    between atoms: O_2  and  C_3
REMARK    3  A    between atoms: C_6  and  N_7
REMARK    4  A    between atoms: C_13  and  C_14
REMARK    5  A    between atoms: C_16  and  O_17
REMARK    6  A    between atoms: O_17  and  C_18
REMARK    7  A    between atoms: C_19  and  O_20
REMARK    8  A    between atoms: O_20  and  C_21
REMARK    9  A    between atoms: C_22  and  O_23
REMARK   10  A    between atoms: O_23  and  C_24
REMARK                            x       y       z     vdW  Elec       q    Type
REMARK                         _______ _______ _______ _____ _____    ______ ____
ROOT
ATOM      1  N   UNL     1       2.398   4.340  19.764  0.00  0.00    +0.000 N 
ATOM      2  C   UNL     1       2.487   3.548  20.910  0.00  0.00    +0.000 C 
ATOM      3  O   UNL     1       2.361   3.876  22.081  0.00  0.00    +0.000 OA
ATOM      4  N   UNL     1       2.711   2.264  20.524  0.00  0.00    +0.000 N 
ATOM      5  C   UNL     1       2.784   2.155  19.175  0.00  0.00    +0.000 C 
ATOM      6  O   UNL     1       2.939   1.107  18.566  0.00  0.00    +0.000 OA
ATOM      7  C   UNL     1       2.686   3.554  18.570  0.00  0.00    +0.000 C 
ATOM      8  H   UNL     1       2.765   1.488  21.165  0.00  0.00    +0.000 HD
ENDROOT
BRANCH   1  12
ATOM      9  C   UNL     1       1.609   8.518  19.606  0.00  0.00    +0.000 A 
ATOM     10  C   UNL     1       1.370   7.791  20.774  0.00  0.00    +0.000 A 
ATOM     11  C   UNL     1       1.615   6.412  20.826  0.00  0.00    +0.000 A 
ATOM     12  C   UNL     1       2.135   5.732  19.720  0.00  0.00    +0.000 A 
ATOM     13  C   UNL     1       2.403   6.472  18.563  0.00  0.00    +0.000 A 
ATOM     14  C   UNL     1       2.128   7.840  18.506  0.00  0.00    +0.000 A 
ATOM     15  F   UNL     1       2.375   8.463  17.345  0.00  0.00    +0.000 F 
BRANCH   9  17
ATOM     16  C   UNL     1       0.064  10.250  19.103  0.00  0.00    +0.000 C 
ATOM     17  O   UNL     1       1.296   9.846  19.689  0.00  0.00    +0.000 OA
ENDBRANCH   9  17
ENDBRANCH   1  12
BRANCH   7  18
ATOM     18  C   UNL     1       3.991   3.971  17.914  0.00  0.00    +0.000 A 
ATOM     19  C   UNL     1       5.138   4.146  18.688  0.00  0.00    +0.000 A 
ATOM     20  C   UNL     1       6.354   4.499  18.092  0.00  0.00    +0.000 A 
ATOM     21  C   UNL     1       6.429   4.728  16.698  0.00  0.00    +0.000 A 
ATOM     22  C   UNL     1       5.272   4.576  15.911  0.00  0.00    +0.000 A 
ATOM     23  C   UNL     1       4.077   4.178  16.529  0.00  0.00    +0.000 A 
BRANCH  20  24
ATOM     24  O   UNL     1       7.513   4.657  18.825  0.00  0.00    +0.000 OA
ATOM     25  C   UNL     1       7.563   5.798  19.675  0.00  0.00    +0.000 C 
ENDBRANCH  20  24
BRANCH  21  26
ATOM     26  O   UNL     1       7.657   5.154  16.238  0.00  0.00    +0.000 OA
ATOM     27  C   UNL     1       7.854   6.555  16.095  0.00  0.00    +0.000 C 
ENDBRANCH  21  26
BRANCH  22  28
ATOM     28  O   UNL     1       5.344   4.848  14.570  0.00  0.00    +0.000 OA
ATOM     29  C   UNL     1       5.873   3.853  13.702  0.00  0.00    +0.000 C 
ENDBRANCH  22  28
ENDBRANCH   7  18
TORSDOF 6
ENDMDL
MODEL 9
REMARK VINA RESULT:      -7.1      2.370      6.181
REMARK  Name = 
REMARK  10 active torsions:
REMARK  status: ('A' for Active; 'I' for Inactive)
REMARK    1  A    between atoms: C_1  and  O_2
REMARK    2  A    between atoms: O_2  and  C_3
REMARK    3  A    between atoms: C_6  and  N_7
REMARK    4  A    between atoms: C_13  and  C_14
REMARK    5  A    between atoms: C_16  and  O_17
REMARK    6  A    between atoms: O_17  and  C_18
REMARK    7  A    between atoms: C_19  and  O_20
REMARK    8  A    between atoms: O_20  and  C_21
REMARK    9  A    between atoms: C_22  and  O_23
REMARK   10  A    between atoms: O_23  and  C_24
REMARK                            x       y       z     vdW  Elec       q    Type
REMARK                         _______ _______ _______ _____ _____    ______ ____
ROOT
ATOM      1  N   UNL     1       2.505   4.842  19.579  0.00  0.00    +0.000 N 
ATOM      2  C   UNL     1       2.557   3.908  20.616  0.00  0.00    +0.000 C 
ATOM      3  O   UNL     1       2.270   4.056  21.795  0.00  0.00    +0.000 OA
ATOM      4  N   UNL     1       2.962   2.718  20.099  0.00  0.00    +0.000 N 
ATOM      5  C   UNL     1       3.191   2.807  18.767  0.00  0.00    +0.000 C 
ATOM      6  O   UNL     1       3.525   1.874  18.051  0.00  0.00    +0.000 OA
ATOM      7  C   UNL     1       3.005   4.261  18.339  0.00  0.00    +0.000 C 
ATOM      8  H   UNL     1       3.032   1.869  20.637  0.00  0.00    +0.000 HD
ENDROOT
BRANCH   1  12
ATOM      9  C   UNL     1       1.276   8.900  19.915  0.00  0.00    +0.000 A 
ATOM     10  C   UNL     1       1.773   8.405  18.709  0.00  0.00    +0.000 A 
ATOM     11  C   UNL     1       2.192   7.071  18.597  0.00  0.00    +0.000 A 
ATOM     12  C   UNL     1       2.095   6.195  19.682  0.00  0.00    +0.000 A 
ATOM     13  C   UNL     1       1.565   6.689  20.879  0.00  0.00    +0.000 A 
ATOM     14  C   UNL     1       1.178   8.025  20.994  0.00  0.00    +0.000 A 
ATOM     15  F   UNL     1       0.721   8.427  22.189  0.00  0.00    +0.000 F 
BRANCH   9  17
ATOM     16  C   UNL     1       0.314  10.699  18.698  0.00  0.00    +0.000 C 
ATOM     17  O   UNL     1       0.934  10.224  19.888  0.00  0.00    +0.000 OA
ENDBRANCH   9  17
ENDBRANCH   1  12
BRANCH   7  18
ATOM     18  C   UNL     1       4.318   4.888  17.905  0.00  0.00    +0.000 A 
ATOM     19  C   UNL     1       5.240   5.312  18.861  0.00  0.00    +0.000 A 
ATOM     20  C   UNL     1       6.468   5.862  18.474  0.00  0.00    +0.000 A 
ATOM     21  C   UNL     1       6.775   6.038  17.105  0.00  0.00    +0.000 A 
ATOM     22  C   UNL     1       5.841   5.634  16.131  0.00  0.00    +0.000 A 
ATOM     23  C   UNL     1       4.638   5.045  16.547  0.00  0.00    +0.000 A 
BRANCH  20  24
ATOM     24  O   UNL     1       7.413   6.270  19.394  0.00  0.00    +0.000 OA
ATOM     25  C   UNL     1       8.194   5.237  19.986  0.00  0.00    +0.000 C 
ENDBRANCH  20  24
BRANCH  21  26
ATOM     26  O   UNL     1       7.973   6.667  16.848  0.00  0.00    +0.000 OA
ATOM     27  C   UNL     1       8.093   8.033  17.228  0.00  0.00    +0.000 C 
ENDBRANCH  21  26
BRANCH  22  28
ATOM     28  O   UNL     1       6.128   5.854  14.809  0.00  0.00    +0.000 OA
ATOM     29  C   UNL     1       6.754   4.815  14.067  0.00  0.00    +0.000 C 
ENDBRANCH  22  28
ENDBRANCH   7  18
TORSDOF 6
ENDMDL
