MODEL 1
REMARK VINA RESULT:      -7.5      0.000      0.000
REMARK  Name = 
REMARK  6 active torsions:
REMARK  status: ('A' for Active; 'I' for Inactive)
REMARK    1  A    between atoms: C_1  and  C_2
REMARK    2  A    between atoms: C_4  and  C_5
REMARK    3  A    between atoms: C_12  and  C_13
REMARK    4  A    between atoms: C_13  and  O_15
REMARK    5  A    between atoms: C_23  and  C_24
REMARK    6  A    between atoms: C_26  and  C_27
REMARK                            x       y       z     vdW  Elec       q    Type
REMARK                         _______ _______ _______ _____ _____    ______ ____
ROOT
ATOM      1  C   UNL     1       2.168   7.920  18.883  0.00  0.00    +0.000 A 
ATOM      2  C   UNL     1       3.003   8.670  18.031  0.00  0.00    +0.000 A 
ATOM      3  F   UNL     1       2.875  10.002  17.938  0.00  0.00    +0.000 F 
ATOM      4  C   UNL     1       3.970   8.090  17.236  0.00  0.00    +0.000 A 
ATOM      5  C   UNL     1       4.102   6.705  17.226  0.00  0.00    +0.000 A 
ATOM      6  C   UNL     1       5.132   6.147  16.318  0.00  0.00    +0.000 A 
ATOM      7  O   UNL     1       5.857   6.873  15.638  0.00  0.00    +0.000 OA
ATOM      8  C   UNL     1       5.270   4.688  16.240  0.00  0.00    +0.000 A 
ATOM      9  C   UNL     1       4.440   3.974  17.008  0.00  0.00    +0.000 A 
ATOM     10  N   UNL     1       3.477   4.456  17.898  0.00  0.00    +0.000 N 
ATOM     11  C   UNL     1       3.306   5.858  18.037  0.00  0.00    +0.000 A 
ATOM     12  C   UNL     1       2.370   6.492  18.905  0.00  0.00    +0.000 A 
ATOM     13  S   UNL     1       1.468   5.511  20.132  0.00  0.00    +0.000 S 
ATOM     14  O   UNL     1       2.365   5.453  21.415  0.00  0.00    +0.000 OA
ATOM     15  C   UNL     1       1.460   3.919  19.330  0.00  0.00    +0.000 C 
ATOM     16  C   UNL     1       2.809   3.486  18.800  0.00  0.00    +0.000 C 
ATOM     17  C   UNL     1       3.776   3.003  19.884  0.00  0.00    +0.000 C 
ENDROOT
BRANCH   1  21
ATOM     18  C   UNL     1      -1.788  11.046  19.091  0.00  0.00    +0.000 C 
ATOM     19  C   UNL     1      -0.752  10.203  19.775  0.00  0.00    +0.000 A 
ATOM     20  C   UNL     1       0.205   9.523  19.029  0.00  0.00    +0.000 A 
ATOM     21  C   UNL     1       1.114   8.658  19.654  0.00  0.00    +0.000 A 
ATOM     22  C   UNL     1       1.037   8.598  21.057  0.00  0.00    +0.000 A 
ATOM     23  C   UNL     1       0.107   9.372  21.751  0.00  0.00    +0.000 A 
ATOM     24  C   UNL     1       0.092   9.411  23.251  0.00  0.00    +0.000 C 
ATOM     25  N   UNL     1      -0.801  10.150  21.122  0.00  0.00    +0.000 NA
ENDBRANCH   1  21
BRANCH   8  26
ATOM     26  C   UNL     1       6.266   3.997  15.392  0.00  0.00    +0.000 C 
ATOM     27  O   UNL     1       5.960   3.264  14.465  0.00  0.00    +0.000 OA
BRANCH  26  28
ATOM     28  O   UNL     1       7.551   4.237  15.731  0.00  0.00    +0.000 OA
ATOM     29  H   UNL     1       7.795   3.937  16.641  0.00  0.00    +0.000 HD
ENDBRANCH  26  28
ENDBRANCH   8  26
TORSDOF 3
ENDMDL
MODEL 2
REMARK VINA RESULT:      -7.3      4.021      6.603
REMARK  Name = 
REMARK  6 active torsions:
REMARK  status: ('A' for Active; 'I' for Inactive)
REMARK    1  A    between atoms: C_1  and  C_2
REMARK    2  A    between atoms: C_4  and  C_5
REMARK    3  A    between atoms: C_12  and  C_13
REMARK    4  A    between atoms: C_13  and  O_15
REMARK    5  A    between atoms: C_23  and  C_24
REMARK    6  A    between atoms: C_26  and  C_27
REMARK                            x       y       z     vdW  Elec       q    Type
REMARK                         _______ _______ _______ _____ _____    ______ ____
ROOT
ATOM      1  C   UNL     1      -0.965  11.153  22.179  0.00  0.00    +0.000 A 
ATOM      2  C   UNL     1      -0.272  10.124  22.847  0.00  0.00    +0.000 A 
ATOM      3  F   UNL     1      -0.310  10.022  24.185  0.00  0.00    +0.000 F 
ATOM      4  C   UNL     1       0.494   9.188  22.183  0.00  0.00    +0.000 A 
ATOM      5  C   UNL     1       0.639   9.282  20.803  0.00  0.00    +0.000 A 
ATOM      6  C   UNL     1       1.509   8.270  20.159  0.00  0.00    +0.000 A 
ATOM      7  O   UNL     1       2.044   7.371  20.808  0.00  0.00    +0.000 OA
ATOM      8  C   UNL     1       1.728   8.364  18.711  0.00  0.00    +0.000 A 
ATOM      9  C   UNL     1       1.114   9.374  18.085  0.00  0.00    +0.000 A 
ATOM     10  N   UNL     1       0.264  10.331  18.644  0.00  0.00    +0.000 N 
ATOM     11  C   UNL     1      -0.007  10.285  20.037  0.00  0.00    +0.000 A 
ATOM     12  C   UNL     1      -0.853  11.189  20.742  0.00  0.00    +0.000 A 
ATOM     13  S   UNL     1      -1.888  12.359  19.825  0.00  0.00    +0.000 S 
ATOM     14  O   UNL     1      -3.230  11.621  19.498  0.00  0.00    +0.000 OA
ATOM     15  C   UNL     1      -0.925  12.545  18.336  0.00  0.00    +0.000 C 
ATOM     16  C   UNL     1      -0.470  11.237  17.726  0.00  0.00    +0.000 C 
ATOM     17  C   UNL     1      -1.576  10.478  16.989  0.00  0.00    +0.000 C 
ENDROOT
BRANCH   1  21
ATOM     18  C   UNL     1      -5.056  12.547  24.783  0.00  0.00    +0.000 C 
ATOM     19  C   UNL     1      -3.698  12.852  24.224  0.00  0.00    +0.000 A 
ATOM     20  C   UNL     1      -3.024  11.904  23.460  0.00  0.00    +0.000 A 
ATOM     21  C   UNL     1      -1.716  12.145  23.015  0.00  0.00    +0.000 A 
ATOM     22  C   UNL     1      -1.189  13.412  23.324  0.00  0.00    +0.000 A 
ATOM     23  C   UNL     1      -1.951  14.349  24.022  0.00  0.00    +0.000 A 
ATOM     24  C   UNL     1      -1.449  15.743  24.253  0.00  0.00    +0.000 C 
ATOM     25  N   UNL     1      -3.185  14.070  24.495  0.00  0.00    +0.000 NA
ENDBRANCH   1  21
BRANCH   8  26
ATOM     26  C   UNL     1       2.556   7.412  17.938  0.00  0.00    +0.000 C 
ATOM     27  O   UNL     1       3.485   7.760  17.228  0.00  0.00    +0.000 OA
BRANCH  26  28
ATOM     28  O   UNL     1       2.194   6.118  18.075  0.00  0.00    +0.000 OA
ATOM     29  H   UNL     1       2.919   5.471  17.892  0.00  0.00    +0.000 HD
ENDBRANCH  26  28
ENDBRANCH   8  26
TORSDOF 3
ENDMDL
MODEL 3
REMARK VINA RESULT:      -7.2      4.008      6.598
REMARK  Name = 
REMARK  6 active torsions:
REMARK  status: ('A' for Active; 'I' for Inactive)
REMARK    1  A    between atoms: C_1  and  C_2
REMARK    2  A    between atoms: C_4  and  C_5
REMARK    3  A    between atoms: C_12  and  C_13
REMARK    4  A    between atoms: C_13  and  O_15
REMARK    5  A    between atoms: C_23  and  C_24
REMARK    6  A    between atoms: C_26  and  C_27
REMARK                            x       y       z     vdW  Elec       q    Type
REMARK                         _______ _______ _______ _____ _____    ______ ____
ROOT
ATOM      1  C   UNL     1      -1.025  11.137  22.166  0.00  0.00    +0.000 A 
ATOM      2  C   UNL     1      -0.345  10.117  22.862  0.00  0.00    +0.000 A 
ATOM      3  F   UNL     1      -0.408  10.035  24.200  0.00  0.00    +0.000 F 
ATOM      4  C   UNL     1       0.432   9.171  22.226  0.00  0.00    +0.000 A 
ATOM      5  C   UNL     1       0.602   9.245  20.847  0.00  0.00    +0.000 A 
ATOM      6  C   UNL     1       1.483   8.223  20.234  0.00  0.00    +0.000 A 
ATOM      7  O   UNL     1       2.005   7.333  20.906  0.00  0.00    +0.000 OA
ATOM      8  C   UNL     1       1.729   8.295  18.789  0.00  0.00    +0.000 A 
ATOM      9  C   UNL     1       1.127   9.297  18.138  0.00  0.00    +0.000 A 
ATOM     10  N   UNL     1       0.269  10.263  18.667  0.00  0.00    +0.000 N 
ATOM     11  C   UNL     1      -0.028  10.237  20.055  0.00  0.00    +0.000 A 
ATOM     12  C   UNL     1      -0.886  11.152  20.731  0.00  0.00    +0.000 A 
ATOM     13  S   UNL     1      -1.903  12.310  19.778  0.00  0.00    +0.000 S 
ATOM     14  O   UNL     1      -3.239  11.568  19.438  0.00  0.00    +0.000 OA
ATOM     15  C   UNL     1      -0.912  12.473  18.304  0.00  0.00    +0.000 C 
ATOM     16  C   UNL     1      -0.447  11.156  17.723  0.00  0.00    +0.000 C 
ATOM     17  C   UNL     1      -1.541  10.387  16.976  0.00  0.00    +0.000 C 
ENDROOT
BRANCH   1  21
ATOM     18  C   UNL     1      -1.378  15.604  24.485  0.00  0.00    +0.000 C 
ATOM     19  C   UNL     1      -1.954  14.263  24.141  0.00  0.00    +0.000 A 
ATOM     20  C   UNL     1      -1.222  13.357  23.380  0.00  0.00    +0.000 A 
ATOM     21  C   UNL     1      -1.790  12.142  22.974  0.00  0.00    +0.000 A 
ATOM     22  C   UNL     1      -3.089  11.885  23.450  0.00  0.00    +0.000 A 
ATOM     23  C   UNL     1      -3.736  12.799  24.279  0.00  0.00    +0.000 A 
ATOM     24  C   UNL     1      -5.069  12.487  24.892  0.00  0.00    +0.000 C 
ATOM     25  N   UNL     1      -3.192  13.992  24.605  0.00  0.00    +0.000 NA
ENDBRANCH   1  21
BRANCH   8  26
ATOM     26  C   UNL     1       2.570   7.332  18.045  0.00  0.00    +0.000 C 
ATOM     27  O   UNL     1       3.509   7.669  17.343  0.00  0.00    +0.000 OA
BRANCH  26  28
ATOM     28  O   UNL     1       2.208   6.040  18.200  0.00  0.00    +0.000 OA
ATOM     29  H   UNL     1       2.965   5.405  18.221  0.00  0.00    +0.000 HD
ENDBRANCH  26  28
ENDBRANCH   8  26
TORSDOF 3
ENDMDL
MODEL 4
REMARK VINA RESULT:      -7.0      5.400      8.669
REMARK  Name = 
REMARK  6 active torsions:
REMARK  status: ('A' for Active; 'I' for Inactive)
REMARK    1  A    between atoms: C_1  and  C_2
REMARK    2  A    between atoms: C_4  and  C_5
REMARK    3  A    between atoms: C_12  and  C_13
REMARK    4  A    between atoms: C_13  and  O_15
REMARK    5  A    between atoms: C_23  and  C_24
REMARK    6  A    between atoms: C_26  and  C_27
REMARK                            x       y       z     vdW  Elec       q    Type
REMARK                         _______ _______ _______ _____ _____    ______ ____
ROOT
ATOM      1  C   UNL     1      -4.244  12.556  19.889  0.00  0.00    +0.000 A 
ATOM      2  C   UNL     1      -4.448  11.765  18.741  0.00  0.00    +0.000 A 
ATOM      3  F   UNL     1      -5.674  11.615  18.216  0.00  0.00    +0.000 F 
ATOM      4  C   UNL     1      -3.425  11.086  18.111  0.00  0.00    +0.000 A 
ATOM      5  C   UNL     1      -2.143  11.137  18.650  0.00  0.00    +0.000 A 
ATOM      6  C   UNL     1      -1.101  10.352  17.947  0.00  0.00    +0.000 A 
ATOM      7  O   UNL     1      -1.349   9.721  16.919  0.00  0.00    +0.000 OA
ATOM      8  C   UNL     1       0.254  10.337  18.510  0.00  0.00    +0.000 A 
ATOM      9  C   UNL     1       0.435  11.044  19.631  0.00  0.00    +0.000 A 
ATOM     10  N   UNL     1      -0.507  11.820  20.310  0.00  0.00    +0.000 N 
ATOM     11  C   UNL     1      -1.832  11.894  19.806  0.00  0.00    +0.000 A 
ATOM     12  C   UNL     1      -2.894  12.645  20.389  0.00  0.00    +0.000 A 
ATOM     13  S   UNL     1      -2.546  13.812  21.730  0.00  0.00    +0.000 S 
ATOM     14  O   UNL     1      -2.172  15.176  21.060  0.00  0.00    +0.000 OA
ATOM     15  C   UNL     1      -1.087  13.067  22.436  0.00  0.00    +0.000 C 
ATOM     16  C   UNL     1      -0.034  12.685  21.419  0.00  0.00    +0.000 C 
ATOM     17  C   UNL     1       0.762  13.874  20.874  0.00  0.00    +0.000 C 
ENDROOT
BRANCH   1  21
ATOM     18  C   UNL     1      -7.915  12.627  23.349  0.00  0.00    +0.000 C 
ATOM     19  C   UNL     1      -7.250  13.214  22.140  0.00  0.00    +0.000 A 
ATOM     20  C   UNL     1      -6.130  12.601  21.587  0.00  0.00    +0.000 A 
ATOM     21  C   UNL     1      -5.445  13.196  20.518  0.00  0.00    +0.000 A 
ATOM     22  C   UNL     1      -6.010  14.381  20.013  0.00  0.00    +0.000 A 
ATOM     23  C   UNL     1      -7.184  14.898  20.560  0.00  0.00    +0.000 A 
ATOM     24  C   UNL     1      -7.865  16.091  19.957  0.00  0.00    +0.000 C 
ATOM     25  N   UNL     1      -7.790  14.341  21.632  0.00  0.00    +0.000 NA
ENDBRANCH   1  21
BRANCH   8  26
ATOM     26  C   UNL     1       1.393   9.613  17.904  0.00  0.00    +0.000 C 
ATOM     27  O   UNL     1       1.477   8.396  17.885  0.00  0.00    +0.000 OA
BRANCH  26  28
ATOM     28  O   UNL     1       2.345  10.413  17.375  0.00  0.00    +0.000 OA
ATOM     29  H   UNL     1       3.267  10.074  17.484  0.00  0.00    +0.000 HD
ENDBRANCH  26  28
ENDBRANCH   8  26
TORSDOF 3
ENDMDL
MODEL 5
REMARK VINA RESULT:      -7.0      5.438      8.611
REMARK  Name = 
REMARK  6 active torsions:
REMARK  status: ('A' for Active; 'I' for Inactive)
REMARK    1  A    between atoms: C_1  and  C_2
REMARK    2  A    between atoms: C_4  and  C_5
REMARK    3  A    between atoms: C_12  and  C_13
REMARK    4  A    between atoms: C_13  and  O_15
REMARK    5  A    between atoms: C_23  and  C_24
REMARK    6  A    between atoms: C_26  and  C_27
REMARK                            x       y       z     vdW  Elec       q    Type
REMARK                         _______ _______ _______ _____ _____    ______ ____
ROOT
ATOM      1  C   UNL     1      -4.269  12.660  19.986  0.00  0.00    +0.000 A 
ATOM      2  C   UNL     1      -4.475  11.906  18.813  0.00  0.00    +0.000 A 
ATOM      3  F   UNL     1      -5.695  11.805  18.263  0.00  0.00    +0.000 F 
ATOM      4  C   UNL     1      -3.459  11.218  18.182  0.00  0.00    +0.000 A 
ATOM      5  C   UNL     1      -2.186  11.218  18.743  0.00  0.00    +0.000 A 
ATOM      6  C   UNL     1      -1.153  10.424  18.036  0.00  0.00    +0.000 A 
ATOM      7  O   UNL     1      -1.401   9.829  16.988  0.00  0.00    +0.000 OA
ATOM      8  C   UNL     1       0.190  10.356  18.622  0.00  0.00    +0.000 A 
ATOM      9  C   UNL     1       0.370  11.027  19.766  0.00  0.00    +0.000 A 
ATOM     10  N   UNL     1      -0.562  11.809  20.450  0.00  0.00    +0.000 N 
ATOM     11  C   UNL     1      -1.875  11.934  19.926  0.00  0.00    +0.000 A 
ATOM     12  C   UNL     1      -2.927  12.698  20.511  0.00  0.00    +0.000 A 
ATOM     13  S   UNL     1      -2.571  13.817  21.890  0.00  0.00    +0.000 S 
ATOM     14  O   UNL     1      -2.148  15.189  21.265  0.00  0.00    +0.000 OA
ATOM     15  C   UNL     1      -1.146  13.013  22.599  0.00  0.00    +0.000 C 
ATOM     16  C   UNL     1      -0.086  12.630  21.590  0.00  0.00    +0.000 C 
ATOM     17  C   UNL     1       0.752  13.811  21.092  0.00  0.00    +0.000 C 
ENDROOT
BRANCH   1  21
ATOM     18  C   UNL     1      -7.569  16.464  20.305  0.00  0.00    +0.000 C 
ATOM     19  C   UNL     1      -7.024  15.163  20.814  0.00  0.00    +0.000 A 
ATOM     20  C   UNL     1      -5.920  14.577  20.204  0.00  0.00    +0.000 A 
ATOM     21  C   UNL     1      -5.464  13.315  20.612  0.00  0.00    +0.000 A 
ATOM     22  C   UNL     1      -6.140  12.746  21.706  0.00  0.00    +0.000 A 
ATOM     23  C   UNL     1      -7.187  13.425  22.328  0.00  0.00    +0.000 A 
ATOM     24  C   UNL     1      -7.837  12.887  23.568  0.00  0.00    +0.000 C 
ATOM     25  N   UNL     1      -7.649  14.612  21.875  0.00  0.00    +0.000 NA
ENDBRANCH   1  21
BRANCH   8  26
ATOM     26  C   UNL     1       1.320   9.618  18.016  0.00  0.00    +0.000 C 
ATOM     27  O   UNL     1       1.470   8.413  18.134  0.00  0.00    +0.000 OA
BRANCH  26  28
ATOM     28  O   UNL     1       2.182  10.391  17.321  0.00  0.00    +0.000 OA
ATOM     29  H   UNL     1       2.128  11.354  17.534  0.00  0.00    +0.000 HD
ENDBRANCH  26  28
ENDBRANCH   8  26
TORSDOF 3
ENDMDL
MODEL 6
REMARK VINA RESULT:      -7.0      0.095      1.573
REMARK  Name = 
REMARK  6 active torsions:
REMARK  status: ('A' for Active; 'I' for Inactive)
REMARK    1  A    between atoms: C_1  and  C_2
REMARK    2  A    between atoms: C_4  and  C_5
REMARK    3  A    between atoms: C_12  and  C_13
REMARK    4  A    between atoms: C_13  and  O_15
REMARK    5  A    between atoms: C_23  and  C_24
REMARK    6  A    between atoms: C_26  and  C_27
REMARK                            x       y       z     vdW  Elec       q    Type
REMARK                         _______ _______ _______ _____ _____    ______ ____
ROOT
ATOM      1  C   UNL     1       2.203   8.002  18.852  0.00  0.00    +0.000 A 
ATOM      2  C   UNL     1       3.056   8.728  17.997  0.00  0.00    +0.000 A 
ATOM      3  F   UNL     1       2.956  10.062  17.891  0.00  0.00    +0.000 F 
ATOM      4  C   UNL     1       4.015   8.121  17.211  0.00  0.00    +0.000 A 
ATOM      5  C   UNL     1       4.120   6.734  17.216  0.00  0.00    +0.000 A 
ATOM      6  C   UNL     1       5.143   6.147  16.318  0.00  0.00    +0.000 A 
ATOM      7  O   UNL     1       5.885   6.852  15.634  0.00  0.00    +0.000 OA
ATOM      8  C   UNL     1       5.252   4.685  16.254  0.00  0.00    +0.000 A 
ATOM      9  C   UNL     1       4.404   3.995  17.025  0.00  0.00    +0.000 A 
ATOM     10  N   UNL     1       3.447   4.504  17.905  0.00  0.00    +0.000 N 
ATOM     11  C   UNL     1       3.304   5.911  18.031  0.00  0.00    +0.000 A 
ATOM     12  C   UNL     1       2.376   6.571  18.888  0.00  0.00    +0.000 A 
ATOM     13  S   UNL     1       1.449   5.620  20.120  0.00  0.00    +0.000 S 
ATOM     14  O   UNL     1       2.339   5.556  21.407  0.00  0.00    +0.000 OA
ATOM     15  C   UNL     1       1.413   4.021  19.333  0.00  0.00    +0.000 C 
ATOM     16  C   UNL     1       2.755   3.556  18.813  0.00  0.00    +0.000 C 
ATOM     17  C   UNL     1       3.708   3.064  19.907  0.00  0.00    +0.000 C 
ENDROOT
BRANCH   1  21
ATOM     18  C   UNL     1      -0.022   9.355  23.174  0.00  0.00    +0.000 C 
ATOM     19  C   UNL     1       0.046   9.384  21.676  0.00  0.00    +0.000 A 
ATOM     20  C   UNL     1       1.032   8.670  21.003  0.00  0.00    +0.000 A 
ATOM     21  C   UNL     1       1.161   8.769  19.611  0.00  0.00    +0.000 A 
ATOM     22  C   UNL     1       0.195   9.558  18.962  0.00  0.00    +0.000 A 
ATOM     23  C   UNL     1      -0.820  10.181  19.688  0.00  0.00    +0.000 A 
ATOM     24  C   UNL     1      -1.926  10.925  19.000  0.00  0.00    +0.000 C 
ATOM     25  N   UNL     1      -0.886  10.122  21.037  0.00  0.00    +0.000 NA
ENDBRANCH   1  21
BRANCH   8  26
ATOM     26  C   UNL     1       6.238   3.966  15.417  0.00  0.00    +0.000 C 
ATOM     27  O   UNL     1       5.921   3.179  14.540  0.00  0.00    +0.000 OA
BRANCH  26  28
ATOM     28  O   UNL     1       7.527   4.246  15.708  0.00  0.00    +0.000 OA
ATOM     29  H   UNL     1       7.658   5.093  16.201  0.00  0.00    +0.000 HD
ENDBRANCH  26  28
ENDBRANCH   8  26
TORSDOF 3
ENDMDL
MODEL 7
REMARK VINA RESULT:      -6.9      9.116     11.970
REMARK  Name = 
REMARK  6 active torsions:
REMARK  status: ('A' for Active; 'I' for Inactive)
REMARK    1  A    between atoms: C_1  and  C_2
REMARK    2  A    between atoms: C_4  and  C_5
REMARK    3  A    between atoms: C_12  and  C_13
REMARK    4  A    between atoms: C_13  and  O_15
REMARK    5  A    between atoms: C_23  and  C_24
REMARK    6  A    between atoms: C_26  and  C_27
REMARK                            x       y       z     vdW  Elec       q    Type
REMARK                         _______ _______ _______ _____ _____    ______ ____
ROOT
ATOM      1  C   UNL     1      -1.624  14.296  20.586  0.00  0.00    +0.000 A 
ATOM      2  C   UNL     1      -2.361  13.273  19.958  0.00  0.00    +0.000 A 
ATOM      3  F   UNL     1      -1.969  12.764  18.779  0.00  0.00    +0.000 F 
ATOM      4  C   UNL     1      -3.523  12.755  20.492  0.00  0.00    +0.000 A 
ATOM      5  C   UNL     1      -4.026  13.291  21.673  0.00  0.00    +0.000 A 
ATOM      6  C   UNL     1      -5.299  12.717  22.169  0.00  0.00    +0.000 A 
ATOM      7  O   UNL     1      -5.860  11.789  21.586  0.00  0.00    +0.000 OA
ATOM      8  C   UNL     1      -5.891  13.288  23.385  0.00  0.00    +0.000 A 
ATOM      9  C   UNL     1      -5.219  14.297  23.950  0.00  0.00    +0.000 A 
ATOM     10  N   UNL     1      -4.005  14.849  23.536  0.00  0.00    +0.000 N 
ATOM     11  C   UNL     1      -3.368  14.329  22.379  0.00  0.00    +0.000 A 
ATOM     12  C   UNL     1      -2.131  14.789  21.843  0.00  0.00    +0.000 A 
ATOM     13  S   UNL     1      -1.113  15.952  22.788  0.00  0.00    +0.000 S 
ATOM     14  O   UNL     1      -0.197  15.095  23.725  0.00  0.00    +0.000 OA
ATOM     15  C   UNL     1      -2.369  16.769  23.755  0.00  0.00    +0.000 C 
ATOM     16  C   UNL     1      -3.338  15.826  24.433  0.00  0.00    +0.000 C 
ATOM     17  C   UNL     1      -2.761  15.122  25.664  0.00  0.00    +0.000 C 
ENDROOT
BRANCH   1  21
ATOM     18  C   UNL     1       3.305  14.099  19.526  0.00  0.00    +0.000 C 
ATOM     19  C   UNL     1       1.970  14.769  19.402  0.00  0.00    +0.000 A 
ATOM     20  C   UNL     1       0.860  14.254  20.065  0.00  0.00    +0.000 A 
ATOM     21  C   UNL     1      -0.410  14.817  19.877  0.00  0.00    +0.000 A 
ATOM     22  C   UNL     1      -0.457  15.958  19.055  0.00  0.00    +0.000 A 
ATOM     23  C   UNL     1       0.707  16.474  18.487  0.00  0.00    +0.000 A 
ATOM     24  C   UNL     1       0.691  17.756  17.708  0.00  0.00    +0.000 C 
ATOM     25  N   UNL     1       1.910  15.876  18.632  0.00  0.00    +0.000 NA
ENDBRANCH   1  21
BRANCH   8  26
ATOM     26  C   UNL     1      -7.145  12.801  24.000  0.00  0.00    +0.000 C 
ATOM     27  O   UNL     1      -7.913  13.525  24.612  0.00  0.00    +0.000 OA
BRANCH  26  28
ATOM     28  O   UNL     1      -7.371  11.479  23.836  0.00  0.00    +0.000 OA
ATOM     29  H   UNL     1      -8.228  11.265  23.393  0.00  0.00    +0.000 HD
ENDBRANCH  26  28
ENDBRANCH   8  26
TORSDOF 3
ENDMDL
MODEL 8
REMARK VINA RESULT:      -6.7      3.413      8.421
REMARK  Name = 
REMARK  6 active torsions:
REMARK  status: ('A' for Active; 'I' for Inactive)
REMARK    1  A    between atoms: C_1  and  C_2
REMARK    2  A    between atoms: C_4  and  C_5
REMARK    3  A    between atoms: C_12  and  C_13
REMARK    4  A    between atoms: C_13  and  O_15
REMARK    5  A    between atoms: C_23  and  C_24
REMARK    6  A    between atoms: C_26  and  C_27
REMARK                            x       y       z     vdW  Elec       q    Type
REMARK                         _______ _______ _______ _____ _____    ______ ____
ROOT
ATOM      1  C   UNL     1       1.673   7.956  19.787  0.00  0.00    +0.000 A 
ATOM      2  C   UNL     1       1.673   7.651  21.162  0.00  0.00    +0.000 A 
ATOM      3  F   UNL     1       2.302   6.562  21.628  0.00  0.00    +0.000 F 
ATOM      4  C   UNL     1       1.017   8.427  22.097  0.00  0.00    +0.000 A 
ATOM      5  C   UNL     1       0.281   9.528  21.672  0.00  0.00    +0.000 A 
ATOM      6  C   UNL     1      -0.432  10.291  22.723  0.00  0.00    +0.000 A 
ATOM      7  O   UNL     1      -0.345   9.989  23.913  0.00  0.00    +0.000 OA
ATOM      8  C   UNL     1      -1.261  11.430  22.312  0.00  0.00    +0.000 A 
ATOM      9  C   UNL     1      -1.304  11.685  20.999  0.00  0.00    +0.000 A 
ATOM     10  N   UNL     1      -0.628  11.013  19.979  0.00  0.00    +0.000 N 
ATOM     11  C   UNL     1       0.207   9.915  20.310  0.00  0.00    +0.000 A 
ATOM     12  C   UNL     1       0.958   9.140  19.379  0.00  0.00    +0.000 A 
ATOM     13  S   UNL     1       1.103   9.686  17.658  0.00  0.00    +0.000 S 
ATOM     14  O   UNL     1       2.333  10.653  17.591  0.00  0.00    +0.000 OA
ATOM     15  C   UNL     1      -0.407  10.619  17.487  0.00  0.00    +0.000 C 
ATOM     16  C   UNL     1      -0.662  11.596  18.614  0.00  0.00    +0.000 C 
ATOM     17  C   UNL     1       0.199  12.860  18.547  0.00  0.00    +0.000 C 
ENDROOT
BRANCH   1  21
ATOM     18  C   UNL     1       2.120   3.424  17.614  0.00  0.00    +0.000 C 
ATOM     19  C   UNL     1       2.632   4.813  17.853  0.00  0.00    +0.000 A 
ATOM     20  C   UNL     1       1.954   5.675  18.709  0.00  0.00    +0.000 A 
ATOM     21  C   UNL     1       2.372   7.004  18.862  0.00  0.00    +0.000 A 
ATOM     22  C   UNL     1       3.541   7.361  18.167  0.00  0.00    +0.000 A 
ATOM     23  C   UNL     1       4.222   6.424  17.391  0.00  0.00    +0.000 A 
ATOM     24  C   UNL     1       5.533   6.755  16.741  0.00  0.00    +0.000 C 
ATOM     25  N   UNL     1       3.763   5.166  17.208  0.00  0.00    +0.000 NA
ENDBRANCH   1  21
BRANCH   8  26
ATOM     26  C   UNL     1      -2.011  12.289  23.254  0.00  0.00    +0.000 C 
ATOM     27  O   UNL     1      -1.648  13.411  23.568  0.00  0.00    +0.000 OA
BRANCH  26  28
ATOM     28  O   UNL     1      -3.134  11.726  23.750  0.00  0.00    +0.000 OA
ATOM     29  H   UNL     1      -3.032  11.343  24.655  0.00  0.00    +0.000 HD
ENDBRANCH  26  28
ENDBRANCH   8  26
TORSDOF 3
ENDMDL
MODEL 9
REMARK VINA RESULT:      -6.5      5.612      8.761
REMARK  Name = 
REMARK  6 active torsions:
REMARK  status: ('A' for Active; 'I' for Inactive)
REMARK    1  A    between atoms: C_1  and  C_2
REMARK    2  A    between atoms: C_4  and  C_5
REMARK    3  A    between atoms: C_12  and  C_13
REMARK    4  A    between atoms: C_13  and  O_15
REMARK    5  A    between atoms: C_23  and  C_24
REMARK    6  A    between atoms: C_26  and  C_27
REMARK                            x       y       z     vdW  Elec       q    Type
REMARK                         _______ _______ _______ _____ _____    ______ ____
ROOT
ATOM      1  C   UNL     1      -3.683  13.282  21.348  0.00  0.00    +0.000 A 
ATOM      2  C   UNL     1      -2.528  13.299  22.155  0.00  0.00    +0.000 A 
ATOM      3  F   UNL     1      -2.499  13.994  23.303  0.00  0.00    +0.000 F 
ATOM      4  C   UNL     1      -1.368  12.635  21.811  0.00  0.00    +0.000 A 
ATOM      5  C   UNL     1      -1.306  11.960  20.596  0.00  0.00    +0.000 A 
ATOM      6  C   UNL     1      -0.018  11.304  20.271  0.00  0.00    +0.000 A 
ATOM      7  O   UNL     1       0.934  11.325  21.052  0.00  0.00    +0.000 OA
ATOM      8  C   UNL     1       0.107  10.623  18.977  0.00  0.00    +0.000 A 
ATOM      9  C   UNL     1      -0.973  10.655  18.187  0.00  0.00    +0.000 A 
ATOM     10  N   UNL     1      -2.213  11.233  18.464  0.00  0.00    +0.000 N 
ATOM     11  C   UNL     1      -2.407  11.889  19.707  0.00  0.00    +0.000 A 
ATOM     12  C   UNL     1      -3.615  12.519  20.126  0.00  0.00    +0.000 A 
ATOM     13  S   UNL     1      -5.133  12.295  19.163  0.00  0.00    +0.000 S 
ATOM     14  O   UNL     1      -5.822  10.995  19.697  0.00  0.00    +0.000 OA
ATOM     15  C   UNL     1      -4.446  11.993  17.545  0.00  0.00    +0.000 C 
ATOM     16  C   UNL     1      -3.333  10.969  17.526  0.00  0.00    +0.000 C 
ATOM     17  C   UNL     1      -3.818   9.523  17.659  0.00  0.00    +0.000 C 
ENDROOT
BRANCH   1  21
ATOM     18  C   UNL     1      -6.372  17.551  21.370  0.00  0.00    +0.000 C 
ATOM     19  C   UNL     1      -6.135  16.156  21.865  0.00  0.00    +0.000 A 
ATOM     20  C   UNL     1      -5.037  15.428  21.417  0.00  0.00    +0.000 A 
ATOM     21  C   UNL     1      -4.862  14.091  21.801  0.00  0.00    +0.000 A 
ATOM     22  C   UNL     1      -5.810  13.586  22.709  0.00  0.00    +0.000 A 
ATOM     23  C   UNL     1      -6.841  14.396  23.185  0.00  0.00    +0.000 A 
ATOM     24  C   UNL     1      -7.786  13.911  24.243  0.00  0.00    +0.000 C 
ATOM     25  N   UNL     1      -7.025  15.663  22.752  0.00  0.00    +0.000 NA
ENDBRANCH   1  21
BRANCH   8  26
ATOM     26  C   UNL     1       1.326   9.914  18.531  0.00  0.00    +0.000 C 
ATOM     27  O   UNL     1       1.705   8.864  19.024  0.00  0.00    +0.000 OA
BRANCH  26  28
ATOM     28  O   UNL     1       1.996  10.528  17.532  0.00  0.00    +0.000 OA
ATOM     29  H   UNL     1       2.040  11.512  17.617  0.00  0.00    +0.000 HD
ENDBRANCH  26  28
ENDBRANCH   8  26
TORSDOF 3
ENDMDL
