MODEL 1
REMARK VINA RESULT:      -8.6      0.000      0.000
REMARK  Name = 
REMARK  9 active torsions:
REMARK  status: ('A' for Active; 'I' for Inactive)
REMARK    1  A    between atoms: C_1  and  O_2
REMARK    2  A    between atoms: O_2  and  C_3
REMARK    3  A    between atoms: C_6  and  N_7
REMARK    4  A    between atoms: C_8  and  C_10
REMARK    5  A    between atoms: C_12  and  C_13
REMARK    6  A    between atoms: N_18  and  S_19
REMARK    7  A    between atoms: S_19  and  C_22
REMARK    8  A    between atoms: C_25  and  C_26
REMARK    9  A    between atoms: C_32  and  C_33
REMARK                            x       y       z     vdW  Elec       q    Type
REMARK                         _______ _______ _______ _____ _____    ______ ____
ROOT
ATOM      1  C   UNL     1       8.126   8.153  18.263  0.00  0.00    +0.000 A 
ATOM      2  C   UNL     1       7.295   7.592  17.267  0.00  0.00    +0.000 A 
ATOM      3  C   UNL     1       7.295   6.249  17.532  0.00  0.00    +0.000 A 
ATOM      4  O   UNL     1       8.014   6.019  18.668  0.00  0.00    +0.000 OA
ATOM      5  N   UNL     1       8.523   7.221  19.147  0.00  0.00    +0.000 NA
ENDROOT
BRANCH   3   6
ATOM      6  C   UNL     1       6.719   5.077  16.811  0.00  0.00    +0.000 C 
ATOM      7  C   UNL     1       7.285   5.103  15.376  0.00  0.00    +0.000 C 
ATOM      8  C   UNL     1       6.660   4.054  14.479  0.00  0.00    +0.000 C 
ATOM      9  C   UNL     1       5.152   4.235  14.481  0.00  0.00    +0.000 C 
ATOM     10  C   UNL     1       4.595   4.128  15.893  0.00  0.00    +0.000 C 
ATOM     11  N   UNL     1       5.212   5.123  16.837  0.00  0.00    +0.000 NA
BRANCH  11  12
ATOM     12  S   UNL     1       4.522   4.970  18.437  0.00  0.00    +0.000 S 
ATOM     13  O   UNL     1       3.603   3.850  18.408  0.00  0.00    +0.000 OA
ATOM     14  O   UNL     1       5.541   5.040  19.455  0.00  0.00    +0.000 OA
BRANCH  12  15
ATOM     15  C   UNL     1       3.562   6.463  18.632  0.00  0.00    +0.000 A 
ATOM     16  C   UNL     1       3.482   7.380  17.579  0.00  0.00    +0.000 A 
ATOM     17  C   UNL     1       2.598   8.460  17.669  0.00  0.00    +0.000 A 
ATOM     18  C   UNL     1       1.789   8.627  18.802  0.00  0.00    +0.000 A 
ATOM     19  C   UNL     1       1.872   7.697  19.848  0.00  0.00    +0.000 A 
ATOM     20  C   UNL     1       2.753   6.610  19.765  0.00  0.00    +0.000 A 
BRANCH  18  21
ATOM     21  C   UNL     1       0.878   9.731  18.881  0.00  0.00    +0.000 C 
ATOM     22  N   UNL     1       0.144  10.627  18.939  0.00  0.00    +0.000 NA
ENDBRANCH  18  21
ENDBRANCH  12  15
ENDBRANCH  11  12
ENDBRANCH   3   6
BRANCH   1  24
ATOM     23  N   UNL     1       9.532   9.828  19.243  0.00  0.00    +0.000 N 
ATOM     24  C   UNL     1       8.529   9.556  18.326  0.00  0.00    +0.000 C 
ATOM     25  O   UNL     1       7.951  10.383  17.625  0.00  0.00    +0.000 OA
ATOM     26  H   UNL     1       9.790   9.056  19.846  0.00  0.00    +0.000 HD
BRANCH  23  30
ATOM     27  C   UNL     1      11.273  13.638  19.861  0.00  0.00    +0.000 A 
ATOM     28  C   UNL     1      11.625  12.877  18.758  0.00  0.00    +0.000 A 
ATOM     29  C   UNL     1      11.056  11.617  18.575  0.00  0.00    +0.000 A 
ATOM     30  C   UNL     1      10.110  11.097  19.469  0.00  0.00    +0.000 A 
ATOM     31  C   UNL     1       9.761  11.857  20.601  0.00  0.00    +0.000 A 
ATOM     32  C   UNL     1       8.754  11.423  21.632  0.00  0.00    +0.000 C 
ATOM     33  C   UNL     1      10.375  13.113  20.792  0.00  0.00    +0.000 A 
BRANCH  27  35
ATOM     34  C   UNL     1      10.802  15.934  20.089  0.00  0.00    +0.000 C 
ATOM     35  O   UNL     1      11.763  14.883  20.139  0.00  0.00    +0.000 OA
ENDBRANCH  27  35
ENDBRANCH  23  30
ENDBRANCH   1  24
TORSDOF 7
ENDMDL
MODEL 2
REMARK VINA RESULT:      -8.4      0.448      1.218
REMARK  Name = 
REMARK  9 active torsions:
REMARK  status: ('A' for Active; 'I' for Inactive)
REMARK    1  A    between atoms: C_1  and  O_2
REMARK    2  A    between atoms: O_2  and  C_3
REMARK    3  A    between atoms: C_6  and  N_7
REMARK    4  A    between atoms: C_8  and  C_10
REMARK    5  A    between atoms: C_12  and  C_13
REMARK    6  A    between atoms: N_18  and  S_19
REMARK    7  A    between atoms: S_19  and  C_22
REMARK    8  A    between atoms: C_25  and  C_26
REMARK    9  A    between atoms: C_32  and  C_33
REMARK                            x       y       z     vdW  Elec       q    Type
REMARK                         _______ _______ _______ _____ _____    ______ ____
ROOT
ATOM      1  C   UNL     1       8.111   8.156  18.304  0.00  0.00    +0.000 A 
ATOM      2  C   UNL     1       7.284   7.614  17.294  0.00  0.00    +0.000 A 
ATOM      3  C   UNL     1       7.354   6.260  17.479  0.00  0.00    +0.000 A 
ATOM      4  O   UNL     1       8.110   5.999  18.584  0.00  0.00    +0.000 OA
ATOM      5  N   UNL     1       8.573   7.194  19.122  0.00  0.00    +0.000 NA
ENDROOT
BRANCH   3   6
ATOM      6  C   UNL     1       6.817   5.105  16.702  0.00  0.00    +0.000 C 
ATOM      7  C   UNL     1       7.389   5.213  15.273  0.00  0.00    +0.000 C 
ATOM      8  C   UNL     1       6.800   4.188  14.325  0.00  0.00    +0.000 C 
ATOM      9  C   UNL     1       5.287   4.323  14.326  0.00  0.00    +0.000 C 
ATOM     10  C   UNL     1       4.727   4.135  15.729  0.00  0.00    +0.000 C 
ATOM     11  N   UNL     1       5.310   5.105  16.720  0.00  0.00    +0.000 NA
BRANCH  11  12
ATOM     12  S   UNL     1       4.616   4.858  18.308  0.00  0.00    +0.000 S 
ATOM     13  O   UNL     1       3.699   3.740  18.212  0.00  0.00    +0.000 OA
ATOM     14  O   UNL     1       5.634   4.870  19.330  0.00  0.00    +0.000 OA
BRANCH  12  15
ATOM     15  C   UNL     1       3.654   6.336  18.587  0.00  0.00    +0.000 A 
ATOM     16  C   UNL     1       3.560   7.304  17.582  0.00  0.00    +0.000 A 
ATOM     17  C   UNL     1       2.674   8.375  17.736  0.00  0.00    +0.000 A 
ATOM     18  C   UNL     1       1.877   8.482  18.884  0.00  0.00    +0.000 A 
ATOM     19  C   UNL     1       1.973   7.502  19.881  0.00  0.00    +0.000 A 
ATOM     20  C   UNL     1       2.857   6.424  19.734  0.00  0.00    +0.000 A 
BRANCH  18  21
ATOM     21  C   UNL     1       0.963   9.578  19.028  0.00  0.00    +0.000 C 
ATOM     22  N   UNL     1       0.228  10.467  19.149  0.00  0.00    +0.000 NA
ENDBRANCH  18  21
ENDBRANCH  12  15
ENDBRANCH  11  12
ENDBRANCH   3   6
BRANCH   1  24
ATOM     23  N   UNL     1       9.238   9.871  19.540  0.00  0.00    +0.000 N 
ATOM     24  C   UNL     1       8.449   9.570  18.441  0.00  0.00    +0.000 C 
ATOM     25  O   UNL     1       7.997  10.381  17.636  0.00  0.00    +0.000 OA
ATOM     26  H   UNL     1       9.395   9.107  20.185  0.00  0.00    +0.000 HD
BRANCH  23  30
ATOM     27  C   UNL     1      10.662  13.718  20.593  0.00  0.00    +0.000 A 
ATOM     28  C   UNL     1       9.641  13.125  21.319  0.00  0.00    +0.000 A 
ATOM     29  C   UNL     1       9.171  11.865  20.952  0.00  0.00    +0.000 A 
ATOM     30  C   UNL     1       9.719  11.158  19.873  0.00  0.00    +0.000 A 
ATOM     31  C   UNL     1      10.744  11.761  19.120  0.00  0.00    +0.000 A 
ATOM     32  C   UNL     1      11.425  11.110  17.947  0.00  0.00    +0.000 C 
ATOM     33  C   UNL     1      11.181  13.053  19.482  0.00  0.00    +0.000 A 
BRANCH  27  35
ATOM     34  C   UNL     1      11.812  15.592  19.750  0.00  0.00    +0.000 C 
ATOM     35  O   UNL     1      11.202  14.944  20.863  0.00  0.00    +0.000 OA
ENDBRANCH  27  35
ENDBRANCH  23  30
ENDBRANCH   1  24
TORSDOF 7
ENDMDL
MODEL 3
REMARK VINA RESULT:      -7.8      5.191      7.554
REMARK  Name = 
REMARK  9 active torsions:
REMARK  status: ('A' for Active; 'I' for Inactive)
REMARK    1  A    between atoms: C_1  and  O_2
REMARK    2  A    between atoms: O_2  and  C_3
REMARK    3  A    between atoms: C_6  and  N_7
REMARK    4  A    between atoms: C_8  and  C_10
REMARK    5  A    between atoms: C_12  and  C_13
REMARK    6  A    between atoms: N_18  and  S_19
REMARK    7  A    between atoms: S_19  and  C_22
REMARK    8  A    between atoms: C_25  and  C_26
REMARK    9  A    between atoms: C_32  and  C_33
REMARK                            x       y       z     vdW  Elec       q    Type
REMARK                         _______ _______ _______ _____ _____    ______ ____
ROOT
ATOM      1  C   UNL     1       1.913   8.179  18.932  0.00  0.00    +0.000 A 
ATOM      2  C   UNL     1       2.176   7.085  18.077  0.00  0.00    +0.000 A 
ATOM      3  C   UNL     1       2.373   6.025  18.921  0.00  0.00    +0.000 A 
ATOM      4  O   UNL     1       2.159   6.433  20.205  0.00  0.00    +0.000 OA
ATOM      5  N   UNL     1       1.846   7.787  20.216  0.00  0.00    +0.000 NA
ENDROOT
BRANCH   3   6
ATOM      6  C   UNL     1       2.796   4.614  18.689  0.00  0.00    +0.000 C 
ATOM      7  C   UNL     1       1.602   3.713  19.065  0.00  0.00    +0.000 C 
ATOM      8  C   UNL     1       1.943   2.237  19.027  0.00  0.00    +0.000 C 
ATOM      9  C   UNL     1       3.134   1.980  19.933  0.00  0.00    +0.000 C 
ATOM     10  C   UNL     1       4.332   2.815  19.503  0.00  0.00    +0.000 C 
ATOM     11  N   UNL     1       4.034   4.290  19.485  0.00  0.00    +0.000 NA
BRANCH  11  12
ATOM     12  S   UNL     1       5.449   5.201  19.005  0.00  0.00    +0.000 S 
ATOM     13  O   UNL     1       5.069   6.599  18.958  0.00  0.00    +0.000 OA
ATOM     14  O   UNL     1       6.611   4.795  19.756  0.00  0.00    +0.000 OA
BRANCH  12  15
ATOM     15  C   UNL     1       5.757   4.659  17.332  0.00  0.00    +0.000 A 
ATOM     16  C   UNL     1       4.683   4.419  16.470  0.00  0.00    +0.000 A 
ATOM     17  C   UNL     1       4.927   4.160  15.118  0.00  0.00    +0.000 A 
ATOM     18  C   UNL     1       6.238   4.145  14.620  0.00  0.00    +0.000 A 
ATOM     19  C   UNL     1       7.307   4.395  15.492  0.00  0.00    +0.000 A 
ATOM     20  C   UNL     1       7.071   4.658  16.848  0.00  0.00    +0.000 A 
BRANCH  18  21
ATOM     21  C   UNL     1       6.478   3.890  13.230  0.00  0.00    +0.000 C 
ATOM     22  N   UNL     1       6.675   3.691  12.104  0.00  0.00    +0.000 NA
ENDBRANCH  18  21
ENDBRANCH  12  15
ENDBRANCH  11  12
ENDBRANCH   3   6
BRANCH   1  24
ATOM     23  N   UNL     1       1.074  10.376  19.391  0.00  0.00    +0.000 N 
ATOM     24  C   UNL     1       1.753   9.563  18.496  0.00  0.00    +0.000 C 
ATOM     25  O   UNL     1       2.172   9.902  17.391  0.00  0.00    +0.000 OA
ATOM     26  H   UNL     1       0.665   9.900  20.185  0.00  0.00    +0.000 HD
BRANCH  23  30
ATOM     27  C   UNL     1       0.367  14.516  18.847  0.00  0.00    +0.000 A 
ATOM     28  C   UNL     1       1.562  14.074  19.393  0.00  0.00    +0.000 A 
ATOM     29  C   UNL     1       1.775  12.709  19.581  0.00  0.00    +0.000 A 
ATOM     30  C   UNL     1       0.819  11.754  19.211  0.00  0.00    +0.000 A 
ATOM     31  C   UNL     1      -0.404  12.196  18.672  0.00  0.00    +0.000 A 
ATOM     32  C   UNL     1      -1.510  11.279  18.225  0.00  0.00    +0.000 C 
ATOM     33  C   UNL     1      -0.619  13.583  18.524  0.00  0.00    +0.000 A 
BRANCH  27  35
ATOM     34  C   UNL     1       0.821  16.771  19.352  0.00  0.00    +0.000 C 
ATOM     35  O   UNL     1       0.051  15.825  18.615  0.00  0.00    +0.000 OA
ENDBRANCH  27  35
ENDBRANCH  23  30
ENDBRANCH   1  24
TORSDOF 7
ENDMDL
MODEL 4
REMARK VINA RESULT:      -7.8      5.297      8.416
REMARK  Name = 
REMARK  9 active torsions:
REMARK  status: ('A' for Active; 'I' for Inactive)
REMARK    1  A    between atoms: C_1  and  O_2
REMARK    2  A    between atoms: O_2  and  C_3
REMARK    3  A    between atoms: C_6  and  N_7
REMARK    4  A    between atoms: C_8  and  C_10
REMARK    5  A    between atoms: C_12  and  C_13
REMARK    6  A    between atoms: N_18  and  S_19
REMARK    7  A    between atoms: S_19  and  C_22
REMARK    8  A    between atoms: C_25  and  C_26
REMARK    9  A    between atoms: C_32  and  C_33
REMARK                            x       y       z     vdW  Elec       q    Type
REMARK                         _______ _______ _______ _____ _____    ______ ____
ROOT
ATOM      1  C   UNL     1       1.954   8.538  18.674  0.00  0.00    +0.000 A 
ATOM      2  C   UNL     1       2.072   7.293  19.332  0.00  0.00    +0.000 A 
ATOM      3  C   UNL     1       2.627   6.460  18.398  0.00  0.00    +0.000 A 
ATOM      4  O   UNL     1       2.905   7.176  17.271  0.00  0.00    +0.000 OA
ATOM      5  N   UNL     1       2.503   8.494  17.448  0.00  0.00    +0.000 NA
ENDROOT
BRANCH   3   6
ATOM      6  C   UNL     1       2.914   4.996  18.394  0.00  0.00    +0.000 C 
ATOM      7  C   UNL     1       1.603   4.274  18.767  0.00  0.00    +0.000 C 
ATOM      8  C   UNL     1       1.786   2.781  18.955  0.00  0.00    +0.000 C 
ATOM      9  C   UNL     1       2.863   2.543  19.999  0.00  0.00    +0.000 C 
ATOM     10  C   UNL     1       4.176   3.192  19.583  0.00  0.00    +0.000 C 
ATOM     11  N   UNL     1       4.040   4.671  19.343  0.00  0.00    +0.000 NA
BRANCH  11  12
ATOM     12  S   UNL     1       5.579   5.368  18.889  0.00  0.00    +0.000 S 
ATOM     13  O   UNL     1       5.395   6.803  18.797  0.00  0.00    +0.000 OA
ATOM     14  O   UNL     1       6.653   4.829  19.686  0.00  0.00    +0.000 OA
BRANCH  12  15
ATOM     15  C   UNL     1       5.859   4.743  17.240  0.00  0.00    +0.000 A 
ATOM     16  C   UNL     1       4.846   4.040  16.582  0.00  0.00    +0.000 A 
ATOM     17  C   UNL     1       5.004   3.699  15.235  0.00  0.00    +0.000 A 
ATOM     18  C   UNL     1       6.166   4.063  14.539  0.00  0.00    +0.000 A 
ATOM     19  C   UNL     1       7.172   4.775  15.206  0.00  0.00    +0.000 A 
ATOM     20  C   UNL     1       7.021   5.122  16.556  0.00  0.00    +0.000 A 
BRANCH  18  21
ATOM     21  C   UNL     1       6.314   3.720  13.155  0.00  0.00    +0.000 C 
ATOM     22  N   UNL     1       6.427   3.444  12.034  0.00  0.00    +0.000 NA
ENDBRANCH  18  21
ENDBRANCH  12  15
ENDBRANCH  11  12
ENDBRANCH   3   6
BRANCH   1  24
ATOM     23  N   UNL     1       0.260   9.450  20.103  0.00  0.00    +0.000 N 
ATOM     24  C   UNL     1       1.303   9.721  19.231  0.00  0.00    +0.000 C 
ATOM     25  O   UNL     1       1.671  10.839  18.875  0.00  0.00    +0.000 OA
ATOM     26  H   UNL     1      -0.010   8.476  20.167  0.00  0.00    +0.000 HD
BRANCH  23  30
ATOM     27  C   UNL     1      -2.067  12.361  22.113  0.00  0.00    +0.000 A 
ATOM     28  C   UNL     1      -2.019  12.335  20.729  0.00  0.00    +0.000 A 
ATOM     29  C   UNL     1      -1.236  11.382  20.079  0.00  0.00    +0.000 A 
ATOM     30  C   UNL     1      -0.504  10.420  20.790  0.00  0.00    +0.000 A 
ATOM     31  C   UNL     1      -0.533  10.451  22.196  0.00  0.00    +0.000 A 
ATOM     32  C   UNL     1       0.196   9.474  23.078  0.00  0.00    +0.000 C 
ATOM     33  C   UNL     1      -1.300  11.447  22.837  0.00  0.00    +0.000 A 
BRANCH  27  35
ATOM     34  C   UNL     1      -4.213  13.103  22.737  0.00  0.00    +0.000 C 
ATOM     35  O   UNL     1      -2.800  13.246  22.853  0.00  0.00    +0.000 OA
ENDBRANCH  27  35
ENDBRANCH  23  30
ENDBRANCH   1  24
TORSDOF 7
ENDMDL
MODEL 5
REMARK VINA RESULT:      -7.6      5.204      8.047
REMARK  Name = 
REMARK  9 active torsions:
REMARK  status: ('A' for Active; 'I' for Inactive)
REMARK    1  A    between atoms: C_1  and  O_2
REMARK    2  A    between atoms: O_2  and  C_3
REMARK    3  A    between atoms: C_6  and  N_7
REMARK    4  A    between atoms: C_8  and  C_10
REMARK    5  A    between atoms: C_12  and  C_13
REMARK    6  A    between atoms: N_18  and  S_19
REMARK    7  A    between atoms: S_19  and  C_22
REMARK    8  A    between atoms: C_25  and  C_26
REMARK    9  A    between atoms: C_32  and  C_33
REMARK                            x       y       z     vdW  Elec       q    Type
REMARK                         _______ _______ _______ _____ _____    ______ ____
ROOT
ATOM      1  C   UNL     1       1.742   8.072  19.916  0.00  0.00    +0.000 A 
ATOM      2  C   UNL     1       2.110   6.731  20.168  0.00  0.00    +0.000 A 
ATOM      3  C   UNL     1       2.370   6.206  18.931  0.00  0.00    +0.000 A 
ATOM      4  O   UNL     1       2.248   7.189  17.995  0.00  0.00    +0.000 OA
ATOM      5  N   UNL     1       1.873   8.376  18.614  0.00  0.00    +0.000 NA
ENDROOT
BRANCH   3   6
ATOM      6  C   UNL     1       2.695   4.825  18.468  0.00  0.00    +0.000 C 
ATOM      7  C   UNL     1       1.439   3.961  18.695  0.00  0.00    +0.000 C 
ATOM      8  C   UNL     1       1.677   2.491  18.414  0.00  0.00    +0.000 C 
ATOM      9  C   UNL     1       2.841   2.006  19.261  0.00  0.00    +0.000 C 
ATOM     10  C   UNL     1       4.097   2.815  18.970  0.00  0.00    +0.000 C 
ATOM     11  N   UNL     1       3.902   4.290  19.196  0.00  0.00    +0.000 NA
BRANCH  11  12
ATOM     12  S   UNL     1       5.380   5.167  18.867  0.00  0.00    +0.000 S 
ATOM     13  O   UNL     1       5.059   6.580  18.885  0.00  0.00    +0.000 OA
ATOM     14  O   UNL     1       6.473   4.666  19.664  0.00  0.00    +0.000 OA
BRANCH  12  15
ATOM     15  C   UNL     1       5.779   4.715  17.186  0.00  0.00    +0.000 A 
ATOM     16  C   UNL     1       4.758   4.590  16.240  0.00  0.00    +0.000 A 
ATOM     17  C   UNL     1       5.084   4.403  14.893  0.00  0.00    +0.000 A 
ATOM     18  C   UNL     1       6.424   4.347  14.485  0.00  0.00    +0.000 A 
ATOM     19  C   UNL     1       7.440   4.481  15.442  0.00  0.00    +0.000 A 
ATOM     20  C   UNL     1       7.122   4.671  16.793  0.00  0.00    +0.000 A 
BRANCH  18  21
ATOM     21  C   UNL     1       6.749   4.167  13.100  0.00  0.00    +0.000 C 
ATOM     22  N   UNL     1       7.014   4.013  11.981  0.00  0.00    +0.000 NA
ENDBRANCH  18  21
ENDBRANCH  12  15
ENDBRANCH  11  12
ENDBRANCH   3   6
BRANCH   1  24
ATOM     23  N   UNL     1       0.766  10.203  20.415  0.00  0.00    +0.000 N 
ATOM     24  C   UNL     1       1.258   9.011  20.925  0.00  0.00    +0.000 C 
ATOM     25  O   UNL     1       1.353   8.723  22.116  0.00  0.00    +0.000 OA
ATOM     26  H   UNL     1       0.902  10.339  19.422  0.00  0.00    +0.000 HD
BRANCH  23  30
ATOM     27  C   UNL     1      -0.892  13.317  22.758  0.00  0.00    +0.000 A 
ATOM     28  C   UNL     1      -1.370  12.022  22.874  0.00  0.00    +0.000 A 
ATOM     29  C   UNL     1      -0.826  11.008  22.085  0.00  0.00    +0.000 A 
ATOM     30  C   UNL     1       0.218  11.255  21.183  0.00  0.00    +0.000 A 
ATOM     31  C   UNL     1       0.697  12.571  21.047  0.00  0.00    +0.000 A 
ATOM     32  C   UNL     1       1.817  12.972  20.125  0.00  0.00    +0.000 C 
ATOM     33  C   UNL     1       0.109  13.592  21.825  0.00  0.00    +0.000 A 
BRANCH  27  35
ATOM     34  C   UNL     1      -2.093  15.343  22.734  0.00  0.00    +0.000 C 
ATOM     35  O   UNL     1      -1.346  14.385  23.480  0.00  0.00    +0.000 OA
ENDBRANCH  27  35
ENDBRANCH  23  30
ENDBRANCH   1  24
TORSDOF 7
ENDMDL
MODEL 6
REMARK VINA RESULT:      -7.5      5.254      7.905
REMARK  Name = 
REMARK  9 active torsions:
REMARK  status: ('A' for Active; 'I' for Inactive)
REMARK    1  A    between atoms: C_1  and  O_2
REMARK    2  A    between atoms: O_2  and  C_3
REMARK    3  A    between atoms: C_6  and  N_7
REMARK    4  A    between atoms: C_8  and  C_10
REMARK    5  A    between atoms: C_12  and  C_13
REMARK    6  A    between atoms: N_18  and  S_19
REMARK    7  A    between atoms: S_19  and  C_22
REMARK    8  A    between atoms: C_25  and  C_26
REMARK    9  A    between atoms: C_32  and  C_33
REMARK                            x       y       z     vdW  Elec       q    Type
REMARK                         _______ _______ _______ _____ _____    ______ ____
ROOT
ATOM      1  C   UNL     1       1.966   8.425  18.534  0.00  0.00    +0.000 A 
ATOM      2  C   UNL     1       2.033   7.169  19.180  0.00  0.00    +0.000 A 
ATOM      3  C   UNL     1       2.706   6.364  18.301  0.00  0.00    +0.000 A 
ATOM      4  O   UNL     1       3.096   7.106  17.225  0.00  0.00    +0.000 OA
ATOM      5  N   UNL     1       2.650   8.414  17.377  0.00  0.00    +0.000 NA
ENDROOT
BRANCH   3   6
ATOM      6  C   UNL     1       3.021   4.905  18.304  0.00  0.00    +0.000 C 
ATOM      7  C   UNL     1       1.723   4.161  18.678  0.00  0.00    +0.000 C 
ATOM      8  C   UNL     1       1.934   2.673  18.874  0.00  0.00    +0.000 C 
ATOM      9  C   UNL     1       3.014   2.459  19.920  0.00  0.00    +0.000 C 
ATOM     10  C   UNL     1       4.314   3.131  19.503  0.00  0.00    +0.000 C 
ATOM     11  N   UNL     1       4.151   4.606  19.256  0.00  0.00    +0.000 NA
BRANCH  11  12
ATOM     12  S   UNL     1       5.678   5.330  18.800  0.00  0.00    +0.000 S 
ATOM     13  O   UNL     1       5.473   6.763  18.725  0.00  0.00    +0.000 OA
ATOM     14  O   UNL     1       6.764   4.796  19.585  0.00  0.00    +0.000 OA
BRANCH  12  15
ATOM     15  C   UNL     1       5.956   4.727  17.142  0.00  0.00    +0.000 A 
ATOM     16  C   UNL     1       4.946   4.024  16.480  0.00  0.00    +0.000 A 
ATOM     17  C   UNL     1       5.101   3.701  15.128  0.00  0.00    +0.000 A 
ATOM     18  C   UNL     1       6.257   4.082  14.432  0.00  0.00    +0.000 A 
ATOM     19  C   UNL     1       7.261   4.794  15.105  0.00  0.00    +0.000 A 
ATOM     20  C   UNL     1       7.112   5.124  16.458  0.00  0.00    +0.000 A 
BRANCH  18  21
ATOM     21  C   UNL     1       6.403   3.757  13.043  0.00  0.00    +0.000 C 
ATOM     22  N   UNL     1       6.529   3.493  11.921  0.00  0.00    +0.000 NA
ENDBRANCH  18  21
ENDBRANCH  12  15
ENDBRANCH  11  12
ENDBRANCH   3   6
BRANCH   1  24
ATOM     23  N   UNL     1       1.179   9.682  20.416  0.00  0.00    +0.000 N 
ATOM     24  C   UNL     1       1.233   9.585  19.034  0.00  0.00    +0.000 C 
ATOM     25  O   UNL     1       0.693  10.349  18.237  0.00  0.00    +0.000 OA
ATOM     26  H   UNL     1       1.547   8.886  20.922  0.00  0.00    +0.000 HD
BRANCH  23  30
ATOM     27  C   UNL     1      -0.686  12.842  22.530  0.00  0.00    +0.000 A 
ATOM     28  C   UNL     1       0.179  13.114  21.483  0.00  0.00    +0.000 A 
ATOM     29  C   UNL     1       0.799  12.065  20.806  0.00  0.00    +0.000 A 
ATOM     30  C   UNL     1       0.555  10.725  21.137  0.00  0.00    +0.000 A 
ATOM     31  C   UNL     1      -0.309  10.441  22.211  0.00  0.00    +0.000 A 
ATOM     32  C   UNL     1      -0.665   9.051  22.664  0.00  0.00    +0.000 C 
ATOM     33  C   UNL     1      -0.898  11.516  22.911  0.00  0.00    +0.000 A 
BRANCH  27  35
ATOM     34  C   UNL     1      -0.889  15.123  23.079  0.00  0.00    +0.000 C 
ATOM     35  O   UNL     1      -1.350  13.787  23.261  0.00  0.00    +0.000 OA
ENDBRANCH  27  35
ENDBRANCH  23  30
ENDBRANCH   1  24
TORSDOF 7
ENDMDL
MODEL 7
REMARK VINA RESULT:      -7.4      1.568      1.875
REMARK  Name = 
REMARK  9 active torsions:
REMARK  status: ('A' for Active; 'I' for Inactive)
REMARK    1  A    between atoms: C_1  and  O_2
REMARK    2  A    between atoms: O_2  and  C_3
REMARK    3  A    between atoms: C_6  and  N_7
REMARK    4  A    between atoms: C_8  and  C_10
REMARK    5  A    between atoms: C_12  and  C_13
REMARK    6  A    between atoms: N_18  and  S_19
REMARK    7  A    between atoms: S_19  and  C_22
REMARK    8  A    between atoms: C_25  and  C_26
REMARK    9  A    between atoms: C_32  and  C_33
REMARK                            x       y       z     vdW  Elec       q    Type
REMARK                         _______ _______ _______ _____ _____    ______ ____
ROOT
ATOM      1  C   UNL     1       8.234   8.114  18.514  0.00  0.00    +0.000 A 
ATOM      2  C   UNL     1       7.448   7.676  17.424  0.00  0.00    +0.000 A 
ATOM      3  C   UNL     1       7.440   6.311  17.530  0.00  0.00    +0.000 A 
ATOM      4  O   UNL     1       8.110   5.948  18.661  0.00  0.00    +0.000 OA
ATOM      5  N   UNL     1       8.594   7.084  19.298  0.00  0.00    +0.000 NA
ENDROOT
BRANCH   3   6
ATOM      6  C   UNL     1       6.899   5.233  16.652  0.00  0.00    +0.000 C 
ATOM      7  C   UNL     1       7.502   5.443  15.249  0.00  0.00    +0.000 C 
ATOM      8  C   UNL     1       6.915   4.508  14.210  0.00  0.00    +0.000 C 
ATOM      9  C   UNL     1       5.406   4.673  14.192  0.00  0.00    +0.000 C 
ATOM     10  C   UNL     1       4.812   4.386  15.563  0.00  0.00    +0.000 C 
ATOM     11  N   UNL     1       5.391   5.262  16.641  0.00  0.00    +0.000 NA
BRANCH  11  12
ATOM     12  S   UNL     1       4.660   4.904  18.189  0.00  0.00    +0.000 S 
ATOM     13  O   UNL     1       3.753   3.790  17.994  0.00  0.00    +0.000 OA
ATOM     14  O   UNL     1       5.651   4.851  19.236  0.00  0.00    +0.000 OA
BRANCH  12  15
ATOM     15  C   UNL     1       3.680   6.354  18.543  0.00  0.00    +0.000 A 
ATOM     16  C   UNL     1       3.560   7.363  17.583  0.00  0.00    +0.000 A 
ATOM     17  C   UNL     1       2.662   8.414  17.793  0.00  0.00    +0.000 A 
ATOM     18  C   UNL     1       1.877   8.459  18.954  0.00  0.00    +0.000 A 
ATOM     19  C   UNL     1       1.999   7.438  19.907  0.00  0.00    +0.000 A 
ATOM     20  C   UNL     1       2.896   6.380  19.703  0.00  0.00    +0.000 A 
BRANCH  18  21
ATOM     21  C   UNL     1       0.949   9.534  19.156  0.00  0.00    +0.000 C 
ATOM     22  N   UNL     1       0.193  10.399  19.319  0.00  0.00    +0.000 NA
ENDBRANCH  18  21
ENDBRANCH  12  15
ENDBRANCH  11  12
ENDBRANCH   3   6
BRANCH   1  24
ATOM     23  N   UNL     1       8.460  10.347  17.674  0.00  0.00    +0.000 N 
ATOM     24  C   UNL     1       8.631   9.499  18.757  0.00  0.00    +0.000 C 
ATOM     25  O   UNL     1       9.114   9.808  19.844  0.00  0.00    +0.000 OA
ATOM     26  H   UNL     1       8.192   9.897  16.807  0.00  0.00    +0.000 HD
BRANCH  23  30
ATOM     27  C   UNL     1       9.254  14.507  17.680  0.00  0.00    +0.000 A 
ATOM     28  C   UNL     1       7.950  14.042  17.613  0.00  0.00    +0.000 A 
ATOM     29  C   UNL     1       7.703  12.670  17.595  0.00  0.00    +0.000 A 
ATOM     30  C   UNL     1       8.743  11.732  17.668  0.00  0.00    +0.000 A 
ATOM     31  C   UNL     1      10.070  12.195  17.719  0.00  0.00    +0.000 A 
ATOM     32  C   UNL     1      11.275  11.300  17.809  0.00  0.00    +0.000 C 
ATOM     33  C   UNL     1      10.304  13.587  17.696  0.00  0.00    +0.000 A 
BRANCH  27  35
ATOM     34  C   UNL     1      10.623  16.194  16.771  0.00  0.00    +0.000 C 
ATOM     35  O   UNL     1       9.613  15.825  17.706  0.00  0.00    +0.000 OA
ENDBRANCH  27  35
ENDBRANCH  23  30
ENDBRANCH   1  24
TORSDOF 7
ENDMDL
MODEL 8
REMARK VINA RESULT:      -7.4      1.113      1.616
REMARK  Name = 
REMARK  9 active torsions:
REMARK  status: ('A' for Active; 'I' for Inactive)
REMARK    1  A    between atoms: C_1  and  O_2
REMARK    2  A    between atoms: O_2  and  C_3
REMARK    3  A    between atoms: C_6  and  N_7
REMARK    4  A    between atoms: C_8  and  C_10
REMARK    5  A    between atoms: C_12  and  C_13
REMARK    6  A    between atoms: N_18  and  S_19
REMARK    7  A    between atoms: S_19  and  C_22
REMARK    8  A    between atoms: C_25  and  C_26
REMARK    9  A    between atoms: C_32  and  C_33
REMARK                            x       y       z     vdW  Elec       q    Type
REMARK                         _______ _______ _______ _____ _____    ______ ____
ROOT
ATOM      1  C   UNL     1       7.987   8.705  17.974  0.00  0.00    +0.000 A 
ATOM      2  C   UNL     1       7.129   7.949  17.143  0.00  0.00    +0.000 A 
ATOM      3  C   UNL     1       7.357   6.648  17.502  0.00  0.00    +0.000 A 
ATOM      4  O   UNL     1       8.237   6.621  18.544  0.00  0.00    +0.000 OA
ATOM      5  N   UNL     1       8.621   7.919  18.861  0.00  0.00    +0.000 NA
ENDROOT
BRANCH   3   6
ATOM      6  C   UNL     1       6.873   5.348  16.952  0.00  0.00    +0.000 C 
ATOM      7  C   UNL     1       7.346   5.270  15.487  0.00  0.00    +0.000 C 
ATOM      8  C   UNL     1       6.790   4.066  14.752  0.00  0.00    +0.000 C 
ATOM      9  C   UNL     1       5.274   4.089  14.842  0.00  0.00    +0.000 C 
ATOM     10  C   UNL     1       4.816   4.086  16.294  0.00  0.00    +0.000 C 
ATOM     11  N   UNL     1       5.374   5.241  17.080  0.00  0.00    +0.000 NA
BRANCH  11  12
ATOM     12  S   UNL     1       4.801   5.200  18.732  0.00  0.00    +0.000 S 
ATOM     13  O   UNL     1       4.179   3.908  18.943  0.00  0.00    +0.000 OA
ATOM     14  O   UNL     1       5.810   5.672  19.648  0.00  0.00    +0.000 OA
BRANCH  12  15
ATOM     15  C   UNL     1       3.517   6.441  18.769  0.00  0.00    +0.000 A 
ATOM     16  C   UNL     1       2.723   6.585  19.910  0.00  0.00    +0.000 A 
ATOM     17  C   UNL     1       1.836   7.662  20.002  0.00  0.00    +0.000 A 
ATOM     18  C   UNL     1       1.742   8.600  18.964  0.00  0.00    +0.000 A 
ATOM     19  C   UNL     1       2.549   8.450  17.827  0.00  0.00    +0.000 A 
ATOM     20  C   UNL     1       3.442   7.374  17.728  0.00  0.00    +0.000 A 
BRANCH  18  21
ATOM     21  C   UNL     1       0.838   9.708  19.072  0.00  0.00    +0.000 C 
ATOM     22  N   UNL     1       0.103  10.600  19.166  0.00  0.00    +0.000 NA
ENDBRANCH  18  21
ENDBRANCH  12  15
ENDBRANCH  11  12
ENDBRANCH   3   6
BRANCH   1  24
ATOM     23  N   UNL     1       9.397  10.598  18.382  0.00  0.00    +0.000 N 
ATOM     24  C   UNL     1       8.186  10.149  17.879  0.00  0.00    +0.000 C 
ATOM     25  O   UNL     1       7.291  10.855  17.421  0.00  0.00    +0.000 OA
ATOM     26  H   UNL     1       9.954   9.901  18.861  0.00  0.00    +0.000 HD
BRANCH  23  30
ATOM     27  C   UNL     1      10.652  14.643  18.378  0.00  0.00    +0.000 A 
ATOM     28  C   UNL     1       9.391  14.299  17.918  0.00  0.00    +0.000 A 
ATOM     29  C   UNL     1       8.996  12.962  17.910  0.00  0.00    +0.000 A 
ATOM     30  C   UNL     1       9.835  11.942  18.380  0.00  0.00    +0.000 A 
ATOM     31  C   UNL     1      11.124  12.280  18.833  0.00  0.00    +0.000 A 
ATOM     32  C   UNL     1      12.118  11.288  19.371  0.00  0.00    +0.000 C 
ATOM     33  C   UNL     1      11.521  13.634  18.798  0.00  0.00    +0.000 A 
BRANCH  27  35
ATOM     34  C   UNL     1      10.480  16.856  17.593  0.00  0.00    +0.000 C 
ATOM     35  O   UNL     1      11.143  15.917  18.435  0.00  0.00    +0.000 OA
ENDBRANCH  27  35
ENDBRANCH  23  30
ENDBRANCH   1  24
TORSDOF 7
ENDMDL
MODEL 9
REMARK VINA RESULT:      -7.4      5.263      8.290
REMARK  Name = 
REMARK  9 active torsions:
REMARK  status: ('A' for Active; 'I' for Inactive)
REMARK    1  A    between atoms: C_1  and  O_2
REMARK    2  A    between atoms: O_2  and  C_3
REMARK    3  A    between atoms: C_6  and  N_7
REMARK    4  A    between atoms: C_8  and  C_10
REMARK    5  A    between atoms: C_12  and  C_13
REMARK    6  A    between atoms: N_18  and  S_19
REMARK    7  A    between atoms: S_19  and  C_22
REMARK    8  A    between atoms: C_25  and  C_26
REMARK    9  A    between atoms: C_32  and  C_33
REMARK                            x       y       z     vdW  Elec       q    Type
REMARK                         _______ _______ _______ _____ _____    ______ ____
ROOT
ATOM      1  C   UNL     1       2.183   8.600  18.351  0.00  0.00    +0.000 A 
ATOM      2  C   UNL     1       2.205   7.376  19.057  0.00  0.00    +0.000 A 
ATOM      3  C   UNL     1       2.833   6.500  18.212  0.00  0.00    +0.000 A 
ATOM      4  O   UNL     1       3.240   7.171  17.097  0.00  0.00    +0.000 OA
ATOM      5  N   UNL     1       2.852   8.503  17.189  0.00  0.00    +0.000 NA
ENDROOT
BRANCH   3   6
ATOM      6  C   UNL     1       3.085   5.032  18.285  0.00  0.00    +0.000 C 
ATOM      7  C   UNL     1       1.759   4.362  18.699  0.00  0.00    +0.000 C 
ATOM      8  C   UNL     1       1.908   2.877  18.965  0.00  0.00    +0.000 C 
ATOM      9  C   UNL     1       2.983   2.668  20.017  0.00  0.00    +0.000 C 
ATOM     10  C   UNL     1       4.309   3.264  19.564  0.00  0.00    +0.000 C 
ATOM     11  N   UNL     1       4.207   4.731  19.247  0.00  0.00    +0.000 NA
BRANCH  11  12
ATOM     12  S   UNL     1       5.760   5.367  18.752  0.00  0.00    +0.000 S 
ATOM     13  O   UNL     1       5.630   6.807  18.658  0.00  0.00    +0.000 OA
ATOM     14  O   UNL     1       6.832   4.789  19.526  0.00  0.00    +0.000 OA
BRANCH  12  15
ATOM     15  C   UNL     1       5.976   4.725  17.100  0.00  0.00    +0.000 A 
ATOM     16  C   UNL     1       4.968   3.950  16.518  0.00  0.00    +0.000 A 
ATOM     17  C   UNL     1       5.064   3.592  15.170  0.00  0.00    +0.000 A 
ATOM     18  C   UNL     1       6.157   4.008  14.397  0.00  0.00    +0.000 A 
ATOM     19  C   UNL     1       7.158   4.791  14.989  0.00  0.00    +0.000 A 
ATOM     20  C   UNL     1       7.069   5.157  16.338  0.00  0.00    +0.000 A 
BRANCH  18  21
ATOM     21  C   UNL     1       6.241   3.646  13.012  0.00  0.00    +0.000 C 
ATOM     22  N   UNL     1       6.312   3.360  11.890  0.00  0.00    +0.000 NA
ENDBRANCH  18  21
ENDBRANCH  12  15
ENDBRANCH  11  12
ENDBRANCH   3   6
BRANCH   1  24
ATOM     23  N   UNL     1       0.490   9.602  19.719  0.00  0.00    +0.000 N 
ATOM     24  C   UNL     1       1.506   9.814  18.800  0.00  0.00    +0.000 C 
ATOM     25  O   UNL     1       1.831  10.899  18.324  0.00  0.00    +0.000 OA
ATOM     26  H   UNL     1       0.253   8.632  19.889  0.00  0.00    +0.000 HD
BRANCH  23  30
ATOM     27  C   UNL     1      -1.804  12.649  21.559  0.00  0.00    +0.000 A 
ATOM     28  C   UNL     1      -0.758  12.049  22.242  0.00  0.00    +0.000 A 
ATOM     29  C   UNL     1      -0.021  11.036  21.631  0.00  0.00    +0.000 A 
ATOM     30  C   UNL     1      -0.291  10.614  20.322  0.00  0.00    +0.000 A 
ATOM     31  C   UNL     1      -1.362  11.206  19.627  0.00  0.00    +0.000 A 
ATOM     32  C   UNL     1      -1.752  10.855  18.217  0.00  0.00    +0.000 C 
ATOM     33  C   UNL     1      -2.122  12.203  20.275  0.00  0.00    +0.000 A 
BRANCH  27  35
ATOM     34  C   UNL     1      -2.299  14.035  23.397  0.00  0.00    +0.000 C 
ATOM     35  O   UNL     1      -2.589  13.651  22.056  0.00  0.00    +0.000 OA
ENDBRANCH  27  35
ENDBRANCH  23  30
ENDBRANCH   1  24
TORSDOF 7
ENDMDL
