MODEL 1
REMARK VINA RESULT:      -7.9      0.000      0.000
REMARK  Name = 
REMARK  12 active torsions:
REMARK  status: ('A' for Active; 'I' for Inactive)
REMARK    1  A    between atoms: C_1  and  C_2
REMARK    2  A    between atoms: C_5  and  C_6
REMARK    3  A    between atoms: C_6  and  N_7
REMARK    4  A    between atoms: N_7  and  C_8
REMARK    5  A    between atoms: N_7  and  C_9
REMARK    6  A    between atoms: C_9  and  C_10
REMARK    7  A    between atoms: C_9  and  C_13
REMARK    8  A    between atoms: C_10  and  O_12
REMARK    9  A    between atoms: C_19  and  O_20
REMARK   10  A    between atoms: O_20  and  C_21
REMARK   11  A    between atoms: C_21  and  C_22
REMARK   12  A    between atoms: C_21  and  C_23
REMARK                            x       y       z     vdW  Elec       q    Type
REMARK                         _______ _______ _______ _____ _____    ______ ____
ROOT
ATOM      1  C   UNL     1       4.629   4.928  17.819  0.00  0.00    +0.000 C 
ENDROOT
BRANCH   1   2
ATOM      2  C   UNL     1       3.606   5.979  18.326  0.00  0.00    +0.000 A 
ATOM      3  C   UNL     1       3.483   7.210  17.654  0.00  0.00    +0.000 A 
ATOM      4  F   UNL     1       4.361   7.524  16.692  0.00  0.00    +0.000 F 
ATOM      5  C   UNL     1       2.631   8.230  18.055  0.00  0.00    +0.000 A 
ATOM      6  C   UNL     1       1.900   8.089  19.216  0.00  0.00    +0.000 A 
ATOM      7  C   UNL     1       2.042   6.926  19.970  0.00  0.00    +0.000 A 
ATOM      8  C   UNL     1       2.890   5.869  19.563  0.00  0.00    +0.000 A 
BRANCH   8   9
ATOM      9  O   UNL     1       3.108   4.761  20.367  0.00  0.00    +0.000 OA
BRANCH   9  10
ATOM     10  C   UNL     1       1.977   4.076  20.967  0.00  0.00    +0.000 C 
ATOM     11  C   UNL     1       1.002   3.638  19.874  0.00  0.00    +0.000 C 
ATOM     12  C   UNL     1       2.441   2.848  21.758  0.00  0.00    +0.000 C 
ENDBRANCH   9  10
ENDBRANCH   8   9
ENDBRANCH   1   2
BRANCH   1  13
ATOM     13  N   UNL     1       6.114   5.132  17.923  0.00  0.00    +0.000 NA
ATOM     14  C   UNL     1       6.581   5.555  19.235  0.00  0.00    +0.000 C 
BRANCH  13  15
ATOM     15  C   UNL     1       7.133   4.420  17.146  0.00  0.00    +0.000 C 
BRANCH  15  20
ATOM     16  C   UNL     1       5.516   3.362  12.544  0.00  0.00    +0.000 C 
ATOM     17  C   UNL     1       6.335   4.011  13.607  0.00  0.00    +0.000 A 
ATOM     18  C   UNL     1       7.206   5.061  13.506  0.00  0.00    +0.000 A 
ATOM     19  N   UNL     1       7.665   5.292  14.784  0.00  0.00    +0.000 N 
ATOM     20  C   UNL     1       7.044   4.410  15.629  0.00  0.00    +0.000 A 
ATOM     21  N   UNL     1       6.257   3.605  14.927  0.00  0.00    +0.000 NA
ATOM     22  H   UNL     1       8.308   6.022  15.066  0.00  0.00    +0.000 HD
ENDBRANCH  15  20
ENDBRANCH  13  15
ENDBRANCH   1  13
BRANCH   1  23
ATOM     23  C   UNL     1       4.342   3.459  18.223  0.00  0.00    +0.000 C 
ATOM     24  O   UNL     1       3.574   2.738  17.586  0.00  0.00    +0.000 OA
BRANCH  23  25
ATOM     25  O   UNL     1       4.998   2.952  19.287  0.00  0.00    +0.000 OA
ATOM     26  H   UNL     1       4.490   2.922  20.116  0.00  0.00    +0.000 HD
ENDBRANCH  23  25
ENDBRANCH   1  23
TORSDOF 8
ENDMDL
MODEL 2
REMARK VINA RESULT:      -7.8      0.357      1.022
REMARK  Name = 
REMARK  12 active torsions:
REMARK  status: ('A' for Active; 'I' for Inactive)
REMARK    1  A    between atoms: C_1  and  C_2
REMARK    2  A    between atoms: C_5  and  C_6
REMARK    3  A    between atoms: C_6  and  N_7
REMARK    4  A    between atoms: N_7  and  C_8
REMARK    5  A    between atoms: N_7  and  C_9
REMARK    6  A    between atoms: C_9  and  C_10
REMARK    7  A    between atoms: C_9  and  C_13
REMARK    8  A    between atoms: C_10  and  O_12
REMARK    9  A    between atoms: C_19  and  O_20
REMARK   10  A    between atoms: O_20  and  C_21
REMARK   11  A    between atoms: C_21  and  C_22
REMARK   12  A    between atoms: C_21  and  C_23
REMARK                            x       y       z     vdW  Elec       q    Type
REMARK                         _______ _______ _______ _____ _____    ______ ____
ROOT
ATOM      1  C   UNL     1       4.455   4.989  17.776  0.00  0.00    +0.000 C 
ENDROOT
BRANCH   1   2
ATOM      2  C   UNL     1       3.468   6.042  18.345  0.00  0.00    +0.000 A 
ATOM      3  C   UNL     1       3.321   7.281  17.694  0.00  0.00    +0.000 A 
ATOM      4  F   UNL     1       4.152   7.599  16.692  0.00  0.00    +0.000 F 
ATOM      5  C   UNL     1       2.499   8.303  18.149  0.00  0.00    +0.000 A 
ATOM      6  C   UNL     1       1.827   8.155  19.344  0.00  0.00    +0.000 A 
ATOM      7  C   UNL     1       1.998   6.983  20.077  0.00  0.00    +0.000 A 
ATOM      8  C   UNL     1       2.815   5.924  19.617  0.00  0.00    +0.000 A 
BRANCH   8   9
ATOM      9  O   UNL     1       3.064   4.806  20.396  0.00  0.00    +0.000 OA
BRANCH   9  10
ATOM     10  C   UNL     1       1.956   4.097  21.010  0.00  0.00    +0.000 C 
ATOM     11  C   UNL     1       0.922   3.736  19.943  0.00  0.00    +0.000 C 
ATOM     12  C   UNL     1       2.442   2.818  21.701  0.00  0.00    +0.000 C 
ENDBRANCH   9  10
ENDBRANCH   8   9
ENDBRANCH   1   2
BRANCH   1  13
ATOM     13  N   UNL     1       5.944   5.111  17.934  0.00  0.00    +0.000 NA
ATOM     14  C   UNL     1       6.393   5.389  19.291  0.00  0.00    +0.000 C 
BRANCH  13  15
ATOM     15  C   UNL     1       6.952   4.423  17.120  0.00  0.00    +0.000 C 
BRANCH  15  20
ATOM     16  C   UNL     1       7.943   5.541  12.357  0.00  0.00    +0.000 C 
ATOM     17  C   UNL     1       7.270   4.880  13.512  0.00  0.00    +0.000 A 
ATOM     18  C   UNL     1       6.385   3.836  13.514  0.00  0.00    +0.000 A 
ATOM     19  N   UNL     1       6.101   3.588  14.838  0.00  0.00    +0.000 N 
ATOM     20  C   UNL     1       6.836   4.455  15.605  0.00  0.00    +0.000 A 
ATOM     21  N   UNL     1       7.527   5.267  14.814  0.00  0.00    +0.000 NA
ATOM     22  H   UNL     1       5.497   2.858  15.195  0.00  0.00    +0.000 HD
ENDBRANCH  15  20
ENDBRANCH  13  15
ENDBRANCH   1  13
BRANCH   1  23
ATOM     23  C   UNL     1       4.088   3.507  18.045  0.00  0.00    +0.000 C 
ATOM     24  O   UNL     1       3.261   2.899  17.367  0.00  0.00    +0.000 OA
BRANCH  23  25
ATOM     25  O   UNL     1       4.740   2.860  19.034  0.00  0.00    +0.000 OA
ATOM     26  H   UNL     1       4.958   3.400  19.813  0.00  0.00    +0.000 HD
ENDBRANCH  23  25
ENDBRANCH   1  23
TORSDOF 8
ENDMDL
MODEL 3
REMARK VINA RESULT:      -7.3      1.379      1.844
REMARK  Name = 
REMARK  12 active torsions:
REMARK  status: ('A' for Active; 'I' for Inactive)
REMARK    1  A    between atoms: C_1  and  C_2
REMARK    2  A    between atoms: C_5  and  C_6
REMARK    3  A    between atoms: C_6  and  N_7
REMARK    4  A    between atoms: N_7  and  C_8
REMARK    5  A    between atoms: N_7  and  C_9
REMARK    6  A    between atoms: C_9  and  C_10
REMARK    7  A    between atoms: C_9  and  C_13
REMARK    8  A    between atoms: C_10  and  O_12
REMARK    9  A    between atoms: C_19  and  O_20
REMARK   10  A    between atoms: O_20  and  C_21
REMARK   11  A    between atoms: C_21  and  C_22
REMARK   12  A    between atoms: C_21  and  C_23
REMARK                            x       y       z     vdW  Elec       q    Type
REMARK                         _______ _______ _______ _____ _____    ______ ____
ROOT
ATOM      1  C   UNL     1       4.536   4.468  18.606  0.00  0.00    +0.000 C 
ENDROOT
BRANCH   1   2
ATOM      2  C   UNL     1       3.592   5.687  18.776  0.00  0.00    +0.000 A 
ATOM      3  C   UNL     1       3.752   6.812  17.945  0.00  0.00    +0.000 A 
ATOM      4  F   UNL     1       4.816   6.883  17.134  0.00  0.00    +0.000 F 
ATOM      5  C   UNL     1       2.988   7.967  18.049  0.00  0.00    +0.000 A 
ATOM      6  C   UNL     1       2.058   8.079  19.061  0.00  0.00    +0.000 A 
ATOM      7  C   UNL     1       1.912   7.032  19.967  0.00  0.00    +0.000 A 
ATOM      8  C   UNL     1       2.667   5.839  19.862  0.00  0.00    +0.000 A 
BRANCH   8   9
ATOM      9  O   UNL     1       2.594   4.845  20.824  0.00  0.00    +0.000 OA
BRANCH   9  10
ATOM     10  C   UNL     1       1.422   3.990  20.885  0.00  0.00    +0.000 C 
ATOM     11  C   UNL     1       1.032   3.551  19.474  0.00  0.00    +0.000 C 
ATOM     12  C   UNL     1       1.695   2.752  21.747  0.00  0.00    +0.000 C 
ENDBRANCH   9  10
ENDBRANCH   8   9
ENDBRANCH   1   2
BRANCH   1  13
ATOM     13  N   UNL     1       4.471   3.558  17.412  0.00  0.00    +0.000 NA
ATOM     14  C   UNL     1       3.974   2.218  17.691  0.00  0.00    +0.000 C 
BRANCH  13  15
ATOM     15  C   UNL     1       4.253   3.980  16.024  0.00  0.00    +0.000 C 
BRANCH  15  20
ATOM     16  C   UNL     1       7.052   3.886  11.893  0.00  0.00    +0.000 C 
ATOM     17  C   UNL     1       6.681   4.183  13.306  0.00  0.00    +0.000 A 
ATOM     18  C   UNL     1       7.319   4.980  14.217  0.00  0.00    +0.000 A 
ATOM     19  N   UNL     1       6.544   4.943  15.355  0.00  0.00    +0.000 N 
ATOM     20  C   UNL     1       5.447   4.161  15.102  0.00  0.00    +0.000 A 
ATOM     21  N   UNL     1       5.531   3.666  13.873  0.00  0.00    +0.000 NA
ATOM     22  H   UNL     1       6.719   5.448  16.215  0.00  0.00    +0.000 HD
ENDBRANCH  15  20
ENDBRANCH  13  15
ENDBRANCH   1  13
BRANCH   1  23
ATOM     23  C   UNL     1       6.036   4.730  18.898  0.00  0.00    +0.000 C 
ATOM     24  O   UNL     1       6.412   5.428  19.838  0.00  0.00    +0.000 OA
BRANCH  23  25
ATOM     25  O   UNL     1       6.951   4.128  18.110  0.00  0.00    +0.000 OA
ATOM     26  H   UNL     1       7.322   4.682  17.402  0.00  0.00    +0.000 HD
ENDBRANCH  23  25
ENDBRANCH   1  23
TORSDOF 8
ENDMDL
MODEL 4
REMARK VINA RESULT:      -7.2      2.195      3.618
REMARK  Name = 
REMARK  12 active torsions:
REMARK  status: ('A' for Active; 'I' for Inactive)
REMARK    1  A    between atoms: C_1  and  C_2
REMARK    2  A    between atoms: C_5  and  C_6
REMARK    3  A    between atoms: C_6  and  N_7
REMARK    4  A    between atoms: N_7  and  C_8
REMARK    5  A    between atoms: N_7  and  C_9
REMARK    6  A    between atoms: C_9  and  C_10
REMARK    7  A    between atoms: C_9  and  C_13
REMARK    8  A    between atoms: C_10  and  O_12
REMARK    9  A    between atoms: C_19  and  O_20
REMARK   10  A    between atoms: O_20  and  C_21
REMARK   11  A    between atoms: C_21  and  C_22
REMARK   12  A    between atoms: C_21  and  C_23
REMARK                            x       y       z     vdW  Elec       q    Type
REMARK                         _______ _______ _______ _____ _____    ______ ____
ROOT
ATOM      1  C   UNL     1       5.270   4.137  17.447  0.00  0.00    +0.000 C 
ENDROOT
BRANCH   1   2
ATOM      2  C   UNL     1       3.817   3.792  17.871  0.00  0.00    +0.000 A 
ATOM      3  C   UNL     1       3.395   2.449  17.877  0.00  0.00    +0.000 A 
ATOM      4  F   UNL     1       4.195   1.507  17.360  0.00  0.00    +0.000 F 
ATOM      5  C   UNL     1       2.106   2.044  18.197  0.00  0.00    +0.000 A 
ATOM      6  C   UNL     1       1.140   2.992  18.461  0.00  0.00    +0.000 A 
ATOM      7  C   UNL     1       1.477   4.342  18.389  0.00  0.00    +0.000 A 
ATOM      8  C   UNL     1       2.791   4.771  18.085  0.00  0.00    +0.000 A 
BRANCH   8   9
ATOM      9  O   UNL     1       3.097   6.111  17.913  0.00  0.00    +0.000 OA
BRANCH   9  10
ATOM     10  C   UNL     1       2.173   7.125  18.387  0.00  0.00    +0.000 C 
ATOM     11  C   UNL     1       2.292   7.262  19.904  0.00  0.00    +0.000 C 
ATOM     12  C   UNL     1       2.464   8.478  17.728  0.00  0.00    +0.000 C 
ENDBRANCH   9  10
ENDBRANCH   8   9
ENDBRANCH   1   2
BRANCH   1  13
ATOM     13  N   UNL     1       5.588   4.835  16.156  0.00  0.00    +0.000 NA
ATOM     14  C   UNL     1       5.335   6.269  16.159  0.00  0.00    +0.000 C 
BRANCH  13  15
ATOM     15  C   UNL     1       6.619   4.431  15.194  0.00  0.00    +0.000 C 
BRANCH  15  20
ATOM     16  C   UNL     1       3.823   3.342  11.205  0.00  0.00    +0.000 C 
ATOM     17  C   UNL     1       5.029   3.378  12.081  0.00  0.00    +0.000 A 
ATOM     18  C   UNL     1       6.315   3.007  11.795  0.00  0.00    +0.000 A 
ATOM     19  N   UNL     1       7.044   3.279  12.931  0.00  0.00    +0.000 N 
ATOM     20  C   UNL     1       6.202   3.833  13.860  0.00  0.00    +0.000 A 
ATOM     21  N   UNL     1       4.969   3.872  13.371  0.00  0.00    +0.000 NA
ATOM     22  H   UNL     1       8.041   3.146  13.049  0.00  0.00    +0.000 HD
ENDBRANCH  15  20
ENDBRANCH  13  15
ENDBRANCH   1  13
BRANCH   1  23
ATOM     23  C   UNL     1       6.158   4.779  18.543  0.00  0.00    +0.000 C 
ATOM     24  O   UNL     1       7.387   4.723  18.513  0.00  0.00    +0.000 OA
BRANCH  23  25
ATOM     25  O   UNL     1       5.549   5.460  19.537  0.00  0.00    +0.000 OA
ATOM     26  H   UNL     1       5.544   6.427  19.438  0.00  0.00    +0.000 HD
ENDBRANCH  23  25
ENDBRANCH   1  23
TORSDOF 8
ENDMDL
MODEL 5
REMARK VINA RESULT:      -7.2      2.056      3.537
REMARK  Name = 
REMARK  12 active torsions:
REMARK  status: ('A' for Active; 'I' for Inactive)
REMARK    1  A    between atoms: C_1  and  C_2
REMARK    2  A    between atoms: C_5  and  C_6
REMARK    3  A    between atoms: C_6  and  N_7
REMARK    4  A    between atoms: N_7  and  C_8
REMARK    5  A    between atoms: N_7  and  C_9
REMARK    6  A    between atoms: C_9  and  C_10
REMARK    7  A    between atoms: C_9  and  C_13
REMARK    8  A    between atoms: C_10  and  O_12
REMARK    9  A    between atoms: C_19  and  O_20
REMARK   10  A    between atoms: O_20  and  C_21
REMARK   11  A    between atoms: C_21  and  C_22
REMARK   12  A    between atoms: C_21  and  C_23
REMARK                            x       y       z     vdW  Elec       q    Type
REMARK                         _______ _______ _______ _____ _____    ______ ____
ROOT
ATOM      1  C   UNL     1       5.076   3.907  18.513  0.00  0.00    +0.000 C 
ENDROOT
BRANCH   1   2
ATOM      2  C   UNL     1       4.026   3.856  19.655  0.00  0.00    +0.000 A 
ATOM      3  C   UNL     1       3.688   2.619  20.234  0.00  0.00    +0.000 A 
ATOM      4  F   UNL     1       4.149   1.488  19.683  0.00  0.00    +0.000 F 
ATOM      5  C   UNL     1       2.730   2.465  21.228  0.00  0.00    +0.000 A 
ATOM      6  C   UNL     1       2.000   3.558  21.645  0.00  0.00    +0.000 A 
ATOM      7  C   UNL     1       2.232   4.796  21.049  0.00  0.00    +0.000 A 
ATOM      8  C   UNL     1       3.219   4.974  20.050  0.00  0.00    +0.000 A 
BRANCH   8   9
ATOM      9  O   UNL     1       3.374   6.180  19.388  0.00  0.00    +0.000 OA
BRANCH   9  10
ATOM     10  C   UNL     1       2.205   6.979  19.068  0.00  0.00    +0.000 C 
ATOM     11  C   UNL     1       1.837   7.856  20.264  0.00  0.00    +0.000 C 
ATOM     12  C   UNL     1       2.469   7.867  17.847  0.00  0.00    +0.000 C 
ENDBRANCH   9  10
ENDBRANCH   8   9
ENDBRANCH   1   2
BRANCH   1  13
ATOM     13  N   UNL     1       4.709   4.239  17.094  0.00  0.00    +0.000 NA
ATOM     14  C   UNL     1       3.322   3.968  16.743  0.00  0.00    +0.000 C 
BRANCH  13  15
ATOM     15  C   UNL     1       5.320   5.291  16.275  0.00  0.00    +0.000 C 
BRANCH  15  20
ATOM     16  C   UNL     1       6.492   3.254  11.871  0.00  0.00    +0.000 C 
ATOM     17  C   UNL     1       6.660   4.075  13.105  0.00  0.00    +0.000 A 
ATOM     18  C   UNL     1       7.638   4.982  13.411  0.00  0.00    +0.000 A 
ATOM     19  N   UNL     1       7.306   5.487  14.649  0.00  0.00    +0.000 N 
ATOM     20  C   UNL     1       6.130   4.906  15.048  0.00  0.00    +0.000 A 
ATOM     21  N   UNL     1       5.741   4.023  14.136  0.00  0.00    +0.000 NA
ATOM     22  H   UNL     1       7.808   6.203  15.158  0.00  0.00    +0.000 HD
ENDBRANCH  15  20
ENDBRANCH  13  15
ENDBRANCH   1  13
BRANCH   1  23
ATOM     23  C   UNL     1       6.386   4.670  18.835  0.00  0.00    +0.000 C 
ATOM     24  O   UNL     1       6.426   5.601  19.639  0.00  0.00    +0.000 OA
BRANCH  23  25
ATOM     25  O   UNL     1       7.524   4.259  18.238  0.00  0.00    +0.000 OA
ATOM     26  H   UNL     1       7.513   4.267  17.265  0.00  0.00    +0.000 HD
ENDBRANCH  23  25
ENDBRANCH   1  23
TORSDOF 8
ENDMDL
MODEL 6
REMARK VINA RESULT:      -7.1      1.918      3.341
REMARK  Name = 
REMARK  12 active torsions:
REMARK  status: ('A' for Active; 'I' for Inactive)
REMARK    1  A    between atoms: C_1  and  C_2
REMARK    2  A    between atoms: C_5  and  C_6
REMARK    3  A    between atoms: C_6  and  N_7
REMARK    4  A    between atoms: N_7  and  C_8
REMARK    5  A    between atoms: N_7  and  C_9
REMARK    6  A    between atoms: C_9  and  C_10
REMARK    7  A    between atoms: C_9  and  C_13
REMARK    8  A    between atoms: C_10  and  O_12
REMARK    9  A    between atoms: C_19  and  O_20
REMARK   10  A    between atoms: O_20  and  C_21
REMARK   11  A    between atoms: C_21  and  C_22
REMARK   12  A    between atoms: C_21  and  C_23
REMARK                            x       y       z     vdW  Elec       q    Type
REMARK                         _______ _______ _______ _____ _____    ______ ____
ROOT
ATOM      1  C   UNL     1       5.328   4.711  17.744  0.00  0.00    +0.000 C 
ENDROOT
BRANCH   1   2
ATOM      2  C   UNL     1       4.029   4.153  18.385  0.00  0.00    +0.000 A 
ATOM      3  C   UNL     1       3.639   2.827  18.123  0.00  0.00    +0.000 A 
ATOM      4  F   UNL     1       4.300   2.118  17.198  0.00  0.00    +0.000 F 
ATOM      5  C   UNL     1       2.474   2.251  18.612  0.00  0.00    +0.000 A 
ATOM      6  C   UNL     1       1.590   3.018  19.342  0.00  0.00    +0.000 A 
ATOM      7  C   UNL     1       1.881   4.362  19.563  0.00  0.00    +0.000 A 
ATOM      8  C   UNL     1       3.074   4.958  19.090  0.00  0.00    +0.000 A 
BRANCH   8   9
ATOM      9  O   UNL     1       3.311   6.317  19.222  0.00  0.00    +0.000 OA
BRANCH   9  10
ATOM     10  C   UNL     1       2.247   7.262  18.934  0.00  0.00    +0.000 C 
ATOM     11  C   UNL     1       1.862   8.008  20.210  0.00  0.00    +0.000 C 
ATOM     12  C   UNL     1       2.688   8.270  17.867  0.00  0.00    +0.000 C 
ENDBRANCH   9  10
ENDBRANCH   8   9
ENDBRANCH   1   2
BRANCH   1  13
ATOM     13  N   UNL     1       5.352   5.984  16.947  0.00  0.00    +0.000 NA
ATOM     14  C   UNL     1       6.264   7.002  17.449  0.00  0.00    +0.000 C 
BRANCH  13  15
ATOM     15  C   UNL     1       5.088   6.101  15.509  0.00  0.00    +0.000 C 
BRANCH  15  20
ATOM     16  C   UNL     1       5.947   2.688  11.969  0.00  0.00    +0.000 C 
ATOM     17  C   UNL     1       6.251   3.761  12.959  0.00  0.00    +0.000 A 
ATOM     18  C   UNL     1       7.410   4.464  13.142  0.00  0.00    +0.000 A 
ATOM     19  N   UNL     1       7.149   5.361  14.155  0.00  0.00    +0.000 N 
ATOM     20  C   UNL     1       5.841   5.207  14.537  0.00  0.00    +0.000 A 
ATOM     21  N   UNL     1       5.291   4.219  13.843  0.00  0.00    +0.000 NA
ATOM     22  H   UNL     1       7.789   6.054  14.520  0.00  0.00    +0.000 HD
ENDBRANCH  15  20
ENDBRANCH  13  15
ENDBRANCH   1  13
BRANCH   1  23
ATOM     23  C   UNL     1       6.580   4.723  18.658  0.00  0.00    +0.000 C 
ATOM     24  O   UNL     1       6.544   5.131  19.819  0.00  0.00    +0.000 OA
BRANCH  23  25
ATOM     25  O   UNL     1       7.732   4.224  18.165  0.00  0.00    +0.000 OA
ATOM     26  H   UNL     1       8.175   4.776  17.498  0.00  0.00    +0.000 HD
ENDBRANCH  23  25
ENDBRANCH   1  23
TORSDOF 8
ENDMDL
MODEL 7
REMARK VINA RESULT:      -7.1      0.840      1.125
REMARK  Name = 
REMARK  12 active torsions:
REMARK  status: ('A' for Active; 'I' for Inactive)
REMARK    1  A    between atoms: C_1  and  C_2
REMARK    2  A    between atoms: C_5  and  C_6
REMARK    3  A    between atoms: C_6  and  N_7
REMARK    4  A    between atoms: N_7  and  C_8
REMARK    5  A    between atoms: N_7  and  C_9
REMARK    6  A    between atoms: C_9  and  C_10
REMARK    7  A    between atoms: C_9  and  C_13
REMARK    8  A    between atoms: C_10  and  O_12
REMARK    9  A    between atoms: C_19  and  O_20
REMARK   10  A    between atoms: O_20  and  C_21
REMARK   11  A    between atoms: C_21  and  C_22
REMARK   12  A    between atoms: C_21  and  C_23
REMARK                            x       y       z     vdW  Elec       q    Type
REMARK                         _______ _______ _______ _____ _____    ______ ____
ROOT
ATOM      1  C   UNL     1       3.687   5.311  17.666  0.00  0.00    +0.000 C 
ENDROOT
BRANCH   1   2
ATOM      2  C   UNL     1       2.838   6.268  18.544  0.00  0.00    +0.000 A 
ATOM      3  C   UNL     1       2.576   7.576  18.095  0.00  0.00    +0.000 A 
ATOM      4  F   UNL     1       3.198   8.030  16.999  0.00  0.00    +0.000 F 
ATOM      5  C   UNL     1       1.866   8.519  18.827  0.00  0.00    +0.000 A 
ATOM      6  C   UNL     1       1.439   8.211  20.101  0.00  0.00    +0.000 A 
ATOM      7  C   UNL     1       1.741   6.960  20.634  0.00  0.00    +0.000 A 
ATOM      8  C   UNL     1       2.445   5.980  19.893  0.00  0.00    +0.000 A 
BRANCH   8   9
ATOM      9  O   UNL     1       2.833   4.778  20.462  0.00  0.00    +0.000 OA
BRANCH   9  10
ATOM     10  C   UNL     1       1.842   3.938  21.111  0.00  0.00    +0.000 C 
ATOM     11  C   UNL     1       0.743   3.574  20.114  0.00  0.00    +0.000 C 
ATOM     12  C   UNL     1       2.485   2.657  21.653  0.00  0.00    +0.000 C 
ENDBRANCH   9  10
ENDBRANCH   8   9
ENDBRANCH   1   2
BRANCH   1  13
ATOM     13  N   UNL     1       5.184   5.236  17.771  0.00  0.00    +0.000 NA
ATOM     14  C   UNL     1       5.742   5.830  18.977  0.00  0.00    +0.000 C 
BRANCH  13  15
ATOM     15  C   UNL     1       6.031   4.186  17.196  0.00  0.00    +0.000 C 
BRANCH  15  20
ATOM     16  C   UNL     1       6.259   3.431  12.267  0.00  0.00    +0.000 C 
ATOM     17  C   UNL     1       6.583   4.037  13.590  0.00  0.00    +0.000 A 
ATOM     18  C   UNL     1       7.333   5.146  13.871  0.00  0.00    +0.000 A 
ATOM     19  N   UNL     1       7.285   5.294  15.240  0.00  0.00    +0.000 N 
ATOM     20  C   UNL     1       6.488   4.302  15.751  0.00  0.00    +0.000 A 
ATOM     21  N   UNL     1       6.079   3.512  14.766  0.00  0.00    +0.000 NA
ATOM     22  H   UNL     1       7.715   6.036  15.777  0.00  0.00    +0.000 HD
ENDBRANCH  15  20
ENDBRANCH  13  15
ENDBRANCH   1  13
BRANCH   1  23
ATOM     23  C   UNL     1       3.164   3.856  17.555  0.00  0.00    +0.000 C 
ATOM     24  O   UNL     1       3.647   2.931  18.207  0.00  0.00    +0.000 OA
BRANCH  23  25
ATOM     25  O   UNL     1       2.113   3.618  16.744  0.00  0.00    +0.000 OA
ATOM     26  H   UNL     1       1.834   4.368  16.190  0.00  0.00    +0.000 HD
ENDBRANCH  23  25
ENDBRANCH   1  23
TORSDOF 8
ENDMDL
MODEL 8
REMARK VINA RESULT:      -6.9      1.069      1.621
REMARK  Name = 
REMARK  12 active torsions:
REMARK  status: ('A' for Active; 'I' for Inactive)
REMARK    1  A    between atoms: C_1  and  C_2
REMARK    2  A    between atoms: C_5  and  C_6
REMARK    3  A    between atoms: C_6  and  N_7
REMARK    4  A    between atoms: N_7  and  C_8
REMARK    5  A    between atoms: N_7  and  C_9
REMARK    6  A    between atoms: C_9  and  C_10
REMARK    7  A    between atoms: C_9  and  C_13
REMARK    8  A    between atoms: C_10  and  O_12
REMARK    9  A    between atoms: C_19  and  O_20
REMARK   10  A    between atoms: O_20  and  C_21
REMARK   11  A    between atoms: C_21  and  C_22
REMARK   12  A    between atoms: C_21  and  C_23
REMARK                            x       y       z     vdW  Elec       q    Type
REMARK                         _______ _______ _______ _____ _____    ______ ____
ROOT
ATOM      1  C   UNL     1       3.712   5.390  17.817  0.00  0.00    +0.000 C 
ENDROOT
BRANCH   1   2
ATOM      2  C   UNL     1       2.831   6.365  18.644  0.00  0.00    +0.000 A 
ATOM      3  C   UNL     1       2.573   7.657  18.150  0.00  0.00    +0.000 A 
ATOM      4  F   UNL     1       3.224   8.085  17.060  0.00  0.00    +0.000 F 
ATOM      5  C   UNL     1       1.836   8.615  18.834  0.00  0.00    +0.000 A 
ATOM      6  C   UNL     1       1.375   8.340  20.104  0.00  0.00    +0.000 A 
ATOM      7  C   UNL     1       1.670   7.106  20.681  0.00  0.00    +0.000 A 
ATOM      8  C   UNL     1       2.402   6.112  19.989  0.00  0.00    +0.000 A 
BRANCH   8   9
ATOM      9  O   UNL     1       2.782   4.930  20.602  0.00  0.00    +0.000 OA
BRANCH   9  10
ATOM     10  C   UNL     1       1.774   4.079  21.209  0.00  0.00    +0.000 C 
ATOM     11  C   UNL     1       0.704   3.731  20.175  0.00  0.00    +0.000 C 
ATOM     12  C   UNL     1       2.401   2.789  21.749  0.00  0.00    +0.000 C 
ENDBRANCH   9  10
ENDBRANCH   8   9
ENDBRANCH   1   2
BRANCH   1  13
ATOM     13  N   UNL     1       5.097   4.994  18.246  0.00  0.00    +0.000 NA
ATOM     14  C   UNL     1       5.169   3.760  19.014  0.00  0.00    +0.000 C 
BRANCH  13  15
ATOM     15  C   UNL     1       6.337   5.302  17.526  0.00  0.00    +0.000 C 
BRANCH  15  20
ATOM     16  C   UNL     1       7.964   5.351  12.808  0.00  0.00    +0.000 C 
ATOM     17  C   UNL     1       7.163   4.924  13.991  0.00  0.00    +0.000 A 
ATOM     18  C   UNL     1       6.345   3.836  14.132  0.00  0.00    +0.000 A 
ATOM     19  N   UNL     1       5.881   3.883  15.428  0.00  0.00    +0.000 N 
ATOM     20  C   UNL     1       6.446   4.967  16.048  0.00  0.00    +0.000 A 
ATOM     21  N   UNL     1       7.203   5.627  15.180  0.00  0.00    +0.000 NA
ATOM     22  H   UNL     1       5.271   3.207  15.870  0.00  0.00    +0.000 HD
ENDBRANCH  15  20
ENDBRANCH  13  15
ENDBRANCH   1  13
BRANCH   1  23
ATOM     23  C   UNL     1       3.006   4.105  17.315  0.00  0.00    +0.000 C 
ATOM     24  O   UNL     1       3.626   3.078  17.038  0.00  0.00    +0.000 OA
BRANCH  23  25
ATOM     25  O   UNL     1       1.660   4.112  17.226  0.00  0.00    +0.000 OA
ATOM     26  H   UNL     1       1.237   4.978  17.362  0.00  0.00    +0.000 HD
ENDBRANCH  23  25
ENDBRANCH   1  23
TORSDOF 8
ENDMDL
MODEL 9
REMARK VINA RESULT:      -6.8      1.070      1.742
REMARK  Name = 
REMARK  12 active torsions:
REMARK  status: ('A' for Active; 'I' for Inactive)
REMARK    1  A    between atoms: C_1  and  C_2
REMARK    2  A    between atoms: C_5  and  C_6
REMARK    3  A    between atoms: C_6  and  N_7
REMARK    4  A    between atoms: N_7  and  C_8
REMARK    5  A    between atoms: N_7  and  C_9
REMARK    6  A    between atoms: C_9  and  C_10
REMARK    7  A    between atoms: C_9  and  C_13
REMARK    8  A    between atoms: C_10  and  O_12
REMARK    9  A    between atoms: C_19  and  O_20
REMARK   10  A    between atoms: O_20  and  C_21
REMARK   11  A    between atoms: C_21  and  C_22
REMARK   12  A    between atoms: C_21  and  C_23
REMARK                            x       y       z     vdW  Elec       q    Type
REMARK                         _______ _______ _______ _____ _____    ______ ____
ROOT
ATOM      1  C   UNL     1       4.666   4.588  18.029  0.00  0.00    +0.000 C 
ENDROOT
BRANCH   1   2
ATOM      2  C   UNL     1       3.728   5.796  18.290  0.00  0.00    +0.000 A 
ATOM      3  C   UNL     1       3.809   6.931  17.462  0.00  0.00    +0.000 A 
ATOM      4  F   UNL     1       4.802   7.023  16.568  0.00  0.00    +0.000 F 
ATOM      5  C   UNL     1       3.046   8.078  17.642  0.00  0.00    +0.000 A 
ATOM      6  C   UNL     1       2.200   8.168  18.728  0.00  0.00    +0.000 A 
ATOM      7  C   UNL     1       2.138   7.109  19.630  0.00  0.00    +0.000 A 
ATOM      8  C   UNL     1       2.893   5.926  19.449  0.00  0.00    +0.000 A 
BRANCH   8   9
ATOM      9  O   UNL     1       2.908   4.920  20.402  0.00  0.00    +0.000 OA
BRANCH   9  10
ATOM     10  C   UNL     1       1.699   4.159  20.661  0.00  0.00    +0.000 C 
ATOM     11  C   UNL     1       1.233   3.481  19.373  0.00  0.00    +0.000 C 
ATOM     12  C   UNL     1       1.945   3.095  21.737  0.00  0.00    +0.000 C 
ENDBRANCH   9  10
ENDBRANCH   8   9
ENDBRANCH   1   2
BRANCH   1  13
ATOM     13  N   UNL     1       5.565   4.510  16.827  0.00  0.00    +0.000 NA
ATOM     14  C   UNL     1       6.989   4.582  17.124  0.00  0.00    +0.000 C 
BRANCH  13  15
ATOM     15  C   UNL     1       5.268   3.800  15.579  0.00  0.00    +0.000 C 
BRANCH  15  20
ATOM     16  C   UNL     1       8.571   6.005  12.557  0.00  0.00    +0.000 C 
ATOM     17  C   UNL     1       7.517   5.042  12.986  0.00  0.00    +0.000 A 
ATOM     18  C   UNL     1       7.053   3.927  12.344  0.00  0.00    +0.000 A 
ATOM     19  N   UNL     1       6.114   3.373  13.186  0.00  0.00    +0.000 N 
ATOM     20  C   UNL     1       6.053   4.138  14.322  0.00  0.00    +0.000 A 
ATOM     21  N   UNL     1       6.876   5.172  14.204  0.00  0.00    +0.000 NA
ATOM     22  H   UNL     1       5.594   2.520  13.024  0.00  0.00    +0.000 HD
ENDBRANCH  15  20
ENDBRANCH  13  15
ENDBRANCH   1  13
BRANCH   1  23
ATOM     23  C   UNL     1       5.491   4.099  19.247  0.00  0.00    +0.000 C 
ATOM     24  O   UNL     1       6.291   4.826  19.835  0.00  0.00    +0.000 OA
BRANCH  23  25
ATOM     25  O   UNL     1       5.281   2.844  19.694  0.00  0.00    +0.000 OA
ATOM     26  H   UNL     1       6.064   2.393  20.054  0.00  0.00    +0.000 HD
ENDBRANCH  23  25
ENDBRANCH   1  23
TORSDOF 8
ENDMDL
