MODEL 1
REMARK VINA RESULT:      -8.9      0.000      0.000
REMARK  Name = 
REMARK  9 active torsions:
REMARK  status: ('A' for Active; 'I' for Inactive)
REMARK    1  A    between atoms: C_1  and  C_2
REMARK    2  A    between atoms: C_2  and  C_3
REMARK    3  A    between atoms: C_8  and  N_9
REMARK    4  A    between atoms: C_11  and  C_12
REMARK    5  A    between atoms: C_13  and  C_14
REMARK    6  A    between atoms: C_16  and  O_17
REMARK    7  A    between atoms: O_17  and  C_18
REMARK    8  A    between atoms: C_20  and  O_21
REMARK    9  A    between atoms: O_21  and  C_22
REMARK                            x       y       z     vdW  Elec       q    Type
REMARK                         _______ _______ _______ _____ _____    ______ ____
ROOT
ATOM      1  N   UNL     1      -0.752  10.729  18.847  0.00  0.00    +0.000 N 
ATOM      2  N   UNL     1       0.090   9.964  18.105  0.00  0.00    +0.000 NA
ATOM      3  C   UNL     1       0.848   9.346  19.021  0.00  0.00    +0.000 A 
ATOM      4  C   UNL     1       0.529   9.723  20.342  0.00  0.00    +0.000 A 
ATOM      5  C   UNL     1       0.952   9.433  21.643  0.00  0.00    +0.000 A 
ATOM      6  N   UNL     1       1.924   8.503  21.965  0.00  0.00    +0.000 N 
ATOM      7  N   UNL     1       0.375  10.097  22.667  0.00  0.00    +0.000 NA
ATOM      8  C   UNL     1      -0.600  10.987  22.391  0.00  0.00    +0.000 A 
ATOM      9  N   UNL     1      -1.108  11.319  21.188  0.00  0.00    +0.000 NA
ATOM     10  C   UNL     1      -0.494  10.647  20.197  0.00  0.00    +0.000 A 
ATOM     11  H   UNL     1       2.603   8.269  21.254  0.00  0.00    +0.000 HD
ATOM     12  H   UNL     1       2.267   8.615  22.911  0.00  0.00    +0.000 HD
ENDROOT
BRANCH   1  18
ATOM     13  C   UNL     1      -5.356  11.873  19.118  0.00  0.00    +0.000 C 
ATOM     14  O   UNL     1      -5.438  12.228  20.294  0.00  0.00    +0.000 OA
ATOM     15  N   UNL     1      -4.143  11.821  18.464  0.00  0.00    +0.000 N 
ATOM     16  C   UNL     1      -3.891  11.518  17.070  0.00  0.00    +0.000 C 
ATOM     17  C   UNL     1      -2.529  10.844  17.100  0.00  0.00    +0.000 C 
ATOM     18  C   UNL     1      -1.774  11.562  18.233  0.00  0.00    +0.000 C 
ATOM     19  C   UNL     1      -2.889  12.064  19.171  0.00  0.00    +0.000 C 
BRANCH  13  21
ATOM     20  C   UNL     1      -7.389  12.634  17.813  0.00  0.00    +0.000 C 
ATOM     21  C   UNL     1      -6.581  11.449  18.321  0.00  0.00    +0.000 C 
ENDBRANCH  13  21
ENDBRANCH   1  18
BRANCH   3  22
ATOM     22  C   UNL     1       1.874   8.437  18.605  0.00  0.00    +0.000 C 
ATOM     23  C   UNL     1       2.658   7.591  18.251  0.00  0.00    +0.000 C 
BRANCH  23  24
ATOM     24  C   UNL     1       3.536   6.545  17.793  0.00  0.00    +0.000 A 
ATOM     25  C   UNL     1       3.339   5.218  18.203  0.00  0.00    +0.000 A 
ATOM     26  C   UNL     1       4.192   4.198  17.761  0.00  0.00    +0.000 A 
ATOM     27  C   UNL     1       5.243   4.512  16.902  0.00  0.00    +0.000 A 
ATOM     28  C   UNL     1       5.446   5.829  16.476  0.00  0.00    +0.000 A 
ATOM     29  C   UNL     1       4.591   6.843  16.918  0.00  0.00    +0.000 A 
BRANCH  26  30
ATOM     30  O   UNL     1       3.907   2.942  18.233  0.00  0.00    +0.000 OA
ATOM     31  C   UNL     1       4.140   2.708  19.620  0.00  0.00    +0.000 C 
ENDBRANCH  26  30
BRANCH  28  32
ATOM     32  O   UNL     1       6.514   5.974  15.632  0.00  0.00    +0.000 OA
ATOM     33  C   UNL     1       6.891   4.848  14.856  0.00  0.00    +0.000 C 
ENDBRANCH  28  32
ENDBRANCH  23  24
ENDBRANCH   3  22
TORSDOF 6
ENDMDL
MODEL 2
REMARK VINA RESULT:      -8.8      0.630      2.182
REMARK  Name = 
REMARK  9 active torsions:
REMARK  status: ('A' for Active; 'I' for Inactive)
REMARK    1  A    between atoms: C_1  and  C_2
REMARK    2  A    between atoms: C_2  and  C_3
REMARK    3  A    between atoms: C_8  and  N_9
REMARK    4  A    between atoms: C_11  and  C_12
REMARK    5  A    between atoms: C_13  and  C_14
REMARK    6  A    between atoms: C_16  and  O_17
REMARK    7  A    between atoms: O_17  and  C_18
REMARK    8  A    between atoms: C_20  and  O_21
REMARK    9  A    between atoms: O_21  and  C_22
REMARK                            x       y       z     vdW  Elec       q    Type
REMARK                         _______ _______ _______ _____ _____    ______ ____
ROOT
ATOM      1  N   UNL     1      -0.670  10.564  18.761  0.00  0.00    +0.000 N 
ATOM      2  N   UNL     1       0.203   9.710  18.166  0.00  0.00    +0.000 NA
ATOM      3  C   UNL     1       0.923   9.230  19.189  0.00  0.00    +0.000 A 
ATOM      4  C   UNL     1       0.550   9.784  20.431  0.00  0.00    +0.000 A 
ATOM      5  C   UNL     1       0.920   9.679  21.776  0.00  0.00    +0.000 A 
ATOM      6  N   UNL     1       1.879   8.809  22.263  0.00  0.00    +0.000 N 
ATOM      7  N   UNL     1       0.300  10.475  22.674  0.00  0.00    +0.000 NA
ATOM      8  C   UNL     1      -0.664  11.311  22.238  0.00  0.00    +0.000 A 
ATOM      9  N   UNL     1      -1.122  11.470  20.981  0.00  0.00    +0.000 NA
ATOM     10  C   UNL     1      -0.467  10.671  20.118  0.00  0.00    +0.000 A 
ATOM     11  H   UNL     1       2.587   8.484  21.619  0.00  0.00    +0.000 HD
ATOM     12  H   UNL     1       2.182   9.053  23.197  0.00  0.00    +0.000 HD
ENDROOT
BRANCH   1  18
ATOM     13  C   UNL     1      -5.204  11.981  18.849  0.00  0.00    +0.000 C 
ATOM     14  O   UNL     1      -5.238  12.587  19.922  0.00  0.00    +0.000 OA
ATOM     15  N   UNL     1      -4.013  11.725  18.203  0.00  0.00    +0.000 N 
ATOM     16  C   UNL     1      -3.813  11.115  16.905  0.00  0.00    +0.000 C 
ATOM     17  C   UNL     1      -2.485  10.393  17.059  0.00  0.00    +0.000 C 
ATOM     18  C   UNL     1      -1.666  11.298  17.997  0.00  0.00    +0.000 C 
ATOM     19  C   UNL     1      -2.730  12.049  18.821  0.00  0.00    +0.000 C 
BRANCH  13  21
ATOM     20  C   UNL     1      -6.997  10.193  18.838  0.00  0.00    +0.000 C 
ATOM     21  C   UNL     1      -6.469  11.460  18.184  0.00  0.00    +0.000 C 
ENDBRANCH  13  21
ENDBRANCH   1  18
BRANCH   3  22
ATOM     22  C   UNL     1       1.967   8.279  18.945  0.00  0.00    +0.000 C 
ATOM     23  C   UNL     1       2.791   7.450  18.643  0.00  0.00    +0.000 C 
BRANCH  23  24
ATOM     24  C   UNL     1       3.756   6.474  18.210  0.00  0.00    +0.000 A 
ATOM     25  C   UNL     1       4.407   6.613  16.976  0.00  0.00    +0.000 A 
ATOM     26  C   UNL     1       5.347   5.664  16.551  0.00  0.00    +0.000 A 
ATOM     27  C   UNL     1       5.636   4.576  17.371  0.00  0.00    +0.000 A 
ATOM     28  C   UNL     1       5.004   4.430  18.610  0.00  0.00    +0.000 A 
ATOM     29  C   UNL     1       4.068   5.380  19.030  0.00  0.00    +0.000 A 
BRANCH  26  30
ATOM     30  O   UNL     1       5.913   5.900  15.324  0.00  0.00    +0.000 OA
ATOM     31  C   UNL     1       6.723   4.860  14.780  0.00  0.00    +0.000 C 
ENDBRANCH  26  30
BRANCH  28  32
ATOM     32  O   UNL     1       5.398   3.315  19.299  0.00  0.00    +0.000 OA
ATOM     33  C   UNL     1       4.379   2.474  19.819  0.00  0.00    +0.000 C 
ENDBRANCH  28  32
ENDBRANCH  23  24
ENDBRANCH   3  22
TORSDOF 6
ENDMDL
MODEL 3
REMARK VINA RESULT:      -8.8      0.811      2.178
REMARK  Name = 
REMARK  9 active torsions:
REMARK  status: ('A' for Active; 'I' for Inactive)
REMARK    1  A    between atoms: C_1  and  C_2
REMARK    2  A    between atoms: C_2  and  C_3
REMARK    3  A    between atoms: C_8  and  N_9
REMARK    4  A    between atoms: C_11  and  C_12
REMARK    5  A    between atoms: C_13  and  C_14
REMARK    6  A    between atoms: C_16  and  O_17
REMARK    7  A    between atoms: O_17  and  C_18
REMARK    8  A    between atoms: C_20  and  O_21
REMARK    9  A    between atoms: O_21  and  C_22
REMARK                            x       y       z     vdW  Elec       q    Type
REMARK                         _______ _______ _______ _____ _____    ______ ____
ROOT
ATOM      1  N   UNL     1      -0.841  10.776  18.819  0.00  0.00    +0.000 N 
ATOM      2  N   UNL     1      -0.006  10.041  18.039  0.00  0.00    +0.000 NA
ATOM      3  C   UNL     1       0.792   9.425  18.922  0.00  0.00    +0.000 A 
ATOM      4  C   UNL     1       0.506   9.774  20.258  0.00  0.00    +0.000 A 
ATOM      5  C   UNL     1       0.974   9.472  21.541  0.00  0.00    +0.000 A 
ATOM      6  N   UNL     1       1.974   8.558  21.819  0.00  0.00    +0.000 N 
ATOM      7  N   UNL     1       0.414  10.108  22.593  0.00  0.00    +0.000 NA
ATOM      8  C   UNL     1      -0.587  10.981  22.361  0.00  0.00    +0.000 A 
ATOM      9  N   UNL     1      -1.137  11.321  21.179  0.00  0.00    +0.000 NA
ATOM     10  C   UNL     1      -0.540  10.678  20.159  0.00  0.00    +0.000 A 
ATOM     11  H   UNL     1       2.635   8.349  21.084  0.00  0.00    +0.000 HD
ATOM     12  H   UNL     1       2.343   8.661  22.755  0.00  0.00    +0.000 HD
ENDROOT
BRANCH   1  18
ATOM     13  C   UNL     1      -5.428  11.906  19.320  0.00  0.00    +0.000 C 
ATOM     14  O   UNL     1      -5.449  12.277  20.495  0.00  0.00    +0.000 OA
ATOM     15  N   UNL     1      -4.252  11.850  18.603  0.00  0.00    +0.000 N 
ATOM     16  C   UNL     1      -4.073  11.530  17.202  0.00  0.00    +0.000 C 
ATOM     17  C   UNL     1      -2.708  10.862  17.168  0.00  0.00    +0.000 C 
ATOM     18  C   UNL     1      -1.897  11.597  18.250  0.00  0.00    +0.000 C 
ATOM     19  C   UNL     1      -2.963  12.107  19.239  0.00  0.00    +0.000 C 
BRANCH  13  21
ATOM     20  C   UNL     1      -7.094  10.039  18.930  0.00  0.00    +0.000 C 
ATOM     21  C   UNL     1      -6.692  11.468  18.596  0.00  0.00    +0.000 C 
ENDBRANCH  13  21
ENDBRANCH   1  18
BRANCH   3  22
ATOM     22  C   UNL     1       1.823   8.544  18.461  0.00  0.00    +0.000 C 
ATOM     23  C   UNL     1       2.645   7.721  18.137  0.00  0.00    +0.000 C 
BRANCH  23  24
ATOM     24  C   UNL     1       3.573   6.686  17.762  0.00  0.00    +0.000 A 
ATOM     25  C   UNL     1       4.883   7.008  17.377  0.00  0.00    +0.000 A 
ATOM     26  C   UNL     1       5.789   6.005  17.011  0.00  0.00    +0.000 A 
ATOM     27  C   UNL     1       5.379   4.673  17.036  0.00  0.00    +0.000 A 
ATOM     28  C   UNL     1       4.080   4.335  17.428  0.00  0.00    +0.000 A 
ATOM     29  C   UNL     1       3.180   5.340  17.794  0.00  0.00    +0.000 A 
BRANCH  26  30
ATOM     30  O   UNL     1       7.038   6.438  16.646  0.00  0.00    +0.000 OA
ATOM     31  C   UNL     1       7.616   7.474  17.438  0.00  0.00    +0.000 C 
ENDBRANCH  26  30
BRANCH  28  32
ATOM     32  O   UNL     1       3.832   2.989  17.405  0.00  0.00    +0.000 OA
ATOM     33  C   UNL     1       2.507   2.563  17.684  0.00  0.00    +0.000 C 
ENDBRANCH  28  32
ENDBRANCH  23  24
ENDBRANCH   3  22
TORSDOF 6
ENDMDL
MODEL 4
REMARK VINA RESULT:      -8.3      2.273      3.837
REMARK  Name = 
REMARK  9 active torsions:
REMARK  status: ('A' for Active; 'I' for Inactive)
REMARK    1  A    between atoms: C_1  and  C_2
REMARK    2  A    between atoms: C_2  and  C_3
REMARK    3  A    between atoms: C_8  and  N_9
REMARK    4  A    between atoms: C_11  and  C_12
REMARK    5  A    between atoms: C_13  and  C_14
REMARK    6  A    between atoms: C_16  and  O_17
REMARK    7  A    between atoms: O_17  and  C_18
REMARK    8  A    between atoms: C_20  and  O_21
REMARK    9  A    between atoms: O_21  and  C_22
REMARK                            x       y       z     vdW  Elec       q    Type
REMARK                         _______ _______ _______ _____ _____    ______ ____
ROOT
ATOM      1  N   UNL     1      -0.434  11.361  21.070  0.00  0.00    +0.000 N 
ATOM      2  N   UNL     1       0.605  10.519  20.834  0.00  0.00    +0.000 NA
ATOM      3  C   UNL     1       0.365  10.060  19.598  0.00  0.00    +0.000 A 
ATOM      4  C   UNL     1      -0.828  10.567  19.045  0.00  0.00    +0.000 A 
ATOM      5  C   UNL     1      -1.561  10.456  17.859  0.00  0.00    +0.000 A 
ATOM      6  N   UNL     1      -1.166   9.722  16.755  0.00  0.00    +0.000 N 
ATOM      7  N   UNL     1      -2.738  11.112  17.770  0.00  0.00    +0.000 NA
ATOM      8  C   UNL     1      -3.138  11.864  18.815  0.00  0.00    +0.000 A 
ATOM      9  N   UNL     1      -2.502  12.070  19.985  0.00  0.00    +0.000 NA
ATOM     10  C   UNL     1      -1.344  11.386  20.037  0.00  0.00    +0.000 A 
ATOM     11  H   UNL     1      -0.517   8.962  16.906  0.00  0.00    +0.000 HD
ATOM     12  H   UNL     1      -1.926   9.557  16.108  0.00  0.00    +0.000 HD
ENDROOT
BRANCH   1  18
ATOM     13  C   UNL     1      -3.619  13.156  24.106  0.00  0.00    +0.000 C 
ATOM     14  O   UNL     1      -4.285  12.152  24.364  0.00  0.00    +0.000 OA
ATOM     15  N   UNL     1      -2.349  13.061  23.576  0.00  0.00    +0.000 N 
ATOM     16  C   UNL     1      -1.410  14.130  23.308  0.00  0.00    +0.000 C 
ATOM     17  C   UNL     1      -0.638  13.623  22.102  0.00  0.00    +0.000 C 
ATOM     18  C   UNL     1      -0.553  12.101  22.316  0.00  0.00    +0.000 C 
ATOM     19  C   UNL     1      -1.786  11.773  23.182  0.00  0.00    +0.000 C 
BRANCH  13  21
ATOM     20  C   UNL     1      -5.453  14.819  23.573  0.00  0.00    +0.000 C 
ATOM     21  C   UNL     1      -4.161  14.558  24.334  0.00  0.00    +0.000 C 
ENDBRANCH  13  21
ENDBRANCH   1  18
BRANCH   3  22
ATOM     22  C   UNL     1       1.269   9.126  18.995  0.00  0.00    +0.000 C 
ATOM     23  C   UNL     1       1.997   8.264  18.565  0.00  0.00    +0.000 C 
BRANCH  23  24
ATOM     24  C   UNL     1       2.815   7.184  18.077  0.00  0.00    +0.000 A 
ATOM     25  C   UNL     1       2.473   5.851  18.349  0.00  0.00    +0.000 A 
ATOM     26  C   UNL     1       3.267   4.798  17.877  0.00  0.00    +0.000 A 
ATOM     27  C   UNL     1       4.405   5.085  17.125  0.00  0.00    +0.000 A 
ATOM     28  C   UNL     1       4.752   6.409  16.836  0.00  0.00    +0.000 A 
ATOM     29  C   UNL     1       3.956   7.456  17.308  0.00  0.00    +0.000 A 
BRANCH  26  30
ATOM     30  O   UNL     1       2.840   3.538  18.210  0.00  0.00    +0.000 OA
ATOM     31  C   UNL     1       1.430   3.342  18.306  0.00  0.00    +0.000 C 
ENDBRANCH  26  30
BRANCH  28  32
ATOM     32  O   UNL     1       5.891   6.525  16.086  0.00  0.00    +0.000 OA
ATOM     33  C   UNL     1       6.787   5.424  16.082  0.00  0.00    +0.000 C 
ENDBRANCH  28  32
ENDBRANCH  23  24
ENDBRANCH   3  22
TORSDOF 6
ENDMDL
MODEL 5
REMARK VINA RESULT:      -8.3      2.235      4.280
REMARK  Name = 
REMARK  9 active torsions:
REMARK  status: ('A' for Active; 'I' for Inactive)
REMARK    1  A    between atoms: C_1  and  C_2
REMARK    2  A    between atoms: C_2  and  C_3
REMARK    3  A    between atoms: C_8  and  N_9
REMARK    4  A    between atoms: C_11  and  C_12
REMARK    5  A    between atoms: C_13  and  C_14
REMARK    6  A    between atoms: C_16  and  O_17
REMARK    7  A    between atoms: O_17  and  C_18
REMARK    8  A    between atoms: C_20  and  O_21
REMARK    9  A    between atoms: O_21  and  C_22
REMARK                            x       y       z     vdW  Elec       q    Type
REMARK                         _______ _______ _______ _____ _____    ______ ____
ROOT
ATOM      1  N   UNL     1      -0.366  11.280  20.999  0.00  0.00    +0.000 N 
ATOM      2  N   UNL     1       0.654  10.418  20.747  0.00  0.00    +0.000 NA
ATOM      3  C   UNL     1       0.393   9.971  19.511  0.00  0.00    +0.000 A 
ATOM      4  C   UNL     1      -0.795  10.508  18.972  0.00  0.00    +0.000 A 
ATOM      5  C   UNL     1      -1.540  10.421  17.792  0.00  0.00    +0.000 A 
ATOM      6  N   UNL     1      -1.171   9.686  16.680  0.00  0.00    +0.000 N 
ATOM      7  N   UNL     1      -2.704  11.102  17.718  0.00  0.00    +0.000 NA
ATOM      8  C   UNL     1      -3.078  11.856  18.772  0.00  0.00    +0.000 A 
ATOM      9  N   UNL     1      -2.427  12.040  19.937  0.00  0.00    +0.000 NA
ATOM     10  C   UNL     1      -1.283  11.332  19.974  0.00  0.00    +0.000 A 
ATOM     11  H   UNL     1      -0.537   8.911  16.820  0.00  0.00    +0.000 HD
ATOM     12  H   UNL     1      -1.941   9.542  16.039  0.00  0.00    +0.000 HD
ENDROOT
BRANCH   1  18
ATOM     13  C   UNL     1      -3.483  13.104  24.086  0.00  0.00    +0.000 C 
ATOM     14  O   UNL     1      -4.161  12.109  24.346  0.00  0.00    +0.000 OA
ATOM     15  N   UNL     1      -2.222  12.994  23.539  0.00  0.00    +0.000 N 
ATOM     16  C   UNL     1      -1.270  14.050  23.265  0.00  0.00    +0.000 C 
ATOM     17  C   UNL     1      -0.521  13.538  22.046  0.00  0.00    +0.000 C 
ATOM     18  C   UNL     1      -0.457  12.014  22.251  0.00  0.00    +0.000 C 
ATOM     19  C   UNL     1      -1.684  11.699  23.130  0.00  0.00    +0.000 C 
BRANCH  13  21
ATOM     20  C   UNL     1      -5.070  14.927  23.329  0.00  0.00    +0.000 C 
ATOM     21  C   UNL     1      -4.001  14.513  24.329  0.00  0.00    +0.000 C 
ENDBRANCH  13  21
ENDBRANCH   1  18
BRANCH   3  22
ATOM     22  C   UNL     1       1.271   9.023  18.893  0.00  0.00    +0.000 C 
ATOM     23  C   UNL     1       1.989   8.154  18.461  0.00  0.00    +0.000 C 
BRANCH  23  24
ATOM     24  C   UNL     1       2.803   7.068  17.981  0.00  0.00    +0.000 A 
ATOM     25  C   UNL     1       4.073   7.314  17.438  0.00  0.00    +0.000 A 
ATOM     26  C   UNL     1       4.868   6.260  16.968  0.00  0.00    +0.000 A 
ATOM     27  C   UNL     1       4.387   4.955  17.050  0.00  0.00    +0.000 A 
ATOM     28  C   UNL     1       3.127   4.692  17.599  0.00  0.00    +0.000 A 
ATOM     29  C   UNL     1       2.339   5.747  18.067  0.00  0.00    +0.000 A 
BRANCH  26  30
ATOM     30  O   UNL     1       6.086   6.621  16.452  0.00  0.00    +0.000 OA
ATOM     31  C   UNL     1       7.029   7.184  17.363  0.00  0.00    +0.000 C 
ENDBRANCH  26  30
BRANCH  28  32
ATOM     32  O   UNL     1       2.801   3.363  17.612  0.00  0.00    +0.000 OA
ATOM     33  C   UNL     1       3.795   2.450  18.052  0.00  0.00    +0.000 C 
ENDBRANCH  28  32
ENDBRANCH  23  24
ENDBRANCH   3  22
TORSDOF 6
ENDMDL
MODEL 6
REMARK VINA RESULT:      -8.1      2.528      3.968
REMARK  Name = 
REMARK  9 active torsions:
REMARK  status: ('A' for Active; 'I' for Inactive)
REMARK    1  A    between atoms: C_1  and  C_2
REMARK    2  A    between atoms: C_2  and  C_3
REMARK    3  A    between atoms: C_8  and  N_9
REMARK    4  A    between atoms: C_11  and  C_12
REMARK    5  A    between atoms: C_13  and  C_14
REMARK    6  A    between atoms: C_16  and  O_17
REMARK    7  A    between atoms: O_17  and  C_18
REMARK    8  A    between atoms: C_20  and  O_21
REMARK    9  A    between atoms: O_21  and  C_22
REMARK                            x       y       z     vdW  Elec       q    Type
REMARK                         _______ _______ _______ _____ _____    ______ ____
ROOT
ATOM      1  N   UNL     1      -0.788  11.236  22.019  0.00  0.00    +0.000 N 
ATOM      2  N   UNL     1      -0.063  10.099  22.181  0.00  0.00    +0.000 NA
ATOM      3  C   UNL     1       0.202   9.711  20.926  0.00  0.00    +0.000 A 
ATOM      4  C   UNL     1      -0.367  10.563  19.956  0.00  0.00    +0.000 A 
ATOM      5  C   UNL     1      -0.430  10.666  18.563  0.00  0.00    +0.000 A 
ATOM      6  N   UNL     1       0.214   9.817  17.681  0.00  0.00    +0.000 N 
ATOM      7  N   UNL     1      -1.165  11.664  18.027  0.00  0.00    +0.000 NA
ATOM      8  C   UNL     1      -1.779  12.530  18.858  0.00  0.00    +0.000 A 
ATOM      9  N   UNL     1      -1.760  12.548  20.205  0.00  0.00    +0.000 NA
ATOM     10  C   UNL     1      -1.030  11.529  20.696  0.00  0.00    +0.000 A 
ATOM     11  H   UNL     1       0.453   8.892  18.011  0.00  0.00    +0.000 HD
ATOM     12  H   UNL     1      -0.149   9.891  16.739  0.00  0.00    +0.000 HD
ENDROOT
BRANCH   1  18
ATOM     13  C   UNL     1      -4.602  13.538  23.673  0.00  0.00    +0.000 C 
ATOM     14  O   UNL     1      -5.454  12.650  23.610  0.00  0.00    +0.000 OA
ATOM     15  N   UNL     1      -3.254  13.245  23.668  0.00  0.00    +0.000 N 
ATOM     16  C   UNL     1      -2.141  14.156  23.829  0.00  0.00    +0.000 C 
ATOM     17  C   UNL     1      -1.044  13.519  22.992  0.00  0.00    +0.000 C 
ATOM     18  C   UNL     1      -1.271  12.005  23.155  0.00  0.00    +0.000 C 
ATOM     19  C   UNL     1      -2.776  11.880  23.464  0.00  0.00    +0.000 C 
BRANCH  13  21
ATOM     20  C   UNL     1      -5.373  15.573  22.378  0.00  0.00    +0.000 C 
ATOM     21  C   UNL     1      -4.981  15.009  23.736  0.00  0.00    +0.000 C 
ENDBRANCH  13  21
ENDBRANCH   1  18
BRANCH   3  22
ATOM     22  C   UNL     1       0.964   8.522  20.691  0.00  0.00    +0.000 C 
ATOM     23  C   UNL     1       1.582   7.531  20.383  0.00  0.00    +0.000 C 
BRANCH  23  24
ATOM     24  C   UNL     1       2.330   6.380  19.947  0.00  0.00    +0.000 A 
ATOM     25  C   UNL     1       2.265   5.175  20.662  0.00  0.00    +0.000 A 
ATOM     26  C   UNL     1       2.993   4.054  20.243  0.00  0.00    +0.000 A 
ATOM     27  C   UNL     1       3.783   4.142  19.099  0.00  0.00    +0.000 A 
ATOM     28  C   UNL     1       3.849   5.333  18.369  0.00  0.00    +0.000 A 
ATOM     29  C   UNL     1       3.120   6.449  18.791  0.00  0.00    +0.000 A 
BRANCH  26  30
ATOM     30  O   UNL     1       2.858   2.934  21.024  0.00  0.00    +0.000 OA
ATOM     31  C   UNL     1       1.549   2.642  21.509  0.00  0.00    +0.000 C 
ENDBRANCH  26  30
BRANCH  28  32
ATOM     32  O   UNL     1       4.662   5.259  17.271  0.00  0.00    +0.000 OA
ATOM     33  C   UNL     1       5.014   6.478  16.635  0.00  0.00    +0.000 C 
ENDBRANCH  28  32
ENDBRANCH  23  24
ENDBRANCH   3  22
TORSDOF 6
ENDMDL
MODEL 7
REMARK VINA RESULT:      -7.9      2.356      4.309
REMARK  Name = 
REMARK  9 active torsions:
REMARK  status: ('A' for Active; 'I' for Inactive)
REMARK    1  A    between atoms: C_1  and  C_2
REMARK    2  A    between atoms: C_2  and  C_3
REMARK    3  A    between atoms: C_8  and  N_9
REMARK    4  A    between atoms: C_11  and  C_12
REMARK    5  A    between atoms: C_13  and  C_14
REMARK    6  A    between atoms: C_16  and  O_17
REMARK    7  A    between atoms: O_17  and  C_18
REMARK    8  A    between atoms: C_20  and  O_21
REMARK    9  A    between atoms: O_21  and  C_22
REMARK                            x       y       z     vdW  Elec       q    Type
REMARK                         _______ _______ _______ _____ _____    ______ ____
ROOT
ATOM      1  N   UNL     1      -0.740  11.189  21.885  0.00  0.00    +0.000 N 
ATOM      2  N   UNL     1       0.101  10.126  21.982  0.00  0.00    +0.000 NA
ATOM      3  C   UNL     1       0.271   9.740  20.710  0.00  0.00    +0.000 A 
ATOM      4  C   UNL     1      -0.470  10.517  19.796  0.00  0.00    +0.000 A 
ATOM      5  C   UNL     1      -0.685  10.586  18.416  0.00  0.00    +0.000 A 
ATOM      6  N   UNL     1      -0.057   9.782  17.481  0.00  0.00    +0.000 N 
ATOM      7  N   UNL     1      -1.561  11.501  17.949  0.00  0.00    +0.000 NA
ATOM      8  C   UNL     1      -2.166  12.323  18.830  0.00  0.00    +0.000 A 
ATOM      9  N   UNL     1      -2.010  12.369  20.168  0.00  0.00    +0.000 NA
ATOM     10  C   UNL     1      -1.143  11.431  20.591  0.00  0.00    +0.000 A 
ATOM     11  H   UNL     1       0.300   8.890  17.794  0.00  0.00    +0.000 HD
ATOM     12  H   UNL     1      -0.519   9.804  16.581  0.00  0.00    +0.000 HD
ENDROOT
BRANCH   1  18
ATOM     13  C   UNL     1      -4.472  13.475  23.735  0.00  0.00    +0.000 C 
ATOM     14  O   UNL     1      -5.333  12.595  23.682  0.00  0.00    +0.000 OA
ATOM     15  N   UNL     1      -3.128  13.172  23.674  0.00  0.00    +0.000 N 
ATOM     16  C   UNL     1      -2.002  14.071  23.816  0.00  0.00    +0.000 C 
ATOM     17  C   UNL     1      -0.942  13.447  22.923  0.00  0.00    +0.000 C 
ATOM     18  C   UNL     1      -1.175  11.932  23.056  0.00  0.00    +0.000 C 
ATOM     19  C   UNL     1      -2.668  11.810  23.418  0.00  0.00    +0.000 C 
BRANCH  13  21
ATOM     20  C   UNL     1      -5.209  15.565  22.510  0.00  0.00    +0.000 C 
ATOM     21  C   UNL     1      -4.837  14.947  23.849  0.00  0.00    +0.000 C 
ENDBRANCH  13  21
ENDBRANCH   1  18
BRANCH   3  22
ATOM     22  C   UNL     1       1.114   8.621  20.410  0.00  0.00    +0.000 C 
ATOM     23  C   UNL     1       1.765   7.667  20.060  0.00  0.00    +0.000 C 
BRANCH  23  24
ATOM     24  C   UNL     1       2.527   6.547  19.572  0.00  0.00    +0.000 A 
ATOM     25  C   UNL     1       3.295   6.662  18.403  0.00  0.00    +0.000 A 
ATOM     26  C   UNL     1       4.037   5.575  17.924  0.00  0.00    +0.000 A 
ATOM     27  C   UNL     1       4.012   4.371  18.624  0.00  0.00    +0.000 A 
ATOM     28  C   UNL     1       3.261   4.244  19.797  0.00  0.00    +0.000 A 
ATOM     29  C   UNL     1       2.523   5.332  20.272  0.00  0.00    +0.000 A 
BRANCH  26  30
ATOM     30  O   UNL     1       4.742   5.802  16.769  0.00  0.00    +0.000 OA
ATOM     31  C   UNL     1       6.136   5.505  16.799  0.00  0.00    +0.000 C 
ENDBRANCH  26  30
BRANCH  28  32
ATOM     32  O   UNL     1       3.343   3.003  20.369  0.00  0.00    +0.000 OA
ATOM     33  C   UNL     1       4.454   2.192  20.016  0.00  0.00    +0.000 C 
ENDBRANCH  28  32
ENDBRANCH  23  24
ENDBRANCH   3  22
TORSDOF 6
ENDMDL
MODEL 8
REMARK VINA RESULT:      -7.9      1.323      1.436
REMARK  Name = 
REMARK  9 active torsions:
REMARK  status: ('A' for Active; 'I' for Inactive)
REMARK    1  A    between atoms: C_1  and  C_2
REMARK    2  A    between atoms: C_2  and  C_3
REMARK    3  A    between atoms: C_8  and  N_9
REMARK    4  A    between atoms: C_11  and  C_12
REMARK    5  A    between atoms: C_13  and  C_14
REMARK    6  A    between atoms: C_16  and  O_17
REMARK    7  A    between atoms: O_17  and  C_18
REMARK    8  A    between atoms: C_20  and  O_21
REMARK    9  A    between atoms: O_21  and  C_22
REMARK                            x       y       z     vdW  Elec       q    Type
REMARK                         _______ _______ _______ _____ _____    ______ ____
ROOT
ATOM      1  N   UNL     1      -0.477  10.444  18.295  0.00  0.00    +0.000 N 
ATOM      2  N   UNL     1       0.470   9.844  17.529  0.00  0.00    +0.000 NA
ATOM      3  C   UNL     1       1.194   9.143  18.412  0.00  0.00    +0.000 A 
ATOM      4  C   UNL     1       0.749   9.306  19.740  0.00  0.00    +0.000 A 
ATOM      5  C   UNL     1       1.087   8.854  21.019  0.00  0.00    +0.000 A 
ATOM      6  N   UNL     1       2.092   7.943  21.292  0.00  0.00    +0.000 N 
ATOM      7  N   UNL     1       0.388   9.329  22.073  0.00  0.00    +0.000 NA
ATOM      8  C   UNL     1      -0.620  10.194  21.840  0.00  0.00    +0.000 A 
ATOM      9  N   UNL     1      -1.053  10.668  20.656  0.00  0.00    +0.000 NA
ATOM     10  C   UNL     1      -0.320  10.182  19.638  0.00  0.00    +0.000 A 
ATOM     11  H   UNL     1       2.838   7.853  20.616  0.00  0.00    +0.000 HD
ATOM     12  H   UNL     1       2.351   7.934  22.270  0.00  0.00    +0.000 HD
ENDROOT
BRANCH   1  18
ATOM     13  C   UNL     1      -5.023  11.744  18.776  0.00  0.00    +0.000 C 
ATOM     14  O   UNL     1      -5.033  12.123  19.948  0.00  0.00    +0.000 OA
ATOM     15  N   UNL     1      -3.847  11.640  18.063  0.00  0.00    +0.000 N 
ATOM     16  C   UNL     1      -3.676  11.305  16.665  0.00  0.00    +0.000 C 
ATOM     17  C   UNL     1      -2.336  10.588  16.639  0.00  0.00    +0.000 C 
ATOM     18  C   UNL     1      -1.502  11.300  17.718  0.00  0.00    +0.000 C 
ATOM     19  C   UNL     1      -2.551  11.855  18.701  0.00  0.00    +0.000 C 
BRANCH  13  21
ATOM     20  C   UNL     1      -7.228  12.528  17.808  0.00  0.00    +0.000 C 
ATOM     21  C   UNL     1      -6.299  11.347  18.051  0.00  0.00    +0.000 C 
ENDBRANCH  13  21
ENDBRANCH   1  18
BRANCH   3  22
ATOM     22  C   UNL     1       2.308   8.362  17.963  0.00  0.00    +0.000 C 
ATOM     23  C   UNL     1       3.261   7.672  17.694  0.00  0.00    +0.000 C 
BRANCH  23  24
ATOM     24  C   UNL     1       4.380   6.805  17.430  0.00  0.00    +0.000 A 
ATOM     25  C   UNL     1       5.085   6.209  18.487  0.00  0.00    +0.000 A 
ATOM     26  C   UNL     1       6.175   5.366  18.235  0.00  0.00    +0.000 A 
ATOM     27  C   UNL     1       6.553   5.116  16.918  0.00  0.00    +0.000 A 
ATOM     28  C   UNL     1       5.853   5.693  15.853  0.00  0.00    +0.000 A 
ATOM     29  C   UNL     1       4.766   6.533  16.110  0.00  0.00    +0.000 A 
BRANCH  26  30
ATOM     30  O   UNL     1       6.791   4.848  19.345  0.00  0.00    +0.000 OA
ATOM     31  C   UNL     1       7.940   5.542  19.826  0.00  0.00    +0.000 C 
ENDBRANCH  26  30
BRANCH  28  32
ATOM     32  O   UNL     1       6.344   5.347  14.623  0.00  0.00    +0.000 OA
ATOM     33  C   UNL     1       5.781   4.207  13.992  0.00  0.00    +0.000 C 
ENDBRANCH  28  32
ENDBRANCH  23  24
ENDBRANCH   3  22
TORSDOF 6
ENDMDL
MODEL 9
REMARK VINA RESULT:      -7.9      3.275      4.051
REMARK  Name = 
REMARK  9 active torsions:
REMARK  status: ('A' for Active; 'I' for Inactive)
REMARK    1  A    between atoms: C_1  and  C_2
REMARK    2  A    between atoms: C_2  and  C_3
REMARK    3  A    between atoms: C_8  and  N_9
REMARK    4  A    between atoms: C_11  and  C_12
REMARK    5  A    between atoms: C_13  and  C_14
REMARK    6  A    between atoms: C_16  and  O_17
REMARK    7  A    between atoms: O_17  and  C_18
REMARK    8  A    between atoms: C_20  and  O_21
REMARK    9  A    between atoms: O_21  and  C_22
REMARK                            x       y       z     vdW  Elec       q    Type
REMARK                         _______ _______ _______ _____ _____    ______ ____
ROOT
ATOM      1  N   UNL     1       1.129  11.837  18.972  0.00  0.00    +0.000 N 
ATOM      2  N   UNL     1       1.733  10.867  18.236  0.00  0.00    +0.000 NA
ATOM      3  C   UNL     1       1.521   9.752  18.947  0.00  0.00    +0.000 A 
ATOM      4  C   UNL     1       0.817   9.990  20.146  0.00  0.00    +0.000 A 
ATOM      5  C   UNL     1       0.331   9.261  21.236  0.00  0.00    +0.000 A 
ATOM      6  N   UNL     1       0.417   7.886  21.363  0.00  0.00    +0.000 N 
ATOM      7  N   UNL     1      -0.271   9.933  22.240  0.00  0.00    +0.000 NA
ATOM      8  C   UNL     1      -0.402  11.271  22.132  0.00  0.00    +0.000 A 
ATOM      9  N   UNL     1      -0.006  12.068  21.120  0.00  0.00    +0.000 NA
ATOM     10  C   UNL     1       0.603  11.359  20.150  0.00  0.00    +0.000 A 
ATOM     11  H   UNL     1       1.146   7.412  20.847  0.00  0.00    +0.000 HD
ATOM     12  H   UNL     1       0.246   7.575  22.311  0.00  0.00    +0.000 HD
ENDROOT
BRANCH   1  18
ATOM     13  C   UNL     1       1.385  16.298  20.586  0.00  0.00    +0.000 C 
ATOM     14  O   UNL     1       2.451  16.262  21.203  0.00  0.00    +0.000 OA
ATOM     15  N   UNL     1       1.075  15.359  19.625  0.00  0.00    +0.000 N 
ATOM     16  C   UNL     1      -0.081  15.318  18.754  0.00  0.00    +0.000 C 
ATOM     17  C   UNL     1      -0.309  13.830  18.546  0.00  0.00    +0.000 C 
ATOM     18  C   UNL     1       1.106  13.225  18.539  0.00  0.00    +0.000 C 
ATOM     19  C   UNL     1       1.941  14.209  19.382  0.00  0.00    +0.000 C 
BRANCH  13  21
ATOM     20  C   UNL     1      -0.381  17.156  22.186  0.00  0.00    +0.000 C 
ATOM     21  C   UNL     1       0.336  17.366  20.861  0.00  0.00    +0.000 C 
ENDBRANCH  13  21
ENDBRANCH   1  18
BRANCH   3  22
ATOM     22  C   UNL     1       2.023   8.496  18.474  0.00  0.00    +0.000 C 
ATOM     23  C   UNL     1       2.489   7.423  18.180  0.00  0.00    +0.000 C 
BRANCH  23  24
ATOM     24  C   UNL     1       3.039   6.121  17.901  0.00  0.00    +0.000 A 
ATOM     25  C   UNL     1       2.210   4.990  17.866  0.00  0.00    +0.000 A 
ATOM     26  C   UNL     1       2.740   3.722  17.596  0.00  0.00    +0.000 A 
ATOM     27  C   UNL     1       4.106   3.591  17.356  0.00  0.00    +0.000 A 
ATOM     28  C   UNL     1       4.944   4.710  17.376  0.00  0.00    +0.000 A 
ATOM     29  C   UNL     1       4.409   5.974  17.645  0.00  0.00    +0.000 A 
BRANCH  26  30
ATOM     30  O   UNL     1       1.836   2.689  17.596  0.00  0.00    +0.000 OA
ATOM     31  C   UNL     1       1.162   2.424  18.824  0.00  0.00    +0.000 C 
ENDBRANCH  26  30
BRANCH  28  32
ATOM     32  O   UNL     1       6.256   4.419  17.117  0.00  0.00    +0.000 OA
ATOM     33  C   UNL     1       7.234   4.997  17.968  0.00  0.00    +0.000 C 
ENDBRANCH  28  32
ENDBRANCH  23  24
ENDBRANCH   3  22
TORSDOF 6
ENDMDL
