MODEL 1
REMARK VINA RESULT:      -9.1      0.000      0.000
REMARK  Name = 
REMARK  10 active torsions:
REMARK  status: ('A' for Active; 'I' for Inactive)
REMARK    1  A    between atoms: N_4  and  N_5
REMARK    2  A    between atoms: C_6  and  C_7
REMARK    3  A    between atoms: C_12  and  O_13
REMARK    4  A    between atoms: O_13  and  C_14
REMARK    5  A    between atoms: C_14  and  C_15
REMARK    6  A    between atoms: C_19  and  C_20
REMARK    7  A    between atoms: C_20  and  O_21
REMARK    8  A    between atoms: O_21  and  C_22
REMARK    9  A    between atoms: C_27  and  C_28
REMARK   10  A    between atoms: N_29  and  N_30
REMARK                            x       y       z     vdW  Elec       q    Type
REMARK                         _______ _______ _______ _____ _____    ______ ____
ROOT
ATOM      1  C   UNL     1       1.006   9.468  20.385  0.00  0.00    +0.000 A 
ATOM      2  C   UNL     1       1.010  10.243  19.223  0.00  0.00    +0.000 A 
ATOM      3  C   UNL     1       1.596   9.729  18.078  0.00  0.00    +0.000 A 
ATOM      4  C   UNL     1       2.166   8.465  18.105  0.00  0.00    +0.000 A 
ATOM      5  C   UNL     1       2.159   7.765  19.309  0.00  0.00    +0.000 A 
ATOM      6  N   UNL     1       1.584   8.246  20.438  0.00  0.00    +0.000 NA
ENDROOT
BRANCH   1   7
ATOM      7  C   UNL     1       0.152   9.854  21.570  0.00  0.00    +0.000 C 
BRANCH   7   8
ATOM      8  O   UNL     1       0.120  11.249  21.809  0.00  0.00    +0.000 OA
BRANCH   8  14
ATOM      9  C   UNL     1      -1.767  12.719  20.992  0.00  0.00    +0.000 A 
ATOM     10  C   UNL     1      -3.036  13.240  21.342  0.00  0.00    +0.000 A 
ATOM     11  C   UNL     1      -3.628  12.952  22.569  0.00  0.00    +0.000 A 
ATOM     12  C   UNL     1      -2.967  12.132  23.469  0.00  0.00    +0.000 A 
ATOM     13  C   UNL     1      -1.710  11.615  23.137  0.00  0.00    +0.000 A 
ATOM     14  C   UNL     1      -1.091  11.885  21.898  0.00  0.00    +0.000 A 
BRANCH   9  16
ATOM     15  N   UNL     1      -1.593  12.432  18.470  0.00  0.00    +0.000 NA
ATOM     16  C   UNL     1      -1.410  13.053  19.598  0.00  0.00    +0.000 C 
BRANCH  15  20
ATOM     17  N   UNL     1      -2.319  11.397  16.173  0.00  0.00    +0.000 N 
ATOM     18  C   UNL     1      -2.615  10.650  17.272  0.00  0.00    +0.000 C 
ATOM     19  O   UNL     1      -3.333   9.660  17.220  0.00  0.00    +0.000 OA
ATOM     20  N   UNL     1      -2.139  11.180  18.457  0.00  0.00    +0.000 N 
ATOM     21  H   UNL     1      -2.843  11.219  15.329  0.00  0.00    +0.000 HD
ATOM     22  H   UNL     1      -1.997  12.333  16.379  0.00  0.00    +0.000 HD
ATOM     23  H   UNL     1      -2.501  10.763  19.309  0.00  0.00    +0.000 HD
ENDBRANCH  15  20
ENDBRANCH   9  16
ENDBRANCH   8  14
ENDBRANCH   7   8
ENDBRANCH   1   7
BRANCH   5  24
ATOM     24  C   UNL     1       2.860   6.441  19.430  0.00  0.00    +0.000 C 
BRANCH  24  25
ATOM     25  O   UNL     1       3.059   5.808  18.156  0.00  0.00    +0.000 OA
BRANCH  25  26
ATOM     26  C   UNL     1       2.990   4.434  18.186  0.00  0.00    +0.000 A 
ATOM     27  C   UNL     1       1.778   3.733  17.986  0.00  0.00    +0.000 A 
ATOM     28  C   UNL     1       1.686   2.353  18.180  0.00  0.00    +0.000 A 
ATOM     29  C   UNL     1       2.816   1.633  18.523  0.00  0.00    +0.000 A 
ATOM     30  C   UNL     1       4.033   2.296  18.665  0.00  0.00    +0.000 A 
ATOM     31  C   UNL     1       4.138   3.699  18.505  0.00  0.00    +0.000 A 
BRANCH  31  32
ATOM     32  C   UNL     1       5.448   4.218  18.956  0.00  0.00    +0.000 C 
ATOM     33  N   UNL     1       6.593   4.502  18.417  0.00  0.00    +0.000 NA
BRANCH  33  34
ATOM     34  N   UNL     1       6.900   4.324  17.114  0.00  0.00    +0.000 N 
ATOM     35  C   UNL     1       7.155   5.463  16.378  0.00  0.00    +0.000 C 
ATOM     36  N   UNL     1       7.299   5.229  15.044  0.00  0.00    +0.000 N 
ATOM     37  O   UNL     1       7.226   6.620  16.788  0.00  0.00    +0.000 OA
ATOM     38  H   UNL     1       7.250   3.429  16.795  0.00  0.00    +0.000 HD
ATOM     39  H   UNL     1       6.544   4.682  14.660  0.00  0.00    +0.000 HD
ATOM     40  H   UNL     1       7.419   6.112  14.559  0.00  0.00    +0.000 HD
ENDBRANCH  33  34
ENDBRANCH  31  32
ENDBRANCH  25  26
ENDBRANCH  24  25
ENDBRANCH   5  24
TORSDOF 10
ENDMDL
MODEL 2
REMARK VINA RESULT:      -8.9      2.168      9.900
REMARK  Name = 
REMARK  10 active torsions:
REMARK  status: ('A' for Active; 'I' for Inactive)
REMARK    1  A    between atoms: N_4  and  N_5
REMARK    2  A    between atoms: C_6  and  C_7
REMARK    3  A    between atoms: C_12  and  O_13
REMARK    4  A    between atoms: O_13  and  C_14
REMARK    5  A    between atoms: C_14  and  C_15
REMARK    6  A    between atoms: C_19  and  C_20
REMARK    7  A    between atoms: C_20  and  O_21
REMARK    8  A    between atoms: O_21  and  C_22
REMARK    9  A    between atoms: C_27  and  C_28
REMARK   10  A    between atoms: N_29  and  N_30
REMARK                            x       y       z     vdW  Elec       q    Type
REMARK                         _______ _______ _______ _____ _____    ______ ____
ROOT
ATOM      1  C   UNL     1       1.800   8.155  19.620  0.00  0.00    +0.000 A 
ATOM      2  C   UNL     1       1.529   7.856  20.957  0.00  0.00    +0.000 A 
ATOM      3  C   UNL     1       0.632   8.651  21.652  0.00  0.00    +0.000 A 
ATOM      4  C   UNL     1       0.024   9.722  21.014  0.00  0.00    +0.000 A 
ATOM      5  C   UNL     1       0.371   9.983  19.690  0.00  0.00    +0.000 A 
ATOM      6  N   UNL     1       1.240   9.213  18.990  0.00  0.00    +0.000 NA
ENDROOT
BRANCH   1   7
ATOM      7  C   UNL     1       2.546   7.175  18.744  0.00  0.00    +0.000 C 
BRANCH   7   8
ATOM      8  O   UNL     1       3.013   6.037  19.445  0.00  0.00    +0.000 OA
BRANCH   8  14
ATOM      9  C   UNL     1       2.814   3.905  18.101  0.00  0.00    +0.000 A 
ATOM     10  C   UNL     1       2.123   2.672  18.021  0.00  0.00    +0.000 A 
ATOM     11  C   UNL     1       1.133   2.331  18.938  0.00  0.00    +0.000 A 
ATOM     12  C   UNL     1       0.817   3.212  19.959  0.00  0.00    +0.000 A 
ATOM     13  C   UNL     1       1.488   4.437  20.046  0.00  0.00    +0.000 A 
ATOM     14  C   UNL     1       2.500   4.804  19.134  0.00  0.00    +0.000 A 
BRANCH   9  16
ATOM     15  N   UNL     1       5.198   3.988  17.217  0.00  0.00    +0.000 NA
ATOM     16  C   UNL     1       3.903   3.982  17.106  0.00  0.00    +0.000 C 
BRANCH  15  20
ATOM     17  N   UNL     1       6.043   6.282  18.165  0.00  0.00    +0.000 N 
ATOM     18  C   UNL     1       6.317   5.193  18.935  0.00  0.00    +0.000 C 
ATOM     19  O   UNL     1       7.064   5.244  19.903  0.00  0.00    +0.000 OA
ATOM     20  N   UNL     1       5.780   4.014  18.453  0.00  0.00    +0.000 N 
ATOM     21  H   UNL     1       6.605   7.109  18.303  0.00  0.00    +0.000 HD
ATOM     22  H   UNL     1       5.686   6.063  17.243  0.00  0.00    +0.000 HD
ATOM     23  H   UNL     1       6.119   3.161  18.885  0.00  0.00    +0.000 HD
ENDBRANCH  15  20
ENDBRANCH   9  16
ENDBRANCH   8  14
ENDBRANCH   7   8
ENDBRANCH   1   7
BRANCH   5  24
ATOM     24  C   UNL     1      -0.166  11.195  18.981  0.00  0.00    +0.000 C 
BRANCH  24  25
ATOM     25  O   UNL     1      -1.547  11.442  19.290  0.00  0.00    +0.000 OA
BRANCH  25  26
ATOM     26  C   UNL     1      -2.414  11.213  18.246  0.00  0.00    +0.000 A 
ATOM     27  C   UNL     1      -1.977  10.721  16.993  0.00  0.00    +0.000 A 
ATOM     28  C   UNL     1      -2.834  10.648  15.893  0.00  0.00    +0.000 A 
ATOM     29  C   UNL     1      -4.160  11.011  16.032  0.00  0.00    +0.000 A 
ATOM     30  C   UNL     1      -4.625  11.440  17.274  0.00  0.00    +0.000 A 
ATOM     31  C   UNL     1      -3.764  11.553  18.392  0.00  0.00    +0.000 A 
BRANCH  31  32
ATOM     32  C   UNL     1      -4.399  12.270  19.519  0.00  0.00    +0.000 C 
ATOM     33  N   UNL     1      -4.116  13.281  20.282  0.00  0.00    +0.000 NA
BRANCH  33  34
ATOM     34  N   UNL     1      -2.974  13.997  20.223  0.00  0.00    +0.000 N 
ATOM     35  C   UNL     1      -2.215  14.048  21.375  0.00  0.00    +0.000 C 
ATOM     36  N   UNL     1      -1.165  14.912  21.299  0.00  0.00    +0.000 N 
ATOM     37  O   UNL     1      -2.408  13.441  22.427  0.00  0.00    +0.000 OA
ATOM     38  H   UNL     1      -2.542  14.188  19.327  0.00  0.00    +0.000 HD
ATOM     39  H   UNL     1      -1.436  15.828  20.975  0.00  0.00    +0.000 HD
ATOM     40  H   UNL     1      -0.692  14.946  22.197  0.00  0.00    +0.000 HD
ENDBRANCH  33  34
ENDBRANCH  31  32
ENDBRANCH  25  26
ENDBRANCH  24  25
ENDBRANCH   5  24
TORSDOF 10
ENDMDL
MODEL 3
REMARK VINA RESULT:      -8.8      1.922      3.448
REMARK  Name = 
REMARK  10 active torsions:
REMARK  status: ('A' for Active; 'I' for Inactive)
REMARK    1  A    between atoms: N_4  and  N_5
REMARK    2  A    between atoms: C_6  and  C_7
REMARK    3  A    between atoms: C_12  and  O_13
REMARK    4  A    between atoms: O_13  and  C_14
REMARK    5  A    between atoms: C_14  and  C_15
REMARK    6  A    between atoms: C_19  and  C_20
REMARK    7  A    between atoms: C_20  and  O_21
REMARK    8  A    between atoms: O_21  and  C_22
REMARK    9  A    between atoms: C_27  and  C_28
REMARK   10  A    between atoms: N_29  and  N_30
REMARK                            x       y       z     vdW  Elec       q    Type
REMARK                         _______ _______ _______ _____ _____    ______ ____
ROOT
ATOM      1  C   UNL     1       0.867   9.451  19.345  0.00  0.00    +0.000 A 
ATOM      2  C   UNL     1       0.411   9.254  20.651  0.00  0.00    +0.000 A 
ATOM      3  C   UNL     1       0.908   8.186  21.380  0.00  0.00    +0.000 A 
ATOM      4  C   UNL     1       1.842   7.336  20.805  0.00  0.00    +0.000 A 
ATOM      5  C   UNL     1       2.223   7.571  19.486  0.00  0.00    +0.000 A 
ATOM      6  N   UNL     1       1.755   8.615  18.758  0.00  0.00    +0.000 NA
ENDROOT
BRANCH   1   7
ATOM      7  C   UNL     1       0.575  10.737  18.610  0.00  0.00    +0.000 C 
BRANCH   7   8
ATOM      8  O   UNL     1      -0.493  11.478  19.173  0.00  0.00    +0.000 OA
BRANCH   8  14
ATOM      9  C   UNL     1      -2.983  11.891  19.038  0.00  0.00    +0.000 A 
ATOM     10  C   UNL     1      -4.142  11.611  18.276  0.00  0.00    +0.000 A 
ATOM     11  C   UNL     1      -4.089  10.813  17.136  0.00  0.00    +0.000 A 
ATOM     12  C   UNL     1      -2.875  10.282  16.732  0.00  0.00    +0.000 A 
ATOM     13  C   UNL     1      -1.723  10.546  17.481  0.00  0.00    +0.000 A 
ATOM     14  C   UNL     1      -1.747  11.358  18.634  0.00  0.00    +0.000 A 
BRANCH   9  16
ATOM     15  N   UNL     1      -2.912  12.916  21.366  0.00  0.00    +0.000 NA
ATOM     16  C   UNL     1      -3.264  12.861  20.116  0.00  0.00    +0.000 C 
BRANCH  15  20
ATOM     17  N   UNL     1      -1.277  13.435  23.349  0.00  0.00    +0.000 N 
ATOM     18  C   UNL     1      -1.273  12.147  22.909  0.00  0.00    +0.000 C 
ATOM     19  O   UNL     1      -0.440  11.329  23.276  0.00  0.00    +0.000 OA
ATOM     20  N   UNL     1      -2.210  11.885  21.926  0.00  0.00    +0.000 N 
ATOM     21  H   UNL     1      -0.469  13.759  23.860  0.00  0.00    +0.000 HD
ATOM     22  H   UNL     1      -1.790  14.077  22.759  0.00  0.00    +0.000 HD
ATOM     23  H   UNL     1      -2.111  11.001  21.439  0.00  0.00    +0.000 HD
ENDBRANCH  15  20
ENDBRANCH   9  16
ENDBRANCH   8  14
ENDBRANCH   7   8
ENDBRANCH   1   7
BRANCH   5  24
ATOM     24  C   UNL     1       3.143   6.621  18.772  0.00  0.00    +0.000 C 
BRANCH  24  25
ATOM     25  O   UNL     1       2.461   5.843  17.777  0.00  0.00    +0.000 OA
BRANCH  25  26
ATOM     26  C   UNL     1       2.331   4.509  18.088  0.00  0.00    +0.000 A 
ATOM     27  C   UNL     1       1.377   4.039  19.021  0.00  0.00    +0.000 A 
ATOM     28  C   UNL     1       1.361   2.710  19.451  0.00  0.00    +0.000 A 
ATOM     29  C   UNL     1       2.263   1.808  18.918  0.00  0.00    +0.000 A 
ATOM     30  C   UNL     1       3.171   2.237  17.952  0.00  0.00    +0.000 A 
ATOM     31  C   UNL     1       3.224   3.587  17.528  0.00  0.00    +0.000 A 
BRANCH  31  32
ATOM     32  C   UNL     1       4.420   3.871  16.707  0.00  0.00    +0.000 C 
ATOM     33  N   UNL     1       5.672   4.141  16.913  0.00  0.00    +0.000 NA
BRANCH  33  34
ATOM     34  N   UNL     1       6.243   4.275  18.129  0.00  0.00    +0.000 N 
ATOM     35  C   UNL     1       7.273   5.188  18.231  0.00  0.00    +0.000 C 
ATOM     36  N   UNL     1       7.909   5.160  19.435  0.00  0.00    +0.000 N 
ATOM     37  O   UNL     1       7.675   5.964  17.366  0.00  0.00    +0.000 OA
ATOM     38  H   UNL     1       5.738   3.992  18.960  0.00  0.00    +0.000 HD
ATOM     39  H   UNL     1       8.189   4.231  19.707  0.00  0.00    +0.000 HD
ATOM     40  H   UNL     1       8.691   5.808  19.417  0.00  0.00    +0.000 HD
ENDBRANCH  33  34
ENDBRANCH  31  32
ENDBRANCH  25  26
ENDBRANCH  24  25
ENDBRANCH   5  24
TORSDOF 10
ENDMDL
MODEL 4
REMARK VINA RESULT:      -8.8      2.433      3.687
REMARK  Name = 
REMARK  10 active torsions:
REMARK  status: ('A' for Active; 'I' for Inactive)
REMARK    1  A    between atoms: N_4  and  N_5
REMARK    2  A    between atoms: C_6  and  C_7
REMARK    3  A    between atoms: C_12  and  O_13
REMARK    4  A    between atoms: O_13  and  C_14
REMARK    5  A    between atoms: C_14  and  C_15
REMARK    6  A    between atoms: C_19  and  C_20
REMARK    7  A    between atoms: C_20  and  O_21
REMARK    8  A    between atoms: O_21  and  C_22
REMARK    9  A    between atoms: C_27  and  C_28
REMARK   10  A    between atoms: N_29  and  N_30
REMARK                            x       y       z     vdW  Elec       q    Type
REMARK                         _______ _______ _______ _____ _____    ______ ____
ROOT
ATOM      1  C   UNL     1       0.154   9.979  19.526  0.00  0.00    +0.000 A 
ATOM      2  C   UNL     1      -0.086   9.679  20.869  0.00  0.00    +0.000 A 
ATOM      3  C   UNL     1       0.630   8.653  21.464  0.00  0.00    +0.000 A 
ATOM      4  C   UNL     1       1.565   7.946  20.721  0.00  0.00    +0.000 A 
ATOM      5  C   UNL     1       1.724   8.276  19.377  0.00  0.00    +0.000 A 
ATOM      6  N   UNL     1       1.040   9.281  18.778  0.00  0.00    +0.000 NA
ENDROOT
BRANCH   1   7
ATOM      7  C   UNL     1      -0.387  11.247  18.908  0.00  0.00    +0.000 C 
BRANCH   7   8
ATOM      8  O   UNL     1      -1.778  11.422  19.111  0.00  0.00    +0.000 OA
BRANCH   8  14
ATOM      9  C   UNL     1      -4.009  11.516  17.928  0.00  0.00    +0.000 A 
ATOM     10  C   UNL     1      -4.654  11.257  16.694  0.00  0.00    +0.000 A 
ATOM     11  C   UNL     1      -3.958  10.743  15.603  0.00  0.00    +0.000 A 
ATOM     12  C   UNL     1      -2.603  10.482  15.720  0.00  0.00    +0.000 A 
ATOM     13  C   UNL     1      -1.955  10.728  16.936  0.00  0.00    +0.000 A 
ATOM     14  C   UNL     1      -2.634  11.256  18.055  0.00  0.00    +0.000 A 
BRANCH   9  16
ATOM     15  N   UNL     1      -5.980  11.776  19.516  0.00  0.00    +0.000 NA
ATOM     16  C   UNL     1      -4.918  12.180  18.885  0.00  0.00    +0.000 C 
BRANCH  15  20
ATOM     17  N   UNL     1      -7.589  10.694  21.281  0.00  0.00    +0.000 N 
ATOM     18  C   UNL     1      -7.275   9.908  20.215  0.00  0.00    +0.000 C 
ATOM     19  O   UNL     1      -7.564   8.719  20.168  0.00  0.00    +0.000 OA
ATOM     20  N   UNL     1      -6.500  10.538  19.259  0.00  0.00    +0.000 N 
ATOM     21  H   UNL     1      -7.919  10.240  22.120  0.00  0.00    +0.000 HD
ATOM     22  H   UNL     1      -7.042  11.543  21.350  0.00  0.00    +0.000 HD
ATOM     23  H   UNL     1      -6.087   9.938  18.554  0.00  0.00    +0.000 HD
ENDBRANCH  15  20
ENDBRANCH   9  16
ENDBRANCH   8  14
ENDBRANCH   7   8
ENDBRANCH   1   7
BRANCH   5  24
ATOM     24  C   UNL     1       2.638   7.473  18.494  0.00  0.00    +0.000 C 
BRANCH  24  25
ATOM     25  O   UNL     1       3.239   6.369  19.188  0.00  0.00    +0.000 OA
BRANCH  25  26
ATOM     26  C   UNL     1       2.972   5.136  18.638  0.00  0.00    +0.000 A 
ATOM     27  C   UNL     1       1.687   4.781  18.165  0.00  0.00    +0.000 A 
ATOM     28  C   UNL     1       1.386   3.479  17.760  0.00  0.00    +0.000 A 
ATOM     29  C   UNL     1       2.377   2.514  17.767  0.00  0.00    +0.000 A 
ATOM     30  C   UNL     1       3.665   2.858  18.171  0.00  0.00    +0.000 A 
ATOM     31  C   UNL     1       3.981   4.165  18.616  0.00  0.00    +0.000 A 
BRANCH  31  32
ATOM     32  C   UNL     1       5.319   4.237  19.240  0.00  0.00    +0.000 C 
ATOM     33  N   UNL     1       6.486   4.716  18.933  0.00  0.00    +0.000 NA
BRANCH  33  34
ATOM     34  N   UNL     1       6.788   5.326  17.768  0.00  0.00    +0.000 N 
ATOM     35  C   UNL     1       7.597   6.441  17.845  0.00  0.00    +0.000 C 
ATOM     36  N   UNL     1       7.733   7.099  16.660  0.00  0.00    +0.000 N 
ATOM     37  O   UNL     1       8.153   6.896  18.843  0.00  0.00    +0.000 OA
ATOM     38  H   UNL     1       6.718   4.814  16.896  0.00  0.00    +0.000 HD
ATOM     39  H   UNL     1       6.848   7.295  16.219  0.00  0.00    +0.000 HD
ATOM     40  H   UNL     1       8.285   7.939  16.804  0.00  0.00    +0.000 HD
ENDBRANCH  33  34
ENDBRANCH  31  32
ENDBRANCH  25  26
ENDBRANCH  24  25
ENDBRANCH   5  24
TORSDOF 10
ENDMDL
MODEL 5
REMARK VINA RESULT:      -8.7      2.288     10.108
REMARK  Name = 
REMARK  10 active torsions:
REMARK  status: ('A' for Active; 'I' for Inactive)
REMARK    1  A    between atoms: N_4  and  N_5
REMARK    2  A    between atoms: C_6  and  C_7
REMARK    3  A    between atoms: C_12  and  O_13
REMARK    4  A    between atoms: O_13  and  C_14
REMARK    5  A    between atoms: C_14  and  C_15
REMARK    6  A    between atoms: C_19  and  C_20
REMARK    7  A    between atoms: C_20  and  O_21
REMARK    8  A    between atoms: O_21  and  C_22
REMARK    9  A    between atoms: C_27  and  C_28
REMARK   10  A    between atoms: N_29  and  N_30
REMARK                            x       y       z     vdW  Elec       q    Type
REMARK                         _______ _______ _______ _____ _____    ______ ____
ROOT
ATOM      1  C   UNL     1       1.985   7.671  19.641  0.00  0.00    +0.000 A 
ATOM      2  C   UNL     1       2.512   7.759  18.350  0.00  0.00    +0.000 A 
ATOM      3  C   UNL     1       2.288   8.910  17.612  0.00  0.00    +0.000 A 
ATOM      4  C   UNL     1       1.548   9.946  18.162  0.00  0.00    +0.000 A 
ATOM      5  C   UNL     1       1.021   9.774  19.440  0.00  0.00    +0.000 A 
ATOM      6  N   UNL     1       1.236   8.660  20.182  0.00  0.00    +0.000 NA
ENDROOT
BRANCH   1   7
ATOM      7  C   UNL     1       2.423   6.574  20.583  0.00  0.00    +0.000 C 
BRANCH   7   8
ATOM      8  O   UNL     1       3.231   5.590  19.963  0.00  0.00    +0.000 OA
BRANCH   8  14
ATOM      9  C   UNL     1       2.907   3.776  18.232  0.00  0.00    +0.000 A 
ATOM     10  C   UNL     1       2.127   2.641  17.906  0.00  0.00    +0.000 A 
ATOM     11  C   UNL     1       1.087   2.213  18.727  0.00  0.00    +0.000 A 
ATOM     12  C   UNL     1       0.810   2.907  19.894  0.00  0.00    +0.000 A 
ATOM     13  C   UNL     1       1.570   4.034  20.224  0.00  0.00    +0.000 A 
ATOM     14  C   UNL     1       2.634   4.485  19.414  0.00  0.00    +0.000 A 
BRANCH   9  16
ATOM     15  N   UNL     1       5.312   4.068  17.452  0.00  0.00    +0.000 NA
ATOM     16  C   UNL     1       4.028   3.953  17.285  0.00  0.00    +0.000 C 
BRANCH  15  20
ATOM     17  N   UNL     1       6.657   6.209  18.147  0.00  0.00    +0.000 N 
ATOM     18  C   UNL     1       6.627   5.210  19.072  0.00  0.00    +0.000 C 
ATOM     19  O   UNL     1       7.327   5.223  20.076  0.00  0.00    +0.000 OA
ATOM     20  N   UNL     1       5.835   4.134  18.713  0.00  0.00    +0.000 N 
ATOM     21  H   UNL     1       7.399   6.890  18.215  0.00  0.00    +0.000 HD
ATOM     22  H   UNL     1       6.293   5.949  17.240  0.00  0.00    +0.000 HD
ATOM     23  H   UNL     1       5.939   3.297  19.277  0.00  0.00    +0.000 HD
ENDBRANCH  15  20
ENDBRANCH   9  16
ENDBRANCH   8  14
ENDBRANCH   7   8
ENDBRANCH   1   7
BRANCH   5  24
ATOM     24  C   UNL     1       0.118  10.813  20.044  0.00  0.00    +0.000 C 
BRANCH  24  25
ATOM     25  O   UNL     1      -0.474  11.666  19.053  0.00  0.00    +0.000 OA
BRANCH  25  26
ATOM     26  C   UNL     1      -1.785  11.368  18.756  0.00  0.00    +0.000 A 
ATOM     27  C   UNL     1      -2.142  10.458  17.734  0.00  0.00    +0.000 A 
ATOM     28  C   UNL     1      -3.468  10.287  17.332  0.00  0.00    +0.000 A 
ATOM     29  C   UNL     1      -4.475  10.980  17.978  0.00  0.00    +0.000 A 
ATOM     30  C   UNL     1      -4.150  11.836  19.029  0.00  0.00    +0.000 A 
ATOM     31  C   UNL     1      -2.809  12.048  19.429  0.00  0.00    +0.000 A 
BRANCH  31  32
ATOM     32  C   UNL     1      -2.675  13.180  20.370  0.00  0.00    +0.000 C 
ATOM     33  N   UNL     1      -2.974  13.426  21.609  0.00  0.00    +0.000 NA
BRANCH  33  34
ATOM     34  N   UNL     1      -3.607  12.567  22.436  0.00  0.00    +0.000 N 
ATOM     35  C   UNL     1      -3.930  13.042  23.691  0.00  0.00    +0.000 C 
ATOM     36  N   UNL     1      -4.419  12.084  24.527  0.00  0.00    +0.000 N 
ATOM     37  O   UNL     1      -3.793  14.187  24.117  0.00  0.00    +0.000 OA
ATOM     38  H   UNL     1      -4.105  11.772  22.055  0.00  0.00    +0.000 HD
ATOM     39  H   UNL     1      -3.835  11.263  24.564  0.00  0.00    +0.000 HD
ATOM     40  H   UNL     1      -4.574  12.488  25.445  0.00  0.00    +0.000 HD
ENDBRANCH  33  34
ENDBRANCH  31  32
ENDBRANCH  25  26
ENDBRANCH  24  25
ENDBRANCH   5  24
TORSDOF 10
ENDMDL
MODEL 6
REMARK VINA RESULT:      -8.7      2.445     10.540
REMARK  Name = 
REMARK  10 active torsions:
REMARK  status: ('A' for Active; 'I' for Inactive)
REMARK    1  A    between atoms: N_4  and  N_5
REMARK    2  A    between atoms: C_6  and  C_7
REMARK    3  A    between atoms: C_12  and  O_13
REMARK    4  A    between atoms: O_13  and  C_14
REMARK    5  A    between atoms: C_14  and  C_15
REMARK    6  A    between atoms: C_19  and  C_20
REMARK    7  A    between atoms: C_20  and  O_21
REMARK    8  A    between atoms: O_21  and  C_22
REMARK    9  A    between atoms: C_27  and  C_28
REMARK   10  A    between atoms: N_29  and  N_30
REMARK                            x       y       z     vdW  Elec       q    Type
REMARK                         _______ _______ _______ _____ _____    ______ ____
ROOT
ATOM      1  C   UNL     1       2.139   7.863  19.203  0.00  0.00    +0.000 A 
ATOM      2  C   UNL     1       1.864   7.501  20.524  0.00  0.00    +0.000 A 
ATOM      3  C   UNL     1       0.970   8.266  21.255  0.00  0.00    +0.000 A 
ATOM      4  C   UNL     1       0.369   9.370  20.668  0.00  0.00    +0.000 A 
ATOM      5  C   UNL     1       0.719   9.693  19.360  0.00  0.00    +0.000 A 
ATOM      6  N   UNL     1       1.585   8.954  18.624  0.00  0.00    +0.000 NA
ENDROOT
BRANCH   1   7
ATOM      7  C   UNL     1       2.881   6.923  18.282  0.00  0.00    +0.000 C 
BRANCH   7   8
ATOM      8  O   UNL     1       2.058   5.914  17.726  0.00  0.00    +0.000 OA
BRANCH   8  14
ATOM      9  C   UNL     1       3.334   3.743  17.503  0.00  0.00    +0.000 A 
ATOM     10  C   UNL     1       3.400   2.410  17.974  0.00  0.00    +0.000 A 
ATOM     11  C   UNL     1       2.494   1.923  18.912  0.00  0.00    +0.000 A 
ATOM     12  C   UNL     1       1.506   2.760  19.403  0.00  0.00    +0.000 A 
ATOM     13  C   UNL     1       1.426   4.079  18.942  0.00  0.00    +0.000 A 
ATOM     14  C   UNL     1       2.336   4.600  17.998  0.00  0.00    +0.000 A 
BRANCH   9  16
ATOM     15  N   UNL     1       5.599   4.682  16.824  0.00  0.00    +0.000 NA
ATOM     16  C   UNL     1       4.474   4.063  16.620  0.00  0.00    +0.000 C 
BRANCH  15  20
ATOM     17  N   UNL     1       7.965   4.369  17.910  0.00  0.00    +0.000 N 
ATOM     18  C   UNL     1       7.056   5.039  18.670  0.00  0.00    +0.000 C 
ATOM     19  O   UNL     1       7.257   5.313  19.846  0.00  0.00    +0.000 OA
ATOM     20  N   UNL     1       5.849   5.267  18.034  0.00  0.00    +0.000 N 
ATOM     21  H   UNL     1       8.751   3.945  18.381  0.00  0.00    +0.000 HD
ATOM     22  H   UNL     1       7.578   3.933  17.083  0.00  0.00    +0.000 HD
ATOM     23  H   UNL     1       5.088   5.585  18.624  0.00  0.00    +0.000 HD
ENDBRANCH  15  20
ENDBRANCH   9  16
ENDBRANCH   8  14
ENDBRANCH   7   8
ENDBRANCH   1   7
BRANCH   5  24
ATOM     24  C   UNL     1       0.189  10.940  18.709  0.00  0.00    +0.000 C 
BRANCH  24  25
ATOM     25  O   UNL     1      -0.567  11.754  19.620  0.00  0.00    +0.000 OA
BRANCH  25  26
ATOM     26  C   UNL     1      -1.920  11.781  19.370  0.00  0.00    +0.000 A 
ATOM     27  C   UNL     1      -2.480  11.265  18.178  0.00  0.00    +0.000 A 
ATOM     28  C   UNL     1      -3.829  11.444  17.863  0.00  0.00    +0.000 A 
ATOM     29  C   UNL     1      -4.661  12.093  18.756  0.00  0.00    +0.000 A 
ATOM     30  C   UNL     1      -4.142  12.555  19.963  0.00  0.00    +0.000 A 
ATOM     31  C   UNL     1      -2.770  12.412  20.286  0.00  0.00    +0.000 A 
BRANCH  31  32
ATOM     32  C   UNL     1      -2.390  13.198  21.480  0.00  0.00    +0.000 C 
ATOM     33  N   UNL     1      -2.620  13.158  22.756  0.00  0.00    +0.000 NA
BRANCH  33  34
ATOM     34  N   UNL     1      -3.416  12.257  23.370  0.00  0.00    +0.000 N 
ATOM     35  C   UNL     1      -4.542  12.752  23.996  0.00  0.00    +0.000 C 
ATOM     36  N   UNL     1      -5.213  11.819  24.728  0.00  0.00    +0.000 N 
ATOM     37  O   UNL     1      -4.958  13.908  23.984  0.00  0.00    +0.000 OA
ATOM     38  H   UNL     1      -3.377  11.281  23.101  0.00  0.00    +0.000 HD
ATOM     39  H   UNL     1      -4.612  11.313  25.360  0.00  0.00    +0.000 HD
ATOM     40  H   UNL     1      -5.988  12.265  25.209  0.00  0.00    +0.000 HD
ENDBRANCH  33  34
ENDBRANCH  31  32
ENDBRANCH  25  26
ENDBRANCH  24  25
ENDBRANCH   5  24
TORSDOF 10
ENDMDL
MODEL 7
REMARK VINA RESULT:      -8.6      1.186      1.428
REMARK  Name = 
REMARK  10 active torsions:
REMARK  status: ('A' for Active; 'I' for Inactive)
REMARK    1  A    between atoms: N_4  and  N_5
REMARK    2  A    between atoms: C_6  and  C_7
REMARK    3  A    between atoms: C_12  and  O_13
REMARK    4  A    between atoms: O_13  and  C_14
REMARK    5  A    between atoms: C_14  and  C_15
REMARK    6  A    between atoms: C_19  and  C_20
REMARK    7  A    between atoms: C_20  and  O_21
REMARK    8  A    between atoms: O_21  and  C_22
REMARK    9  A    between atoms: C_27  and  C_28
REMARK   10  A    between atoms: N_29  and  N_30
REMARK                            x       y       z     vdW  Elec       q    Type
REMARK                         _______ _______ _______ _____ _____    ______ ____
ROOT
ATOM      1  C   UNL     1       0.980   9.451  20.305  0.00  0.00    +0.000 A 
ATOM      2  C   UNL     1       0.884  10.115  19.080  0.00  0.00    +0.000 A 
ATOM      3  C   UNL     1       1.445   9.530  17.956  0.00  0.00    +0.000 A 
ATOM      4  C   UNL     1       2.088   8.306  18.066  0.00  0.00    +0.000 A 
ATOM      5  C   UNL     1       2.179   7.720  19.326  0.00  0.00    +0.000 A 
ATOM      6  N   UNL     1       1.630   8.272  20.437  0.00  0.00    +0.000 NA
ENDROOT
BRANCH   1   7
ATOM      7  C   UNL     1       0.162   9.898  21.494  0.00  0.00    +0.000 C 
BRANCH   7   8
ATOM      8  O   UNL     1      -1.009  10.610  21.135  0.00  0.00    +0.000 OA
BRANCH   8  14
ATOM      9  C   UNL     1      -1.036  13.067  20.544  0.00  0.00    +0.000 A 
ATOM     10  C   UNL     1      -1.148  14.367  21.093  0.00  0.00    +0.000 A 
ATOM     11  C   UNL     1      -1.296  14.569  22.462  0.00  0.00    +0.000 A 
ATOM     12  C   UNL     1      -1.340  13.476  23.312  0.00  0.00    +0.000 A 
ATOM     13  C   UNL     1      -1.224  12.186  22.783  0.00  0.00    +0.000 A 
ATOM     14  C   UNL     1      -1.082  11.952  21.398  0.00  0.00    +0.000 A 
BRANCH   9  16
ATOM     15  N   UNL     1      -1.646  12.402  18.165  0.00  0.00    +0.000 NA
ATOM     16  C   UNL     1      -1.024  13.101  19.068  0.00  0.00    +0.000 C 
BRANCH  15  20
ATOM     17  N   UNL     1      -1.838  10.345  16.550  0.00  0.00    +0.000 N 
ATOM     18  C   UNL     1      -2.620  10.291  17.663  0.00  0.00    +0.000 C 
ATOM     19  O   UNL     1      -3.490   9.443  17.814  0.00  0.00    +0.000 OA
ATOM     20  N   UNL     1      -2.429  11.345  18.538  0.00  0.00    +0.000 N 
ATOM     21  H   UNL     1      -2.100   9.771  15.763  0.00  0.00    +0.000 HD
ATOM     22  H   UNL     1      -1.393  11.240  16.395  0.00  0.00    +0.000 HD
ATOM     23  H   UNL     1      -3.120  11.446  19.273  0.00  0.00    +0.000 HD
ENDBRANCH  15  20
ENDBRANCH   9  16
ENDBRANCH   8  14
ENDBRANCH   7   8
ENDBRANCH   1   7
BRANCH   5  24
ATOM     24  C   UNL     1       2.961   6.453  19.529  0.00  0.00    +0.000 C 
BRANCH  24  25
ATOM     25  O   UNL     1       3.180   5.743  18.300  0.00  0.00    +0.000 OA
BRANCH  25  26
ATOM     26  C   UNL     1       2.677   4.462  18.285  0.00  0.00    +0.000 A 
ATOM     27  C   UNL     1       1.552   4.081  19.052  0.00  0.00    +0.000 A 
ATOM     28  C   UNL     1       1.151   2.748  19.157  0.00  0.00    +0.000 A 
ATOM     29  C   UNL     1       1.830   1.771  18.453  0.00  0.00    +0.000 A 
ATOM     30  C   UNL     1       2.904   2.133  17.643  0.00  0.00    +0.000 A 
ATOM     31  C   UNL     1       3.346   3.475  17.550  0.00  0.00    +0.000 A 
BRANCH  31  32
ATOM     32  C   UNL     1       4.646   3.591  16.853  0.00  0.00    +0.000 C 
ATOM     33  N   UNL     1       5.863   3.914  17.162  0.00  0.00    +0.000 NA
BRANCH  33  34
ATOM     34  N   UNL     1       6.270   4.314  18.386  0.00  0.00    +0.000 N 
ATOM     35  C   UNL     1       7.240   5.295  18.425  0.00  0.00    +0.000 C 
ATOM     36  N   UNL     1       7.719   5.537  19.677  0.00  0.00    +0.000 N 
ATOM     37  O   UNL     1       7.716   5.916  17.478  0.00  0.00    +0.000 OA
ATOM     38  H   UNL     1       5.676   4.161  19.191  0.00  0.00    +0.000 HD
ATOM     39  H   UNL     1       8.001   4.697  20.157  0.00  0.00    +0.000 HD
ATOM     40  H   UNL     1       8.470   6.219  19.623  0.00  0.00    +0.000 HD
ENDBRANCH  33  34
ENDBRANCH  31  32
ENDBRANCH  25  26
ENDBRANCH  24  25
ENDBRANCH   5  24
TORSDOF 10
ENDMDL
MODEL 8
REMARK VINA RESULT:      -8.6      1.888      3.240
REMARK  Name = 
REMARK  10 active torsions:
REMARK  status: ('A' for Active; 'I' for Inactive)
REMARK    1  A    between atoms: N_4  and  N_5
REMARK    2  A    between atoms: C_6  and  C_7
REMARK    3  A    between atoms: C_12  and  O_13
REMARK    4  A    between atoms: O_13  and  C_14
REMARK    5  A    between atoms: C_14  and  C_15
REMARK    6  A    between atoms: C_19  and  C_20
REMARK    7  A    between atoms: C_20  and  O_21
REMARK    8  A    between atoms: O_21  and  C_22
REMARK    9  A    between atoms: C_27  and  C_28
REMARK   10  A    between atoms: N_29  and  N_30
REMARK                            x       y       z     vdW  Elec       q    Type
REMARK                         _______ _______ _______ _____ _____    ______ ____
ROOT
ATOM      1  C   UNL     1       1.239   9.692  19.324  0.00  0.00    +0.000 A 
ATOM      2  C   UNL     1       1.826   9.710  18.057  0.00  0.00    +0.000 A 
ATOM      3  C   UNL     1       2.463   8.568  17.598  0.00  0.00    +0.000 A 
ATOM      4  C   UNL     1       2.508   7.437  18.399  0.00  0.00    +0.000 A 
ATOM      5  C   UNL     1       1.934   7.504  19.667  0.00  0.00    +0.000 A 
ATOM      6  N   UNL     1       1.300   8.608  20.132  0.00  0.00    +0.000 NA
ENDROOT
BRANCH   1   7
ATOM      7  C   UNL     1       0.307  10.797  19.761  0.00  0.00    +0.000 C 
BRANCH   7   8
ATOM      8  O   UNL     1      -0.286  11.493  18.679  0.00  0.00    +0.000 OA
BRANCH   8  14
ATOM      9  C   UNL     1      -2.764  11.855  19.023  0.00  0.00    +0.000 A 
ATOM     10  C   UNL     1      -4.043  11.498  18.534  0.00  0.00    +0.000 A 
ATOM     11  C   UNL     1      -4.196  10.613  17.470  0.00  0.00    +0.000 A 
ATOM     12  C   UNL     1      -3.072  10.071  16.868  0.00  0.00    +0.000 A 
ATOM     13  C   UNL     1      -1.801  10.411  17.345  0.00  0.00    +0.000 A 
ATOM     14  C   UNL     1      -1.618  11.312  18.416  0.00  0.00    +0.000 A 
BRANCH   9  16
ATOM     15  N   UNL     1      -2.266  13.056  21.210  0.00  0.00    +0.000 NA
ATOM     16  C   UNL     1      -2.853  12.903  20.060  0.00  0.00    +0.000 C 
BRANCH  15  20
ATOM     17  N   UNL     1      -2.930  11.852  23.442  0.00  0.00    +0.000 N 
ATOM     18  C   UNL     1      -1.726  11.493  22.919  0.00  0.00    +0.000 C 
ATOM     19  O   UNL     1      -0.922  10.802  23.532  0.00  0.00    +0.000 OA
ATOM     20  N   UNL     1      -1.447  12.077  21.697  0.00  0.00    +0.000 N 
ATOM     21  H   UNL     1      -3.085  11.681  24.425  0.00  0.00    +0.000 HD
ATOM     22  H   UNL     1      -3.357  12.654  22.997  0.00  0.00    +0.000 HD
ATOM     23  H   UNL     1      -0.491  11.990  21.369  0.00  0.00    +0.000 HD
ENDBRANCH  15  20
ENDBRANCH   9  16
ENDBRANCH   8  14
ENDBRANCH   7   8
ENDBRANCH   1   7
BRANCH   5  24
ATOM     24  C   UNL     1       2.050   6.350  20.623  0.00  0.00    +0.000 C 
BRANCH  24  25
ATOM     25  O   UNL     1       3.064   5.412  20.228  0.00  0.00    +0.000 OA
BRANCH  25  26
ATOM     26  C   UNL     1       2.581   4.268  19.634  0.00  0.00    +0.000 A 
ATOM     27  C   UNL     1       1.206   3.936  19.638  0.00  0.00    +0.000 A 
ATOM     28  C   UNL     1       0.747   2.700  19.179  0.00  0.00    +0.000 A 
ATOM     29  C   UNL     1       1.644   1.788  18.653  0.00  0.00    +0.000 A 
ATOM     30  C   UNL     1       2.995   2.121  18.584  0.00  0.00    +0.000 A 
ATOM     31  C   UNL     1       3.484   3.356  19.075  0.00  0.00    +0.000 A 
BRANCH  31  32
ATOM     32  C   UNL     1       4.961   3.388  19.143  0.00  0.00    +0.000 C 
ATOM     33  N   UNL     1       5.908   4.221  18.836  0.00  0.00    +0.000 NA
BRANCH  33  34
ATOM     34  N   UNL     1       5.720   5.428  18.262  0.00  0.00    +0.000 N 
ATOM     35  C   UNL     1       6.618   5.792  17.279  0.00  0.00    +0.000 C 
ATOM     36  N   UNL     1       6.470   7.078  16.856  0.00  0.00    +0.000 N 
ATOM     37  O   UNL     1       7.519   5.109  16.798  0.00  0.00    +0.000 OA
ATOM     38  H   UNL     1       4.809   5.870  18.301  0.00  0.00    +0.000 HD
ATOM     39  H   UNL     1       6.442   7.739  17.617  0.00  0.00    +0.000 HD
ATOM     40  H   UNL     1       7.200   7.296  16.185  0.00  0.00    +0.000 HD
ENDBRANCH  33  34
ENDBRANCH  31  32
ENDBRANCH  25  26
ENDBRANCH  24  25
ENDBRANCH   5  24
TORSDOF 10
ENDMDL
MODEL 9
REMARK VINA RESULT:      -8.6      1.817     10.096
REMARK  Name = 
REMARK  10 active torsions:
REMARK  status: ('A' for Active; 'I' for Inactive)
REMARK    1  A    between atoms: N_4  and  N_5
REMARK    2  A    between atoms: C_6  and  C_7
REMARK    3  A    between atoms: C_12  and  O_13
REMARK    4  A    between atoms: O_13  and  C_14
REMARK    5  A    between atoms: C_14  and  C_15
REMARK    6  A    between atoms: C_19  and  C_20
REMARK    7  A    between atoms: C_20  and  O_21
REMARK    8  A    between atoms: O_21  and  C_22
REMARK    9  A    between atoms: C_27  and  C_28
REMARK   10  A    between atoms: N_29  and  N_30
REMARK                            x       y       z     vdW  Elec       q    Type
REMARK                         _______ _______ _______ _____ _____    ______ ____
ROOT
ATOM      1  C   UNL     1       1.778   8.252  19.698  0.00  0.00    +0.000 A 
ATOM      2  C   UNL     1       1.682   8.010  21.071  0.00  0.00    +0.000 A 
ATOM      3  C   UNL     1       0.777   8.746  21.819  0.00  0.00    +0.000 A 
ATOM      4  C   UNL     1      -0.010   9.704  21.197  0.00  0.00    +0.000 A 
ATOM      5  C   UNL     1       0.167   9.918  19.832  0.00  0.00    +0.000 A 
ATOM      6  N   UNL     1       1.040   9.204  19.081  0.00  0.00    +0.000 NA
ENDROOT
BRANCH   1   7
ATOM      7  C   UNL     1       2.536   7.306  18.797  0.00  0.00    +0.000 C 
BRANCH   7   8
ATOM      8  O   UNL     1       3.092   6.200  19.484  0.00  0.00    +0.000 OA
BRANCH   8  14
ATOM      9  C   UNL     1       4.124   4.096  18.534  0.00  0.00    +0.000 A 
ATOM     10  C   UNL     1       3.819   2.855  17.927  0.00  0.00    +0.000 A 
ATOM     11  C   UNL     1       2.506   2.476  17.663  0.00  0.00    +0.000 A 
ATOM     12  C   UNL     1       1.469   3.329  18.005  0.00  0.00    +0.000 A 
ATOM     13  C   UNL     1       1.757   4.562  18.600  0.00  0.00    +0.000 A 
ATOM     14  C   UNL     1       3.078   4.966  18.886  0.00  0.00    +0.000 A 
BRANCH   9  16
ATOM     15  N   UNL     1       6.616   4.325  18.075  0.00  0.00    +0.000 NA
ATOM     16  C   UNL     1       5.566   4.214  18.833  0.00  0.00    +0.000 C 
BRANCH  15  20
ATOM     17  N   UNL     1       7.506   6.309  16.611  0.00  0.00    +0.000 N 
ATOM     18  C   UNL     1       6.868   5.319  15.929  0.00  0.00    +0.000 C 
ATOM     19  O   UNL     1       6.561   5.425  14.749  0.00  0.00    +0.000 OA
ATOM     20  N   UNL     1       6.492   4.246  16.716  0.00  0.00    +0.000 N 
ATOM     21  H   UNL     1       7.574   7.215  16.170  0.00  0.00    +0.000 HD
ATOM     22  H   UNL     1       7.425   6.244  17.617  0.00  0.00    +0.000 HD
ATOM     23  H   UNL     1       5.851   3.584  16.292  0.00  0.00    +0.000 HD
ENDBRANCH  15  20
ENDBRANCH   9  16
ENDBRANCH   8  14
ENDBRANCH   7   8
ENDBRANCH   1   7
BRANCH   5  24
ATOM     24  C   UNL     1      -0.574  11.019  19.126  0.00  0.00    +0.000 C 
BRANCH  24  25
ATOM     25  O   UNL     1      -1.999  10.879  19.239  0.00  0.00    +0.000 OA
BRANCH  25  26
ATOM     26  C   UNL     1      -2.659  10.782  18.034  0.00  0.00    +0.000 A 
ATOM     27  C   UNL     1      -2.032  10.291  16.866  0.00  0.00    +0.000 A 
ATOM     28  C   UNL     1      -2.655  10.348  15.617  0.00  0.00    +0.000 A 
ATOM     29  C   UNL     1      -3.940  10.848  15.516  0.00  0.00    +0.000 A 
ATOM     30  C   UNL     1      -4.599  11.281  16.665  0.00  0.00    +0.000 A 
ATOM     31  C   UNL     1      -3.971  11.261  17.934  0.00  0.00    +0.000 A 
BRANCH  31  32
ATOM     32  C   UNL     1      -4.743  12.002  18.955  0.00  0.00    +0.000 C 
ATOM     33  N   UNL     1      -4.493  12.842  19.911  0.00  0.00    +0.000 NA
BRANCH  33  34
ATOM     34  N   UNL     1      -3.261  13.269  20.261  0.00  0.00    +0.000 N 
ATOM     35  C   UNL     1      -2.960  13.251  21.608  0.00  0.00    +0.000 C 
ATOM     36  N   UNL     1      -1.770  13.841  21.908  0.00  0.00    +0.000 N 
ATOM     37  O   UNL     1      -3.649  12.806  22.524  0.00  0.00    +0.000 OA
ATOM     38  H   UNL     1      -2.514  13.271  19.578  0.00  0.00    +0.000 HD
ATOM     39  H   UNL     1      -1.677  14.760  21.504  0.00  0.00    +0.000 HD
ATOM     40  H   UNL     1      -1.644  13.849  22.915  0.00  0.00    +0.000 HD
ENDBRANCH  33  34
ENDBRANCH  31  32
ENDBRANCH  25  26
ENDBRANCH  24  25
ENDBRANCH   5  24
TORSDOF 10
ENDMDL
