MODEL 1
REMARK VINA RESULT:      -7.8      0.000      0.000
REMARK  Name = 
REMARK  4 active torsions:
REMARK  status: ('A' for Active; 'I' for Inactive)
REMARK    1  A    between atoms: C_2  and  C_4
REMARK    2  A    between atoms: N_10  and  C_11
REMARK    3  A    between atoms: C_11  and  C_12
REMARK    4  A    between atoms: C_18  and  C_19
REMARK                            x       y       z     vdW  Elec       q    Type
REMARK                         _______ _______ _______ _____ _____    ______ ____
ROOT
ATOM      1  C   UNL     1      -0.282  11.188  19.943  0.00  0.00    +0.000 A 
ATOM      2  C   UNL     1      -0.151  10.376  18.801  0.00  0.00    +0.000 A 
ATOM      3  C   UNL     1      -1.201  10.271  17.902  0.00  0.00    +0.000 A 
ATOM      4  C   UNL     1      -2.376  10.974  18.145  0.00  0.00    +0.000 A 
ATOM      5  C   UNL     1      -2.527  11.777  19.305  0.00  0.00    +0.000 A 
ATOM      6  C   UNL     1      -3.697  12.487  19.623  0.00  0.00    +0.000 A 
ATOM      7  N   UNL     1      -4.770  12.588  18.688  0.00  0.00    +0.000 N 
ATOM      8  N   UNL     1      -3.797  13.212  20.745  0.00  0.00    +0.000 NA
ATOM      9  C   UNL     1      -2.758  13.281  21.587  0.00  0.00    +0.000 A 
ATOM     10  N   UNL     1      -2.881  14.096  22.717  0.00  0.00    +0.000 N 
ATOM     11  C   UNL     1      -3.799  15.240  22.489  0.00  0.00    +0.000 C 
ATOM     12  C   UNL     1      -3.907  16.291  23.625  0.00  0.00    +0.000 C 
ATOM     13  C   UNL     1      -2.721  16.330  24.501  0.00  0.00    +0.000 A 
ATOM     14  C   UNL     1      -2.343  17.162  25.566  0.00  0.00    +0.000 A 
ATOM     15  N   UNL     1      -1.168  16.800  26.096  0.00  0.00    +0.000 NA
ATOM     16  N   UNL     1      -0.806  15.721  25.376  0.00  0.00    +0.000 N 
ATOM     17  C   UNL     1      -1.705  15.416  24.403  0.00  0.00    +0.000 A 
ATOM     18  C   UNL     1      -1.610  14.323  23.416  0.00  0.00    +0.000 C 
ATOM     19  N   UNL     1      -1.611  12.631  21.346  0.00  0.00    +0.000 NA
ATOM     20  C   UNL     1      -1.475  11.882  20.230  0.00  0.00    +0.000 A 
ATOM     21  H   UNL     1      -4.501  13.360  18.076  0.00  0.00    +0.000 HD
ATOM     22  H   UNL     1       0.065  15.256  25.611  0.00  0.00    +0.000 HD
ENDROOT
BRANCH   1  24
ATOM     23  N   UNL     1       1.610  12.464  20.811  0.00  0.00    +0.000 N 
ATOM     24  C   UNL     1       0.934  11.279  20.801  0.00  0.00    +0.000 C 
ATOM     25  O   UNL     1       1.354  10.317  21.434  0.00  0.00    +0.000 OA
ATOM     26  H   UNL     1       2.403  12.557  21.429  0.00  0.00    +0.000 HD
ATOM     27  H   UNL     1       1.185  13.289  20.406  0.00  0.00    +0.000 HD
ENDBRANCH   1  24
BRANCH   7  28
ATOM     28  C   UNL     1      -6.047  12.874  19.362  0.00  0.00    +0.000 C 
BRANCH  28  29
ATOM     29  C   UNL     1      -6.731  11.625  19.893  0.00  0.00    +0.000 A 
ATOM     30  C   UNL     1      -6.724  10.481  19.074  0.00  0.00    +0.000 A 
ATOM     31  F   UNL     1      -6.135  10.528  17.871  0.00  0.00    +0.000 F 
ATOM     32  C   UNL     1      -7.269   9.265  19.478  0.00  0.00    +0.000 A 
ATOM     33  C   UNL     1      -7.856   9.156  20.731  0.00  0.00    +0.000 A 
ATOM     34  C   UNL     1      -7.860  10.258  21.580  0.00  0.00    +0.000 A 
ATOM     35  C   UNL     1      -7.287  11.498  21.191  0.00  0.00    +0.000 A 
BRANCH  35  36
ATOM     36  C   UNL     1      -7.264  12.582  22.244  0.00  0.00    +0.000 C 
ATOM     37  F   UNL     1      -7.916  13.727  21.906  0.00  0.00    +0.000 F 
ATOM     38  F   UNL     1      -7.830  12.174  23.414  0.00  0.00    +0.000 F 
ATOM     39  F   UNL     1      -5.994  12.961  22.560  0.00  0.00    +0.000 F 
ENDBRANCH  35  36
ENDBRANCH  28  29
ENDBRANCH   7  28
TORSDOF 4
ENDMDL
MODEL 2
REMARK VINA RESULT:      -7.8      2.937      4.094
REMARK  Name = 
REMARK  4 active torsions:
REMARK  status: ('A' for Active; 'I' for Inactive)
REMARK    1  A    between atoms: C_2  and  C_4
REMARK    2  A    between atoms: N_10  and  C_11
REMARK    3  A    between atoms: C_11  and  C_12
REMARK    4  A    between atoms: C_18  and  C_19
REMARK                            x       y       z     vdW  Elec       q    Type
REMARK                         _______ _______ _______ _____ _____    ______ ____
ROOT
ATOM      1  C   UNL     1      -0.294  10.389  18.219  0.00  0.00    +0.000 A 
ATOM      2  C   UNL     1      -1.263   9.696  17.471  0.00  0.00    +0.000 A 
ATOM      3  C   UNL     1      -2.598  10.059  17.559  0.00  0.00    +0.000 A 
ATOM      4  C   UNL     1      -2.961  11.114  18.391  0.00  0.00    +0.000 A 
ATOM      5  C   UNL     1      -1.994  11.805  19.168  0.00  0.00    +0.000 A 
ATOM      6  C   UNL     1      -2.300  12.856  20.049  0.00  0.00    +0.000 A 
ATOM      7  N   UNL     1      -3.608  13.424  20.087  0.00  0.00    +0.000 N 
ATOM      8  N   UNL     1      -1.352  13.460  20.778  0.00  0.00    +0.000 NA
ATOM      9  C   UNL     1      -0.076  13.071  20.665  0.00  0.00    +0.000 A 
ATOM     10  N   UNL     1       0.891  13.766  21.397  0.00  0.00    +0.000 N 
ATOM     11  C   UNL     1       0.508  15.180  21.637  0.00  0.00    +0.000 C 
ATOM     12  C   UNL     1       1.563  16.089  22.320  0.00  0.00    +0.000 C 
ATOM     13  C   UNL     1       2.949  15.615  22.137  0.00  0.00    +0.000 A 
ATOM     14  C   UNL     1       4.199  16.152  22.482  0.00  0.00    +0.000 A 
ATOM     15  N   UNL     1       5.207  15.343  22.137  0.00  0.00    +0.000 NA
ATOM     16  N   UNL     1       4.595  14.277  21.584  0.00  0.00    +0.000 N 
ATOM     17  C   UNL     1       3.242  14.410  21.555  0.00  0.00    +0.000 A 
ATOM     18  C   UNL     1       2.268  13.453  20.995  0.00  0.00    +0.000 C 
ATOM     19  N   UNL     1       0.287  12.077  19.842  0.00  0.00    +0.000 NA
ATOM     20  C   UNL     1      -0.640  11.436  19.097  0.00  0.00    +0.000 A 
ATOM     21  H   UNL     1      -3.613  14.100  19.323  0.00  0.00    +0.000 HD
ATOM     22  H   UNL     1       5.170  13.510  21.252  0.00  0.00    +0.000 HD
ENDROOT
BRANCH   1  24
ATOM     23  N   UNL     1       2.057  10.931  17.842  0.00  0.00    +0.000 N 
ATOM     24  C   UNL     1       1.115   9.956  17.993  0.00  0.00    +0.000 C 
ATOM     25  O   UNL     1       1.419   8.773  17.887  0.00  0.00    +0.000 OA
ATOM     26  H   UNL     1       3.022  10.652  17.743  0.00  0.00    +0.000 HD
ATOM     27  H   UNL     1       1.829  11.891  18.071  0.00  0.00    +0.000 HD
ENDBRANCH   1  24
BRANCH   7  28
ATOM     28  C   UNL     1      -3.871  14.086  21.375  0.00  0.00    +0.000 C 
BRANCH  28  29
ATOM     29  C   UNL     1      -5.190  13.666  22.002  0.00  0.00    +0.000 A 
ATOM     30  C   UNL     1      -6.353  13.803  21.221  0.00  0.00    +0.000 A 
ATOM     31  F   UNL     1      -6.266  14.299  19.979  0.00  0.00    +0.000 F 
ATOM     32  C   UNL     1      -7.608  13.399  21.668  0.00  0.00    +0.000 A 
ATOM     33  C   UNL     1      -7.744  12.844  22.934  0.00  0.00    +0.000 A 
ATOM     34  C   UNL     1      -6.612  12.669  23.725  0.00  0.00    +0.000 A 
ATOM     35  C   UNL     1      -5.322  13.054  23.273  0.00  0.00    +0.000 A 
BRANCH  35  36
ATOM     36  C   UNL     1      -4.167  12.713  24.185  0.00  0.00    +0.000 C 
ATOM     37  F   UNL     1      -3.248  11.860  23.657  0.00  0.00    +0.000 F 
ATOM     38  F   UNL     1      -3.463  13.818  24.558  0.00  0.00    +0.000 F 
ATOM     39  F   UNL     1      -4.584  12.132  25.345  0.00  0.00    +0.000 F 
ENDBRANCH  35  36
ENDBRANCH  28  29
ENDBRANCH   7  28
TORSDOF 4
ENDMDL
MODEL 3
REMARK VINA RESULT:      -7.4      4.036      6.757
REMARK  Name = 
REMARK  4 active torsions:
REMARK  status: ('A' for Active; 'I' for Inactive)
REMARK    1  A    between atoms: C_2  and  C_4
REMARK    2  A    between atoms: N_10  and  C_11
REMARK    3  A    between atoms: C_11  and  C_12
REMARK    4  A    between atoms: C_18  and  C_19
REMARK                            x       y       z     vdW  Elec       q    Type
REMARK                         _______ _______ _______ _____ _____    ______ ____
ROOT
ATOM      1  C   UNL     1      -4.642  11.695  16.677  0.00  0.00    +0.000 A 
ATOM      2  C   UNL     1      -4.751  11.039  15.437  0.00  0.00    +0.000 A 
ATOM      3  C   UNL     1      -3.753  10.172  15.021  0.00  0.00    +0.000 A 
ATOM      4  C   UNL     1      -2.650   9.962  15.844  0.00  0.00    +0.000 A 
ATOM      5  C   UNL     1      -2.519  10.636  17.086  0.00  0.00    +0.000 A 
ATOM      6  C   UNL     1      -1.418  10.492  17.946  0.00  0.00    +0.000 A 
ATOM      7  N   UNL     1      -0.422   9.500  17.701  0.00  0.00    +0.000 N 
ATOM      8  N   UNL     1      -1.331  11.171  19.097  0.00  0.00    +0.000 NA
ATOM      9  C   UNL     1      -2.318  12.001  19.456  0.00  0.00    +0.000 A 
ATOM     10  N   UNL     1      -2.218  12.645  20.693  0.00  0.00    +0.000 N 
ATOM     11  C   UNL     1      -1.448  11.850  21.682  0.00  0.00    +0.000 C 
ATOM     12  C   UNL     1      -1.388  12.398  23.132  0.00  0.00    +0.000 C 
ATOM     13  C   UNL     1      -2.516  13.289  23.467  0.00  0.00    +0.000 A 
ATOM     14  C   UNL     1      -2.919  13.919  24.655  0.00  0.00    +0.000 A 
ATOM     15  N   UNL     1      -4.011  14.672  24.480  0.00  0.00    +0.000 NA
ATOM     16  N   UNL     1      -4.295  14.533  23.170  0.00  0.00    +0.000 N 
ATOM     17  C   UNL     1      -3.428  13.703  22.533  0.00  0.00    +0.000 A 
ATOM     18  C   UNL     1      -3.462  13.304  21.112  0.00  0.00    +0.000 C 
ATOM     19  N   UNL     1      -3.399  12.186  18.685  0.00  0.00    +0.000 NA
ATOM     20  C   UNL     1      -3.519  11.528  17.511  0.00  0.00    +0.000 A 
ATOM     21  H   UNL     1      -0.811   8.646  18.100  0.00  0.00    +0.000 HD
ATOM     22  H   UNL     1      -5.094  15.036  22.796  0.00  0.00    +0.000 HD
ENDROOT
BRANCH   1  24
ATOM     23  N   UNL     1      -6.542  12.171  18.135  0.00  0.00    +0.000 N 
ATOM     24  C   UNL     1      -5.807  12.549  17.050  0.00  0.00    +0.000 C 
ATOM     25  O   UNL     1      -6.136  13.522  16.382  0.00  0.00    +0.000 OA
ATOM     26  H   UNL     1      -7.299  12.770  18.432  0.00  0.00    +0.000 HD
ATOM     27  H   UNL     1      -6.187  11.459  18.761  0.00  0.00    +0.000 HD
ENDBRANCH   1  24
BRANCH   7  28
ATOM     28  C   UNL     1       0.855   9.848  18.347  0.00  0.00    +0.000 C 
BRANCH  28  29
ATOM     29  C   UNL     1       1.601   8.635  18.880  0.00  0.00    +0.000 A 
ATOM     30  C   UNL     1       2.459   7.959  17.993  0.00  0.00    +0.000 A 
ATOM     31  F   UNL     1       2.583   8.388  16.730  0.00  0.00    +0.000 F 
ATOM     32  C   UNL     1       3.236   6.872  18.384  0.00  0.00    +0.000 A 
ATOM     33  C   UNL     1       3.171   6.414  19.693  0.00  0.00    +0.000 A 
ATOM     34  C   UNL     1       2.353   7.073  20.606  0.00  0.00    +0.000 A 
ATOM     35  C   UNL     1       1.573   8.198  20.227  0.00  0.00    +0.000 A 
BRANCH  35  36
ATOM     36  C   UNL     1       0.811   8.885  21.337  0.00  0.00    +0.000 C 
ATOM     37  F   UNL     1      -0.543   8.793  21.248  0.00  0.00    +0.000 F 
ATOM     38  F   UNL     1       1.128   8.385  22.564  0.00  0.00    +0.000 F 
ATOM     39  F   UNL     1       1.086  10.217  21.398  0.00  0.00    +0.000 F 
ENDBRANCH  35  36
ENDBRANCH  28  29
ENDBRANCH   7  28
TORSDOF 4
ENDMDL
MODEL 4
REMARK VINA RESULT:      -7.2      9.140     12.747
REMARK  Name = 
REMARK  4 active torsions:
REMARK  status: ('A' for Active; 'I' for Inactive)
REMARK    1  A    between atoms: C_2  and  C_4
REMARK    2  A    between atoms: N_10  and  C_11
REMARK    3  A    between atoms: C_11  and  C_12
REMARK    4  A    between atoms: C_18  and  C_19
REMARK                            x       y       z     vdW  Elec       q    Type
REMARK                         _______ _______ _______ _____ _____    ______ ____
ROOT
ATOM      1  C   UNL     1       3.057  15.391  20.306  0.00  0.00    +0.000 A 
ATOM      2  C   UNL     1       2.617  15.790  19.030  0.00  0.00    +0.000 A 
ATOM      3  C   UNL     1       3.525  15.913  17.991  0.00  0.00    +0.000 A 
ATOM      4  C   UNL     1       4.869  15.639  18.228  0.00  0.00    +0.000 A 
ATOM      5  C   UNL     1       5.327  15.258  19.516  0.00  0.00    +0.000 A 
ATOM      6  C   UNL     1       6.672  14.997  19.827  0.00  0.00    +0.000 A 
ATOM      7  N   UNL     1       7.660  14.925  18.800  0.00  0.00    +0.000 N 
ATOM      8  N   UNL     1       7.055  14.664  21.066  0.00  0.00    +0.000 NA
ATOM      9  C   UNL     1       6.143  14.562  22.040  0.00  0.00    +0.000 A 
ATOM     10  N   UNL     1       6.575  14.155  23.306  0.00  0.00    +0.000 N 
ATOM     11  C   UNL     1       7.769  13.275  23.238  0.00  0.00    +0.000 C 
ATOM     12  C   UNL     1       8.256  12.647  24.569  0.00  0.00    +0.000 C 
ATOM     13  C   UNL     1       7.196  12.544  25.591  0.00  0.00    +0.000 A 
ATOM     14  C   UNL     1       7.151  11.971  26.871  0.00  0.00    +0.000 A 
ATOM     15  N   UNL     1       5.962  12.145  27.459  0.00  0.00    +0.000 NA
ATOM     16  N   UNL     1       5.252  12.848  26.555  0.00  0.00    +0.000 N 
ATOM     17  C   UNL     1       5.954  13.095  25.418  0.00  0.00    +0.000 A 
ATOM     18  C   UNL     1       5.476  13.806  24.216  0.00  0.00    +0.000 C 
ATOM     19  N   UNL     1       4.842  14.795  21.815  0.00  0.00    +0.000 NA
ATOM     20  C   UNL     1       4.417  15.143  20.580  0.00  0.00    +0.000 A 
ATOM     21  H   UNL     1       7.586  13.972  18.444  0.00  0.00    +0.000 HD
ATOM     22  H   UNL     1       4.301  13.114  26.792  0.00  0.00    +0.000 HD
ENDROOT
BRANCH   1  24
ATOM     23  N   UNL     1       2.061  15.992  22.453  0.00  0.00    +0.000 N 
ATOM     24  C   UNL     1       1.982  15.226  21.327  0.00  0.00    +0.000 C 
ATOM     25  O   UNL     1       1.089  14.397  21.198  0.00  0.00    +0.000 OA
ATOM     26  H   UNL     1       1.311  15.930  23.128  0.00  0.00    +0.000 HD
ATOM     27  H   UNL     1       2.711  16.767  22.491  0.00  0.00    +0.000 HD
ENDBRANCH   1  24
BRANCH   7  28
ATOM     28  C   UNL     1       9.009  15.183  19.332  0.00  0.00    +0.000 C 
BRANCH  28  29
ATOM     29  C   UNL     1      10.091  14.388  18.620  0.00  0.00    +0.000 A 
ATOM     30  C   UNL     1      10.579  14.899  17.404  0.00  0.00    +0.000 A 
ATOM     31  F   UNL     1      10.080  16.042  16.914  0.00  0.00    +0.000 F 
ATOM     32  C   UNL     1      11.608  14.287  16.693  0.00  0.00    +0.000 A 
ATOM     33  C   UNL     1      12.184  13.121  17.179  0.00  0.00    +0.000 A 
ATOM     34  C   UNL     1      11.745  12.600  18.392  0.00  0.00    +0.000 A 
ATOM     35  C   UNL     1      10.713  13.226  19.141  0.00  0.00    +0.000 A 
BRANCH  35  36
ATOM     36  C   UNL     1      10.404  12.617  20.489  0.00  0.00    +0.000 C 
ATOM     37  F   UNL     1      10.472  13.478  21.539  0.00  0.00    +0.000 F 
ATOM     38  F   UNL     1       9.150  12.086  20.537  0.00  0.00    +0.000 F 
ATOM     39  F   UNL     1      11.250  11.595  20.795  0.00  0.00    +0.000 F 
ENDBRANCH  35  36
ENDBRANCH  28  29
ENDBRANCH   7  28
TORSDOF 4
ENDMDL
MODEL 5
REMARK VINA RESULT:      -7.2      3.425      6.821
REMARK  Name = 
REMARK  4 active torsions:
REMARK  status: ('A' for Active; 'I' for Inactive)
REMARK    1  A    between atoms: C_2  and  C_4
REMARK    2  A    between atoms: N_10  and  C_11
REMARK    3  A    between atoms: C_11  and  C_12
REMARK    4  A    between atoms: C_18  and  C_19
REMARK                            x       y       z     vdW  Elec       q    Type
REMARK                         _______ _______ _______ _____ _____    ______ ____
ROOT
ATOM      1  C   UNL     1       1.895  14.144  19.319  0.00  0.00    +0.000 A 
ATOM      2  C   UNL     1       1.744  15.521  19.569  0.00  0.00    +0.000 A 
ATOM      3  C   UNL     1       0.860  15.955  20.544  0.00  0.00    +0.000 A 
ATOM      4  C   UNL     1       0.130  15.016  21.265  0.00  0.00    +0.000 A 
ATOM      5  C   UNL     1       0.257  13.626  21.005  0.00  0.00    +0.000 A 
ATOM      6  C   UNL     1      -0.472  12.631  21.676  0.00  0.00    +0.000 A 
ATOM      7  N   UNL     1      -1.277  12.952  22.811  0.00  0.00    +0.000 N 
ATOM      8  N   UNL     1      -0.332  11.334  21.376  0.00  0.00    +0.000 NA
ATOM      9  C   UNL     1       0.530  10.960  20.423  0.00  0.00    +0.000 A 
ATOM     10  N   UNL     1       0.691   9.593  20.180  0.00  0.00    +0.000 N 
ATOM     11  C   UNL     1       0.438   8.772  21.391  0.00  0.00    +0.000 C 
ATOM     12  C   UNL     1       0.721   7.251  21.281  0.00  0.00    +0.000 C 
ATOM     13  C   UNL     1       1.697   6.912  20.226  0.00  0.00    +0.000 A 
ATOM     14  C   UNL     1       2.312   5.711  19.841  0.00  0.00    +0.000 A 
ATOM     15  N   UNL     1       3.124   5.876  18.790  0.00  0.00    +0.000 NA
ATOM     16  N   UNL     1       3.011   7.186  18.494  0.00  0.00    +0.000 N 
ATOM     17  C   UNL     1       2.174   7.842  19.341  0.00  0.00    +0.000 A 
ATOM     18  C   UNL     1       1.846   9.281  19.328  0.00  0.00    +0.000 C 
ATOM     19  N   UNL     1       1.260  11.856  19.743  0.00  0.00    +0.000 NA
ATOM     20  C   UNL     1       1.141  13.175  20.010  0.00  0.00    +0.000 A 
ATOM     21  H   UNL     1      -0.621  12.959  23.592  0.00  0.00    +0.000 HD
ATOM     22  H   UNL     1       3.538   7.549  17.706  0.00  0.00    +0.000 HD
ENDROOT
BRANCH   1  24
ATOM     23  N   UNL     1       2.613  12.806  17.406  0.00  0.00    +0.000 N 
ATOM     24  C   UNL     1       2.923  13.791  18.297  0.00  0.00    +0.000 C 
ATOM     25  O   UNL     1       4.029  14.319  18.284  0.00  0.00    +0.000 OA
ATOM     26  H   UNL     1       3.278  12.596  16.676  0.00  0.00    +0.000 HD
ATOM     27  H   UNL     1       1.658  12.478  17.330  0.00  0.00    +0.000 HD
ENDBRANCH   1  24
BRANCH   7  28
ATOM     28  C   UNL     1      -2.334  11.948  23.022  0.00  0.00    +0.000 C 
BRANCH  28  29
ATOM     29  C   UNL     1      -3.734  12.532  22.929  0.00  0.00    +0.000 A 
ATOM     30  C   UNL     1      -4.411  12.792  24.134  0.00  0.00    +0.000 A 
ATOM     31  F   UNL     1      -3.819  12.515  25.304  0.00  0.00    +0.000 F 
ATOM     32  C   UNL     1      -5.674  13.377  24.174  0.00  0.00    +0.000 A 
ATOM     33  C   UNL     1      -6.314  13.718  22.989  0.00  0.00    +0.000 A 
ATOM     34  C   UNL     1      -5.664  13.499  21.778  0.00  0.00    +0.000 A 
ATOM     35  C   UNL     1      -4.366  12.925  21.723  0.00  0.00    +0.000 A 
BRANCH  35  36
ATOM     36  C   UNL     1      -3.732  12.839  20.354  0.00  0.00    +0.000 C 
ATOM     37  F   UNL     1      -3.052  11.688  20.106  0.00  0.00    +0.000 F 
ATOM     38  F   UNL     1      -4.653  12.938  19.354  0.00  0.00    +0.000 F 
ATOM     39  F   UNL     1      -2.843  13.847  20.138  0.00  0.00    +0.000 F 
ENDBRANCH  35  36
ENDBRANCH  28  29
ENDBRANCH   7  28
TORSDOF 4
ENDMDL
MODEL 6
REMARK VINA RESULT:      -7.2      3.194      6.033
REMARK  Name = 
REMARK  4 active torsions:
REMARK  status: ('A' for Active; 'I' for Inactive)
REMARK    1  A    between atoms: C_2  and  C_4
REMARK    2  A    between atoms: N_10  and  C_11
REMARK    3  A    between atoms: C_11  and  C_12
REMARK    4  A    between atoms: C_18  and  C_19
REMARK                            x       y       z     vdW  Elec       q    Type
REMARK                         _______ _______ _______ _____ _____    ______ ____
ROOT
ATOM      1  C   UNL     1       1.514  14.314  18.902  0.00  0.00    +0.000 A 
ATOM      2  C   UNL     1       1.333  15.710  18.934  0.00  0.00    +0.000 A 
ATOM      3  C   UNL     1       0.313  16.258  19.694  0.00  0.00    +0.000 A 
ATOM      4  C   UNL     1      -0.523  15.414  20.420  0.00  0.00    +0.000 A 
ATOM      5  C   UNL     1      -0.363  14.005  20.377  0.00  0.00    +0.000 A 
ATOM      6  C   UNL     1      -1.190  13.099  21.061  0.00  0.00    +0.000 A 
ATOM      7  N   UNL     1      -2.157  13.558  22.005  0.00  0.00    +0.000 N 
ATOM      8  N   UNL     1      -1.011  11.775  20.967  0.00  0.00    +0.000 NA
ATOM      9  C   UNL     1      -0.015  11.289  20.216  0.00  0.00    +0.000 A 
ATOM     10  N   UNL     1       0.175   9.904  20.192  0.00  0.00    +0.000 N 
ATOM     11  C   UNL     1      -0.262   9.253  21.452  0.00  0.00    +0.000 C 
ATOM     12  C   UNL     1       0.028   7.736  21.597  0.00  0.00    +0.000 C 
ATOM     13  C   UNL     1       1.151   7.273  20.759  0.00  0.00    +0.000 A 
ATOM     14  C   UNL     1       1.814   6.041  20.641  0.00  0.00    +0.000 A 
ATOM     15  N   UNL     1       2.777   6.075  19.712  0.00  0.00    +0.000 NA
ATOM     16  N   UNL     1       2.715   7.329  19.226  0.00  0.00    +0.000 N 
ATOM     17  C   UNL     1       1.762   8.081  19.837  0.00  0.00    +0.000 A 
ATOM     18  C   UNL     1       1.445   9.498  19.576  0.00  0.00    +0.000 C 
ATOM     19  N   UNL     1       0.814  12.096  19.538  0.00  0.00    +0.000 NA
ATOM     20  C   UNL     1       0.660  13.437  19.599  0.00  0.00    +0.000 A 
ATOM     21  H   UNL     1      -1.628  13.684  22.868  0.00  0.00    +0.000 HD
ATOM     22  H   UNL     1       3.357   7.589  18.484  0.00  0.00    +0.000 HD
ENDROOT
BRANCH   1  24
ATOM     23  N   UNL     1       2.511  12.737  17.328  0.00  0.00    +0.000 N 
ATOM     24  C   UNL     1       2.685  13.843  18.107  0.00  0.00    +0.000 C 
ATOM     25  O   UNL     1       3.781  14.385  18.185  0.00  0.00    +0.000 OA
ATOM     26  H   UNL     1       3.279  12.439  16.742  0.00  0.00    +0.000 HD
ATOM     27  H   UNL     1       1.578  12.382  17.156  0.00  0.00    +0.000 HD
ENDBRANCH   1  24
BRANCH   7  28
ATOM     28  C   UNL     1      -3.237  12.575  22.190  0.00  0.00    +0.000 C 
BRANCH  28  29
ATOM     29  C   UNL     1      -4.552  13.013  21.566  0.00  0.00    +0.000 A 
ATOM     30  C   UNL     1      -4.760  12.709  20.208  0.00  0.00    +0.000 A 
ATOM     31  F   UNL     1      -3.809  12.065  19.517  0.00  0.00    +0.000 F 
ATOM     32  C   UNL     1      -5.947  13.009  19.545  0.00  0.00    +0.000 A 
ATOM     33  C   UNL     1      -6.977  13.641  20.228  0.00  0.00    +0.000 A 
ATOM     34  C   UNL     1      -6.818  13.935  21.579  0.00  0.00    +0.000 A 
ATOM     35  C   UNL     1      -5.623  13.613  22.275  0.00  0.00    +0.000 A 
BRANCH  35  36
ATOM     36  C   UNL     1      -5.620  13.889  23.760  0.00  0.00    +0.000 C 
ATOM     37  F   UNL     1      -4.646  14.737  24.187  0.00  0.00    +0.000 F 
ATOM     38  F   UNL     1      -6.791  14.442  24.182  0.00  0.00    +0.000 F 
ATOM     39  F   UNL     1      -5.464  12.751  24.492  0.00  0.00    +0.000 F 
ENDBRANCH  35  36
ENDBRANCH  28  29
ENDBRANCH   7  28
TORSDOF 4
ENDMDL
MODEL 7
REMARK VINA RESULT:      -7.2      2.877      4.467
REMARK  Name = 
REMARK  4 active torsions:
REMARK  status: ('A' for Active; 'I' for Inactive)
REMARK    1  A    between atoms: C_2  and  C_4
REMARK    2  A    between atoms: N_10  and  C_11
REMARK    3  A    between atoms: C_11  and  C_12
REMARK    4  A    between atoms: C_18  and  C_19
REMARK                            x       y       z     vdW  Elec       q    Type
REMARK                         _______ _______ _______ _____ _____    ______ ____
ROOT
ATOM      1  C   UNL     1      -0.105  10.482  18.366  0.00  0.00    +0.000 A 
ATOM      2  C   UNL     1      -1.115   9.773  17.690  0.00  0.00    +0.000 A 
ATOM      3  C   UNL     1      -2.433  10.191  17.780  0.00  0.00    +0.000 A 
ATOM      4  C   UNL     1      -2.739  11.314  18.543  0.00  0.00    +0.000 A 
ATOM      5  C   UNL     1      -1.731  12.023  19.247  0.00  0.00    +0.000 A 
ATOM      6  C   UNL     1      -1.979  13.143  20.057  0.00  0.00    +0.000 A 
ATOM      7  N   UNL     1      -3.265  13.760  20.082  0.00  0.00    +0.000 N 
ATOM      8  N   UNL     1      -0.994  13.762  20.721  0.00  0.00    +0.000 NA
ATOM      9  C   UNL     1       0.265  13.320  20.608  0.00  0.00    +0.000 A 
ATOM     10  N   UNL     1       1.273  14.030  21.269  0.00  0.00    +0.000 N 
ATOM     11  C   UNL     1       0.945  15.470  21.415  0.00  0.00    +0.000 C 
ATOM     12  C   UNL     1       2.047  16.386  22.008  0.00  0.00    +0.000 C 
ATOM     13  C   UNL     1       3.411  15.850  21.830  0.00  0.00    +0.000 A 
ATOM     14  C   UNL     1       4.687  16.364  22.110  0.00  0.00    +0.000 A 
ATOM     15  N   UNL     1       5.658  15.496  21.801  0.00  0.00    +0.000 NA
ATOM     16  N   UNL     1       4.995  14.418  21.339  0.00  0.00    +0.000 N 
ATOM     17  C   UNL     1       3.648  14.597  21.330  0.00  0.00    +0.000 A 
ATOM     18  C   UNL     1       2.628  13.639  20.860  0.00  0.00    +0.000 C 
ATOM     19  N   UNL     1       0.574  12.258  19.851  0.00  0.00    +0.000 NA
ATOM     20  C   UNL     1      -0.393  11.600  19.174  0.00  0.00    +0.000 A 
ATOM     21  H   UNL     1      -3.265  14.380  19.272  0.00  0.00    +0.000 HD
ATOM     22  H   UNL     1       5.536  13.609  21.051  0.00  0.00    +0.000 HD
ENDROOT
BRANCH   1  24
ATOM     23  N   UNL     1       2.243  10.905  17.847  0.00  0.00    +0.000 N 
ATOM     24  C   UNL     1       1.283   9.983  18.142  0.00  0.00    +0.000 C 
ATOM     25  O   UNL     1       1.551   8.787  18.162  0.00  0.00    +0.000 OA
ATOM     26  H   UNL     1       3.197  10.587  17.746  0.00  0.00    +0.000 HD
ATOM     27  H   UNL     1       2.050  11.891  17.971  0.00  0.00    +0.000 HD
ENDBRANCH   1  24
BRANCH   7  28
ATOM     28  C   UNL     1      -3.474  14.520  21.325  0.00  0.00    +0.000 C 
BRANCH  28  29
ATOM     29  C   UNL     1      -4.260  13.747  22.371  0.00  0.00    +0.000 A 
ATOM     30  C   UNL     1      -3.556  13.271  23.492  0.00  0.00    +0.000 A 
ATOM     31  F   UNL     1      -2.240  13.500  23.598  0.00  0.00    +0.000 F 
ATOM     32  C   UNL     1      -4.180  12.599  24.540  0.00  0.00    +0.000 A 
ATOM     33  C   UNL     1      -5.549  12.371  24.495  0.00  0.00    +0.000 A 
ATOM     34  C   UNL     1      -6.283  12.850  23.414  0.00  0.00    +0.000 A 
ATOM     35  C   UNL     1      -5.664  13.557  22.349  0.00  0.00    +0.000 A 
BRANCH  35  36
ATOM     36  C   UNL     1      -6.589  14.113  21.291  0.00  0.00    +0.000 C 
ATOM     37  F   UNL     1      -7.914  13.904  21.516  0.00  0.00    +0.000 F 
ATOM     38  F   UNL     1      -6.454  15.461  21.147  0.00  0.00    +0.000 F 
ATOM     39  F   UNL     1      -6.336  13.583  20.062  0.00  0.00    +0.000 F 
ENDBRANCH  35  36
ENDBRANCH  28  29
ENDBRANCH   7  28
TORSDOF 4
ENDMDL
MODEL 8
REMARK VINA RESULT:      -7.1      3.012      6.321
REMARK  Name = 
REMARK  4 active torsions:
REMARK  status: ('A' for Active; 'I' for Inactive)
REMARK    1  A    between atoms: C_2  and  C_4
REMARK    2  A    between atoms: N_10  and  C_11
REMARK    3  A    between atoms: C_11  and  C_12
REMARK    4  A    between atoms: C_18  and  C_19
REMARK                            x       y       z     vdW  Elec       q    Type
REMARK                         _______ _______ _______ _____ _____    ______ ____
ROOT
ATOM      1  C   UNL     1      -3.971  11.233  17.855  0.00  0.00    +0.000 A 
ATOM      2  C   UNL     1      -5.345  10.937  17.785  0.00  0.00    +0.000 A 
ATOM      3  C   UNL     1      -6.190  11.328  18.810  0.00  0.00    +0.000 A 
ATOM      4  C   UNL     1      -5.663  12.013  19.902  0.00  0.00    +0.000 A 
ATOM      5  C   UNL     1      -4.276  12.295  19.993  0.00  0.00    +0.000 A 
ATOM      6  C   UNL     1      -3.677  12.954  21.080  0.00  0.00    +0.000 A 
ATOM      7  N   UNL     1      -4.473  13.551  22.103  0.00  0.00    +0.000 N 
ATOM      8  N   UNL     1      -2.358  13.175  21.128  0.00  0.00    +0.000 NA
ATOM      9  C   UNL     1      -1.578  12.775  20.117  0.00  0.00    +0.000 A 
ATOM     10  N   UNL     1      -0.214  13.077  20.177  0.00  0.00    +0.000 N 
ATOM     11  C   UNL     1       0.054  14.319  20.946  0.00  0.00    +0.000 C 
ATOM     12  C   UNL     1       1.517  14.832  20.965  0.00  0.00    +0.000 C 
ATOM     13  C   UNL     1       2.313  14.372  19.810  0.00  0.00    +0.000 A 
ATOM     14  C   UNL     1       3.616  14.655  19.370  0.00  0.00    +0.000 A 
ATOM     15  N   UNL     1       3.934  13.972  18.264  0.00  0.00    +0.000 NA
ATOM     16  N   UNL     1       2.834  13.236  18.009  0.00  0.00    +0.000 N 
ATOM     17  C   UNL     1       1.838  13.458  18.907  0.00  0.00    +0.000 A 
ATOM     18  C   UNL     1       0.493  12.849  18.911  0.00  0.00    +0.000 C 
ATOM     19  N   UNL     1      -2.081  12.142  19.047  0.00  0.00    +0.000 NA
ATOM     20  C   UNL     1      -3.406  11.892  18.965  0.00  0.00    +0.000 A 
ATOM     21  H   UNL     1      -4.729  14.464  21.725  0.00  0.00    +0.000 HD
ATOM     22  H   UNL     1       2.847  12.614  17.208  0.00  0.00    +0.000 HD
ENDROOT
BRANCH   1  24
ATOM     23  N   UNL     1      -2.251  11.713  16.189  0.00  0.00    +0.000 N 
ATOM     24  C   UNL     1      -3.170  10.825  16.664  0.00  0.00    +0.000 C 
ATOM     25  O   UNL     1      -3.362   9.758  16.090  0.00  0.00    +0.000 OA
ATOM     26  H   UNL     1      -1.665  11.428  15.417  0.00  0.00    +0.000 HD
ATOM     27  H   UNL     1      -1.998  12.522  16.744  0.00  0.00    +0.000 HD
ENDBRANCH   1  24
BRANCH   7  28
ATOM     28  C   UNL     1      -3.718  13.695  23.358  0.00  0.00    +0.000 C 
BRANCH  28  29
ATOM     29  C   UNL     1      -3.807  15.092  23.950  0.00  0.00    +0.000 A 
ATOM     30  C   UNL     1      -5.087  15.661  24.082  0.00  0.00    +0.000 A 
ATOM     31  F   UNL     1      -6.166  14.973  23.682  0.00  0.00    +0.000 F 
ATOM     32  C   UNL     1      -5.297  16.910  24.661  0.00  0.00    +0.000 A 
ATOM     33  C   UNL     1      -4.215  17.645  25.126  0.00  0.00    +0.000 A 
ATOM     34  C   UNL     1      -2.935  17.104  25.035  0.00  0.00    +0.000 A 
ATOM     35  C   UNL     1      -2.709  15.821  24.469  0.00  0.00    +0.000 A 
BRANCH  35  36
ATOM     36  C   UNL     1      -1.289  15.308  24.527  0.00  0.00    +0.000 C 
ATOM     37  F   UNL     1      -1.118  14.033  24.085  0.00  0.00    +0.000 F 
ATOM     38  F   UNL     1      -0.437  16.067  23.782  0.00  0.00    +0.000 F 
ATOM     39  F   UNL     1      -0.789  15.328  25.794  0.00  0.00    +0.000 F 
ENDBRANCH  35  36
ENDBRANCH  28  29
ENDBRANCH   7  28
TORSDOF 4
ENDMDL
MODEL 9
REMARK VINA RESULT:      -7.0      4.016      6.234
REMARK  Name = 
REMARK  4 active torsions:
REMARK  status: ('A' for Active; 'I' for Inactive)
REMARK    1  A    between atoms: C_2  and  C_4
REMARK    2  A    between atoms: N_10  and  C_11
REMARK    3  A    between atoms: C_11  and  C_12
REMARK    4  A    between atoms: C_18  and  C_19
REMARK                            x       y       z     vdW  Elec       q    Type
REMARK                         _______ _______ _______ _____ _____    ______ ____
ROOT
ATOM      1  C   UNL     1       2.290  16.233  19.800  0.00  0.00    +0.000 A 
ATOM      2  C   UNL     1       3.278  15.992  18.828  0.00  0.00    +0.000 A 
ATOM      3  C   UNL     1       3.197  14.867  18.022  0.00  0.00    +0.000 A 
ATOM      4  C   UNL     1       2.132  13.987  18.189  0.00  0.00    +0.000 A 
ATOM      5  C   UNL     1       1.143  14.209  19.182  0.00  0.00    +0.000 A 
ATOM      6  C   UNL     1       0.061  13.344  19.422  0.00  0.00    +0.000 A 
ATOM      7  N   UNL     1      -0.214  12.255  18.542  0.00  0.00    +0.000 N 
ATOM      8  N   UNL     1      -0.832  13.587  20.389  0.00  0.00    +0.000 NA
ATOM      9  C   UNL     1      -0.712  14.684  21.147  0.00  0.00    +0.000 A 
ATOM     10  N   UNL     1      -1.698  14.933  22.106  0.00  0.00    +0.000 N 
ATOM     11  C   UNL     1      -3.017  14.377  21.715  0.00  0.00    +0.000 C 
ATOM     12  C   UNL     1      -4.222  14.710  22.634  0.00  0.00    +0.000 C 
ATOM     13  C   UNL     1      -4.031  15.942  23.423  0.00  0.00    +0.000 A 
ATOM     14  C   UNL     1      -4.868  16.664  24.289  0.00  0.00    +0.000 A 
ATOM     15  N   UNL     1      -4.250  17.728  24.815  0.00  0.00    +0.000 NA
ATOM     16  N   UNL     1      -3.008  17.673  24.295  0.00  0.00    +0.000 N 
ATOM     17  C   UNL     1      -2.844  16.624  23.446  0.00  0.00    +0.000 A 
ATOM     18  C   UNL     1      -1.629  16.282  22.681  0.00  0.00    +0.000 C 
ATOM     19  N   UNL     1       0.294  15.554  20.973  0.00  0.00    +0.000 NA
ATOM     20  C   UNL     1       1.221  15.339  20.014  0.00  0.00    +0.000 A 
ATOM     21  H   UNL     1      -0.751  12.673  17.782  0.00  0.00    +0.000 HD
ATOM     22  H   UNL     1      -2.340  18.387  24.567  0.00  0.00    +0.000 HD
ENDROOT
BRANCH   1  24
ATOM     23  N   UNL     1       2.306  17.452  21.916  0.00  0.00    +0.000 N 
ATOM     24  C   UNL     1       2.442  17.508  20.560  0.00  0.00    +0.000 C 
ATOM     25  O   UNL     1       2.625  18.580  19.995  0.00  0.00    +0.000 OA
ATOM     26  H   UNL     1       2.461  18.297  22.448  0.00  0.00    +0.000 HD
ATOM     27  H   UNL     1       2.299  16.554  22.385  0.00  0.00    +0.000 HD
ENDBRANCH   1  24
BRANCH   7  28
ATOM     28  C   UNL     1      -0.990  11.201  19.217  0.00  0.00    +0.000 C 
BRANCH  28  29
ATOM     29  C   UNL     1      -0.128  10.276  20.060  0.00  0.00    +0.000 A 
ATOM     30  C   UNL     1      -0.407  10.203  21.437  0.00  0.00    +0.000 A 
ATOM     31  F   UNL     1      -1.396  10.945  21.956  0.00  0.00    +0.000 F 
ATOM     32  C   UNL     1       0.278   9.349  22.297  0.00  0.00    +0.000 A 
ATOM     33  C   UNL     1       1.285   8.534  21.801  0.00  0.00    +0.000 A 
ATOM     34  C   UNL     1       1.572   8.558  20.439  0.00  0.00    +0.000 A 
ATOM     35  C   UNL     1       0.866   9.406  19.546  0.00  0.00    +0.000 A 
BRANCH  35  36
ATOM     36  C   UNL     1       1.203   9.260  18.080  0.00  0.00    +0.000 C 
ATOM     37  F   UNL     1       0.133   9.261  17.240  0.00  0.00    +0.000 F 
ATOM     38  F   UNL     1       2.012  10.262  17.636  0.00  0.00    +0.000 F 
ATOM     39  F   UNL     1       1.873   8.103  17.822  0.00  0.00    +0.000 F 
ENDBRANCH  35  36
ENDBRANCH  28  29
ENDBRANCH   7  28
TORSDOF 4
ENDMDL
