MODEL 1
REMARK VINA RESULT:      -7.9      0.000      0.000
REMARK  Name = 
REMARK  12 active torsions:
REMARK  status: ('A' for Active; 'I' for Inactive)
REMARK    1  A    between atoms: C_1  and  C_2
REMARK    2  A    between atoms: C_2  and  N_3
REMARK    3  A    between atoms: N_3  and  C_4
REMARK    4  A    between atoms: N_3  and  C_6
REMARK    5  A    between atoms: C_4  and  C_5
REMARK    6  A    between atoms: C_6  and  C_7
REMARK    7  A    between atoms: C_10  and  C_11
REMARK    8  A    between atoms: C_12  and  C_13
REMARK    9  A    between atoms: C_16  and  C_17
REMARK   10  A    between atoms: C_22  and  C_23
REMARK   11  A    between atoms: C_22  and  C_24
REMARK   12  A    between atoms: C_27  and  O_28
REMARK                            x       y       z     vdW  Elec       q    Type
REMARK                         _______ _______ _______ _____ _____    ______ ____
ROOT
ATOM      1  C   UNL     1       8.476   9.075  17.897  0.00  0.00    +0.000 C 
ATOM      2  C   UNL     1       9.000   9.630  18.998  0.00  0.00    +0.000 C 
ENDROOT
BRANCH   2   3
ATOM      3  C   UNL     1       9.744  10.894  18.945  0.00  0.00    +0.000 A 
ATOM      4  C   UNL     1      10.515  11.195  17.825  0.00  0.00    +0.000 A 
ATOM      5  N   UNL     1      11.226  12.335  17.672  0.00  0.00    +0.000 NA
ATOM      6  C   UNL     1      11.154  13.249  18.671  0.00  0.00    +0.000 A 
ATOM      7  C   UNL     1      11.935  14.517  18.476  0.00  0.00    +0.000 C 
ATOM      8  C   UNL     1      10.387  13.046  19.821  0.00  0.00    +0.000 A 
ATOM      9  C   UNL     1       9.699  11.838  19.979  0.00  0.00    +0.000 A 
ATOM     10  C   UNL     1       8.905  11.598  21.228  0.00  0.00    +0.000 C 
ATOM     11  O   UNL     1       9.173  12.573  22.227  0.00  0.00    +0.000 OA
ATOM     12  C   UNL     1       9.252  13.895  21.697  0.00  0.00    +0.000 C 
ATOM     13  C   UNL     1       7.921  14.373  21.094  0.00  0.00    +0.000 C 
ATOM     14  C   UNL     1       9.592  14.797  22.887  0.00  0.00    +0.000 C 
ATOM     15  O   UNL     1      10.317  14.050  20.748  0.00  0.00    +0.000 OA
ENDBRANCH   2   3
BRANCH   1  19
ATOM     16  C   UNL     1       6.255   5.390  18.076  0.00  0.00    +0.000 A 
ATOM     17  C   UNL     1       7.363   5.610  18.905  0.00  0.00    +0.000 A 
ATOM     18  C   UNL     1       8.093   6.800  18.820  0.00  0.00    +0.000 A 
ATOM     19  C   UNL     1       7.748   7.790  17.892  0.00  0.00    +0.000 A 
ATOM     20  C   UNL     1       6.654   7.561  17.042  0.00  0.00    +0.000 A 
ATOM     21  C   UNL     1       5.926   6.376  17.136  0.00  0.00    +0.000 A 
BRANCH  21  22
ATOM     22  O   UNL     1       4.837   6.186  16.326  0.00  0.00    +0.000 OA
ATOM     23  H   UNL     1       4.800   5.253  16.061  0.00  0.00    +0.000 HD
ENDBRANCH  21  22
BRANCH  16  24
ATOM     24  C   UNL     1       5.375   4.163  18.271  0.00  0.00    +0.000 C 
BRANCH  24  25
ATOM     25  N   UNL     1       3.930   4.488  18.390  0.00  0.00    +0.000 NA
BRANCH  25  27
ATOM     26  C   UNL     1       3.709   1.964  18.491  0.00  0.00    +0.000 C 
ATOM     27  C   UNL     1       3.111   3.302  18.076  0.00  0.00    +0.000 C 
ENDBRANCH  25  27
BRANCH  25  28
ATOM     28  C   UNL     1       3.624   5.092  19.700  0.00  0.00    +0.000 C 
ATOM     29  C   UNL     1       2.228   4.831  20.265  0.00  0.00    +0.000 C 
ENDBRANCH  25  28
ENDBRANCH  24  25
ENDBRANCH  16  24
ENDBRANCH   1  19
TORSDOF 7
ENDMDL
MODEL 2
REMARK VINA RESULT:      -7.7      0.496      1.224
REMARK  Name = 
REMARK  12 active torsions:
REMARK  status: ('A' for Active; 'I' for Inactive)
REMARK    1  A    between atoms: C_1  and  C_2
REMARK    2  A    between atoms: C_2  and  N_3
REMARK    3  A    between atoms: N_3  and  C_4
REMARK    4  A    between atoms: N_3  and  C_6
REMARK    5  A    between atoms: C_4  and  C_5
REMARK    6  A    between atoms: C_6  and  C_7
REMARK    7  A    between atoms: C_10  and  C_11
REMARK    8  A    between atoms: C_12  and  C_13
REMARK    9  A    between atoms: C_16  and  C_17
REMARK   10  A    between atoms: C_22  and  C_23
REMARK   11  A    between atoms: C_22  and  C_24
REMARK   12  A    between atoms: C_27  and  O_28
REMARK                            x       y       z     vdW  Elec       q    Type
REMARK                         _______ _______ _______ _____ _____    ______ ____
ROOT
ATOM      1  C   UNL     1       8.378   9.129  17.910  0.00  0.00    +0.000 C 
ATOM      2  C   UNL     1       8.974   9.621  19.004  0.00  0.00    +0.000 C 
ENDROOT
BRANCH   2   3
ATOM      3  C   UNL     1       9.678  10.908  18.987  0.00  0.00    +0.000 A 
ATOM      4  C   UNL     1      10.421  11.274  17.868  0.00  0.00    +0.000 A 
ATOM      5  N   UNL     1      11.095  12.439  17.747  0.00  0.00    +0.000 NA
ATOM      6  C   UNL     1      11.013  13.314  18.781  0.00  0.00    +0.000 A 
ATOM      7  C   UNL     1      11.752  14.611  18.622  0.00  0.00    +0.000 C 
ATOM      8  C   UNL     1      10.272  13.044  19.935  0.00  0.00    +0.000 A 
ATOM      9  C   UNL     1       9.623  11.811  20.057  0.00  0.00    +0.000 A 
ATOM     10  C   UNL     1       8.857  11.500  21.308  0.00  0.00    +0.000 C 
ATOM     11  O   UNL     1       9.113  12.445  22.339  0.00  0.00    +0.000 OA
ATOM     12  C   UNL     1       9.144  13.787  21.859  0.00  0.00    +0.000 C 
ATOM     13  C   UNL     1       7.789  14.247  21.295  0.00  0.00    +0.000 C 
ATOM     14  C   UNL     1       9.476  14.654  23.076  0.00  0.00    +0.000 C 
ATOM     15  O   UNL     1      10.187  14.010  20.899  0.00  0.00    +0.000 OA
ENDBRANCH   2   3
BRANCH   1  19
ATOM     16  C   UNL     1       6.256   5.383  17.976  0.00  0.00    +0.000 A 
ATOM     17  C   UNL     1       7.352   5.612  18.819  0.00  0.00    +0.000 A 
ATOM     18  C   UNL     1       8.050   6.822  18.770  0.00  0.00    +0.000 A 
ATOM     19  C   UNL     1       7.685   7.826  17.866  0.00  0.00    +0.000 A 
ATOM     20  C   UNL     1       6.604   7.590  17.001  0.00  0.00    +0.000 A 
ATOM     21  C   UNL     1       5.907   6.384  17.060  0.00  0.00    +0.000 A 
BRANCH  21  22
ATOM     22  O   UNL     1       4.829   6.186  16.237  0.00  0.00    +0.000 OA
ATOM     23  H   UNL     1       4.948   6.715  15.431  0.00  0.00    +0.000 HD
ENDBRANCH  21  22
BRANCH  16  24
ATOM     24  C   UNL     1       5.408   4.128  18.133  0.00  0.00    +0.000 C 
BRANCH  24  25
ATOM     25  N   UNL     1       4.615   4.108  19.391  0.00  0.00    +0.000 NA
BRANCH  25  27
ATOM     26  C   UNL     1       2.524   5.435  18.849  0.00  0.00    +0.000 C 
ATOM     27  C   UNL     1       3.875   5.374  19.550  0.00  0.00    +0.000 C 
ENDBRANCH  25  27
BRANCH  25  28
ATOM     28  C   UNL     1       3.763   2.907  19.465  0.00  0.00    +0.000 C 
ATOM     29  C   UNL     1       3.714   2.024  18.220  0.00  0.00    +0.000 C 
ENDBRANCH  25  28
ENDBRANCH  24  25
ENDBRANCH  16  24
ENDBRANCH   1  19
TORSDOF 7
ENDMDL
MODEL 3
REMARK VINA RESULT:      -7.6      1.069      1.601
REMARK  Name = 
REMARK  12 active torsions:
REMARK  status: ('A' for Active; 'I' for Inactive)
REMARK    1  A    between atoms: C_1  and  C_2
REMARK    2  A    between atoms: C_2  and  N_3
REMARK    3  A    between atoms: N_3  and  C_4
REMARK    4  A    between atoms: N_3  and  C_6
REMARK    5  A    between atoms: C_4  and  C_5
REMARK    6  A    between atoms: C_6  and  C_7
REMARK    7  A    between atoms: C_10  and  C_11
REMARK    8  A    between atoms: C_12  and  C_13
REMARK    9  A    between atoms: C_16  and  C_17
REMARK   10  A    between atoms: C_22  and  C_23
REMARK   11  A    between atoms: C_22  and  C_24
REMARK   12  A    between atoms: C_27  and  O_28
REMARK                            x       y       z     vdW  Elec       q    Type
REMARK                         _______ _______ _______ _____ _____    ______ ____
ROOT
ATOM      1  C   UNL     1       8.520   9.551  18.113  0.00  0.00    +0.000 C 
ATOM      2  C   UNL     1       9.342   9.841  19.130  0.00  0.00    +0.000 C 
ENDROOT
BRANCH   2   3
ATOM      3  C   UNL     1      10.049  11.124  19.210  0.00  0.00    +0.000 A 
ATOM      4  C   UNL     1      10.938  11.486  18.202  0.00  0.00    +0.000 A 
ATOM      5  N   UNL     1      11.628  12.648  18.175  0.00  0.00    +0.000 NA
ATOM      6  C   UNL     1      11.412  13.523  19.188  0.00  0.00    +0.000 A 
ATOM      7  C   UNL     1      12.172  14.816  19.132  0.00  0.00    +0.000 C 
ATOM      8  C   UNL     1      10.519  13.257  20.231  0.00  0.00    +0.000 A 
ATOM      9  C   UNL     1       9.854  12.027  20.263  0.00  0.00    +0.000 A 
ATOM     10  C   UNL     1       8.924  11.720  21.399  0.00  0.00    +0.000 C 
ATOM     11  O   UNL     1       9.043  12.663  22.456  0.00  0.00    +0.000 OA
ATOM     12  C   UNL     1       9.145  14.006  21.985  0.00  0.00    +0.000 C 
ATOM     13  C   UNL     1       7.881  14.472  21.243  0.00  0.00    +0.000 C 
ATOM     14  C   UNL     1       9.314  14.871  23.237  0.00  0.00    +0.000 C 
ATOM     15  O   UNL     1      10.310  14.223  21.176  0.00  0.00    +0.000 OA
ENDBRANCH   2   3
BRANCH   1  19
ATOM     16  C   UNL     1       6.378   5.822  17.906  0.00  0.00    +0.000 A 
ATOM     17  C   UNL     1       7.577   5.931  18.625  0.00  0.00    +0.000 A 
ATOM     18  C   UNL     1       8.278   7.140  18.663  0.00  0.00    +0.000 A 
ATOM     19  C   UNL     1       7.811   8.263  17.969  0.00  0.00    +0.000 A 
ATOM     20  C   UNL     1       6.625   8.150  17.227  0.00  0.00    +0.000 A 
ATOM     21  C   UNL     1       5.926   6.943  17.199  0.00  0.00    +0.000 A 
BRANCH  21  22
ATOM     22  O   UNL     1       4.749   6.861  16.502  0.00  0.00    +0.000 OA
ATOM     23  H   UNL     1       4.361   7.748  16.435  0.00  0.00    +0.000 HD
ENDBRANCH  21  22
BRANCH  16  24
ATOM     24  C   UNL     1       5.542   4.551  17.987  0.00  0.00    +0.000 C 
BRANCH  24  25
ATOM     25  N   UNL     1       4.842   4.226  16.717  0.00  0.00    +0.000 NA
BRANCH  25  27
ATOM     26  C   UNL     1       6.147   4.199  14.543  0.00  0.00    +0.000 C 
ATOM     27  C   UNL     1       5.738   3.473  15.818  0.00  0.00    +0.000 C 
ENDBRANCH  25  27
BRANCH  25  28
ATOM     28  C   UNL     1       3.555   3.554  16.973  0.00  0.00    +0.000 C 
ATOM     29  C   UNL     1       3.590   2.335  17.893  0.00  0.00    +0.000 C 
ENDBRANCH  25  28
ENDBRANCH  24  25
ENDBRANCH  16  24
ENDBRANCH   1  19
TORSDOF 7
ENDMDL
MODEL 4
REMARK VINA RESULT:      -7.6      1.118      1.513
REMARK  Name = 
REMARK  12 active torsions:
REMARK  status: ('A' for Active; 'I' for Inactive)
REMARK    1  A    between atoms: C_1  and  C_2
REMARK    2  A    between atoms: C_2  and  N_3
REMARK    3  A    between atoms: N_3  and  C_4
REMARK    4  A    between atoms: N_3  and  C_6
REMARK    5  A    between atoms: C_4  and  C_5
REMARK    6  A    between atoms: C_6  and  C_7
REMARK    7  A    between atoms: C_10  and  C_11
REMARK    8  A    between atoms: C_12  and  C_13
REMARK    9  A    between atoms: C_16  and  C_17
REMARK   10  A    between atoms: C_22  and  C_23
REMARK   11  A    between atoms: C_22  and  C_24
REMARK   12  A    between atoms: C_27  and  O_28
REMARK                            x       y       z     vdW  Elec       q    Type
REMARK                         _______ _______ _______ _____ _____    ______ ____
ROOT
ATOM      1  C   UNL     1       8.334   9.118  17.813  0.00  0.00    +0.000 C 
ATOM      2  C   UNL     1       8.808   9.683  18.931  0.00  0.00    +0.000 C 
ENDROOT
BRANCH   2   3
ATOM      3  C   UNL     1       9.647  10.886  18.891  0.00  0.00    +0.000 A 
ATOM      4  C   UNL     1      10.464  11.122  17.789  0.00  0.00    +0.000 A 
ATOM      5  N   UNL     1      11.264  12.203  17.649  0.00  0.00    +0.000 NA
ATOM      6  C   UNL     1      11.240  13.125  18.643  0.00  0.00    +0.000 A 
ATOM      7  C   UNL     1      12.120  14.328  18.463  0.00  0.00    +0.000 C 
ATOM      8  C   UNL     1      10.434  12.986  19.777  0.00  0.00    +0.000 A 
ATOM      9  C   UNL     1       9.652  11.835  19.922  0.00  0.00    +0.000 A 
ATOM     10  C   UNL     1       8.814  11.662  21.153  0.00  0.00    +0.000 C 
ATOM     11  O   UNL     1       9.133  12.618  22.155  0.00  0.00    +0.000 OA
ATOM     12  C   UNL     1       9.325  13.928  21.624  0.00  0.00    +0.000 C 
ATOM     13  C   UNL     1       8.048  14.504  20.989  0.00  0.00    +0.000 C 
ATOM     14  C   UNL     1       9.706  14.806  22.818  0.00  0.00    +0.000 C 
ATOM     15  O   UNL     1      10.420  13.997  20.698  0.00  0.00    +0.000 OA
ENDBRANCH   2   3
BRANCH   1  19
ATOM     16  C   UNL     1       5.966   5.532  17.539  0.00  0.00    +0.000 A 
ATOM     17  C   UNL     1       5.445   6.777  17.158  0.00  0.00    +0.000 A 
ATOM     18  C   UNL     1       6.214   7.939  17.277  0.00  0.00    +0.000 A 
ATOM     19  C   UNL     1       7.513   7.890  17.796  0.00  0.00    +0.000 A 
ATOM     20  C   UNL     1       8.028   6.649  18.203  0.00  0.00    +0.000 A 
ATOM     21  C   UNL     1       7.259   5.493  18.076  0.00  0.00    +0.000 A 
BRANCH  21  22
ATOM     22  O   UNL     1       7.792   4.284  18.440  0.00  0.00    +0.000 OA
ATOM     23  H   UNL     1       8.706   4.233  18.116  0.00  0.00    +0.000 HD
ENDBRANCH  21  22
BRANCH  16  24
ATOM     24  C   UNL     1       5.184   4.253  17.272  0.00  0.00    +0.000 C 
BRANCH  24  25
ATOM     25  N   UNL     1       4.092   4.016  18.252  0.00  0.00    +0.000 NA
BRANCH  25  27
ATOM     26  C   UNL     1       1.664   4.443  17.659  0.00  0.00    +0.000 C 
ATOM     27  C   UNL     1       2.881   3.533  17.562  0.00  0.00    +0.000 C 
ENDBRANCH  25  27
BRANCH  25  28
ATOM     28  C   UNL     1       4.540   3.140  19.349  0.00  0.00    +0.000 C 
ATOM     29  C   UNL     1       3.469   2.673  20.334  0.00  0.00    +0.000 C 
ENDBRANCH  25  28
ENDBRANCH  24  25
ENDBRANCH  16  24
ENDBRANCH   1  19
TORSDOF 7
ENDMDL
MODEL 5
REMARK VINA RESULT:      -7.5      6.120     10.022
REMARK  Name = 
REMARK  12 active torsions:
REMARK  status: ('A' for Active; 'I' for Inactive)
REMARK    1  A    between atoms: C_1  and  C_2
REMARK    2  A    between atoms: C_2  and  N_3
REMARK    3  A    between atoms: N_3  and  C_4
REMARK    4  A    between atoms: N_3  and  C_6
REMARK    5  A    between atoms: C_4  and  C_5
REMARK    6  A    between atoms: C_6  and  C_7
REMARK    7  A    between atoms: C_10  and  C_11
REMARK    8  A    between atoms: C_12  and  C_13
REMARK    9  A    between atoms: C_16  and  C_17
REMARK   10  A    between atoms: C_22  and  C_23
REMARK   11  A    between atoms: C_22  and  C_24
REMARK   12  A    between atoms: C_27  and  O_28
REMARK                            x       y       z     vdW  Elec       q    Type
REMARK                         _______ _______ _______ _____ _____    ______ ____
ROOT
ATOM      1  C   UNL     1       1.949   8.539  17.489  0.00  0.00    +0.000 C 
ATOM      2  C   UNL     1       3.060   8.010  18.019  0.00  0.00    +0.000 C 
ENDROOT
BRANCH   2   3
ATOM      3  C   UNL     1       3.784   6.917  17.362  0.00  0.00    +0.000 A 
ATOM      4  C   UNL     1       4.788   7.208  16.442  0.00  0.00    +0.000 A 
ATOM      5  N   UNL     1       5.521   6.276  15.792  0.00  0.00    +0.000 NA
ATOM      6  C   UNL     1       5.271   4.976  16.084  0.00  0.00    +0.000 A 
ATOM      7  C   UNL     1       6.108   3.956  15.367  0.00  0.00    +0.000 C 
ATOM      8  C   UNL     1       4.300   4.588  17.012  0.00  0.00    +0.000 A 
ATOM      9  C   UNL     1       3.521   5.568  17.635  0.00  0.00    +0.000 A 
ATOM     10  C   UNL     1       2.453   5.157  18.603  0.00  0.00    +0.000 C 
ATOM     11  O   UNL     1       2.207   3.757  18.564  0.00  0.00    +0.000 OA
ATOM     12  C   UNL     1       3.408   2.991  18.488  0.00  0.00    +0.000 C 
ATOM     13  C   UNL     1       4.296   3.153  19.733  0.00  0.00    +0.000 C 
ATOM     14  C   UNL     1       2.961   1.529  18.405  0.00  0.00    +0.000 C 
ATOM     15  O   UNL     1       4.162   3.257  17.296  0.00  0.00    +0.000 OA
ENDBRANCH   2   3
BRANCH   1  19
ATOM     16  C   UNL     1      -0.397  11.534  19.504  0.00  0.00    +0.000 A 
ATOM     17  C   UNL     1      -1.005  10.530  18.739  0.00  0.00    +0.000 A 
ATOM     18  C   UNL     1      -0.232   9.578  18.067  0.00  0.00    +0.000 A 
ATOM     19  C   UNL     1       1.166   9.617  18.125  0.00  0.00    +0.000 A 
ATOM     20  C   UNL     1       1.780  10.638  18.870  0.00  0.00    +0.000 A 
ATOM     21  C   UNL     1       1.003  11.580  19.544  0.00  0.00    +0.000 A 
BRANCH  21  22
ATOM     22  O   UNL     1       1.617  12.545  20.298  0.00  0.00    +0.000 OA
ATOM     23  H   UNL     1       1.056  12.749  21.064  0.00  0.00    +0.000 HD
ENDBRANCH  21  22
BRANCH  16  24
ATOM     24  C   UNL     1      -1.240  12.477  20.352  0.00  0.00    +0.000 C 
BRANCH  24  25
ATOM     25  N   UNL     1      -0.780  12.570  21.762  0.00  0.00    +0.000 NA
BRANCH  25  27
ATOM     26  C   UNL     1      -1.289  14.112  23.710  0.00  0.00    +0.000 C 
ATOM     27  C   UNL     1      -0.892  13.959  22.247  0.00  0.00    +0.000 C 
ENDBRANCH  25  27
BRANCH  25  28
ATOM     28  C   UNL     1      -1.470  11.585  22.615  0.00  0.00    +0.000 C 
ATOM     29  C   UNL     1      -0.686  10.325  22.979  0.00  0.00    +0.000 C 
ENDBRANCH  25  28
ENDBRANCH  24  25
ENDBRANCH  16  24
ENDBRANCH   1  19
TORSDOF 7
ENDMDL
MODEL 6
REMARK VINA RESULT:      -7.5      1.518      2.145
REMARK  Name = 
REMARK  12 active torsions:
REMARK  status: ('A' for Active; 'I' for Inactive)
REMARK    1  A    between atoms: C_1  and  C_2
REMARK    2  A    between atoms: C_2  and  N_3
REMARK    3  A    between atoms: N_3  and  C_4
REMARK    4  A    between atoms: N_3  and  C_6
REMARK    5  A    between atoms: C_4  and  C_5
REMARK    6  A    between atoms: C_6  and  C_7
REMARK    7  A    between atoms: C_10  and  C_11
REMARK    8  A    between atoms: C_12  and  C_13
REMARK    9  A    between atoms: C_16  and  C_17
REMARK   10  A    between atoms: C_22  and  C_23
REMARK   11  A    between atoms: C_22  and  C_24
REMARK   12  A    between atoms: C_27  and  O_28
REMARK                            x       y       z     vdW  Elec       q    Type
REMARK                         _______ _______ _______ _____ _____    ______ ____
ROOT
ATOM      1  C   UNL     1       8.644   9.779  18.188  0.00  0.00    +0.000 C 
ATOM      2  C   UNL     1       9.681  10.087  18.977  0.00  0.00    +0.000 C 
ENDROOT
BRANCH   2   3
ATOM      3  C   UNL     1      10.308  11.413  18.945  0.00  0.00    +0.000 A 
ATOM      4  C   UNL     1      11.086  11.783  17.851  0.00  0.00    +0.000 A 
ATOM      5  N   UNL     1      11.695  12.983  17.719  0.00  0.00    +0.000 NA
ATOM      6  C   UNL     1      11.508  13.887  18.712  0.00  0.00    +0.000 A 
ATOM      7  C   UNL     1      12.176  15.220  18.540  0.00  0.00    +0.000 C 
ATOM      8  C   UNL     1      10.724  13.614  19.837  0.00  0.00    +0.000 A 
ATOM      9  C   UNL     1      10.144  12.349  19.975  0.00  0.00    +0.000 A 
ATOM     10  C   UNL     1       9.333  12.037  21.197  0.00  0.00    +0.000 C 
ATOM     11  O   UNL     1       9.478  13.032  22.202  0.00  0.00    +0.000 OA
ATOM     12  C   UNL     1       9.455  14.356  21.672  0.00  0.00    +0.000 C 
ATOM     13  C   UNL     1       8.106  14.711  21.024  0.00  0.00    +0.000 C 
ATOM     14  C   UNL     1       9.671  15.285  22.870  0.00  0.00    +0.000 C 
ATOM     15  O   UNL     1      10.532  14.607  20.758  0.00  0.00    +0.000 OA
ENDBRANCH   2   3
BRANCH   1  19
ATOM     16  C   UNL     1       6.877   5.863  17.911  0.00  0.00    +0.000 A 
ATOM     17  C   UNL     1       6.460   6.908  17.075  0.00  0.00    +0.000 A 
ATOM     18  C   UNL     1       7.022   8.183  17.192  0.00  0.00    +0.000 A 
ATOM     19  C   UNL     1       7.998   8.451  18.158  0.00  0.00    +0.000 A 
ATOM     20  C   UNL     1       8.399   7.414  19.015  0.00  0.00    +0.000 A 
ATOM     21  C   UNL     1       7.840   6.142  18.889  0.00  0.00    +0.000 A 
BRANCH  21  22
ATOM     22  O   UNL     1       8.271   5.131  19.707  0.00  0.00    +0.000 OA
ATOM     23  H   UNL     1       9.177   4.889  19.456  0.00  0.00    +0.000 HD
ENDBRANCH  21  22
BRANCH  16  24
ATOM     24  C   UNL     1       6.372   4.444  17.684  0.00  0.00    +0.000 C 
BRANCH  24  25
ATOM     25  N   UNL     1       5.375   4.342  16.587  0.00  0.00    +0.000 NA
BRANCH  25  27
ATOM     26  C   UNL     1       6.527   4.520  14.335  0.00  0.00    +0.000 C 
ATOM     27  C   UNL     1       5.955   3.631  15.432  0.00  0.00    +0.000 C 
ENDBRANCH  25  27
BRANCH  25  28
ATOM     28  C   UNL     1       4.109   3.760  17.068  0.00  0.00    +0.000 C 
ATOM     29  C   UNL     1       4.055   3.360  18.542  0.00  0.00    +0.000 C 
ENDBRANCH  25  28
ENDBRANCH  24  25
ENDBRANCH  16  24
ENDBRANCH   1  19
TORSDOF 7
ENDMDL
MODEL 7
REMARK VINA RESULT:      -7.5      6.242      9.339
REMARK  Name = 
REMARK  12 active torsions:
REMARK  status: ('A' for Active; 'I' for Inactive)
REMARK    1  A    between atoms: C_1  and  C_2
REMARK    2  A    between atoms: C_2  and  N_3
REMARK    3  A    between atoms: N_3  and  C_4
REMARK    4  A    between atoms: N_3  and  C_6
REMARK    5  A    between atoms: C_4  and  C_5
REMARK    6  A    between atoms: C_6  and  C_7
REMARK    7  A    between atoms: C_10  and  C_11
REMARK    8  A    between atoms: C_12  and  C_13
REMARK    9  A    between atoms: C_16  and  C_17
REMARK   10  A    between atoms: C_22  and  C_23
REMARK   11  A    between atoms: C_22  and  C_24
REMARK   12  A    between atoms: C_27  and  O_28
REMARK                            x       y       z     vdW  Elec       q    Type
REMARK                         _______ _______ _______ _____ _____    ______ ____
ROOT
ATOM      1  C   UNL     1       1.664   8.691  19.122  0.00  0.00    +0.000 C 
ATOM      2  C   UNL     1       1.001   9.470  18.256  0.00  0.00    +0.000 C 
ENDROOT
BRANCH   2   3
ATOM      3  C   UNL     1       0.192  10.608  18.705  0.00  0.00    +0.000 A 
ATOM      4  C   UNL     1       0.806  11.682  19.345  0.00  0.00    +0.000 A 
ATOM      5  N   UNL     1       0.154  12.782  19.785  0.00  0.00    +0.000 NA
ATOM      6  C   UNL     1      -1.182  12.844  19.559  0.00  0.00    +0.000 A 
ATOM      7  C   UNL     1      -1.886  14.080  20.037  0.00  0.00    +0.000 C 
ATOM      8  C   UNL     1      -1.880  11.825  18.903  0.00  0.00    +0.000 A 
ATOM      9  C   UNL     1      -1.192  10.676  18.500  0.00  0.00    +0.000 A 
ATOM     10  C   UNL     1      -1.942   9.564  17.830  0.00  0.00    +0.000 C 
ATOM     11  O   UNL     1      -3.350   9.738  17.923  0.00  0.00    +0.000 OA
ATOM     12  C   UNL     1      -3.753  11.085  17.691  0.00  0.00    +0.000 C 
ATOM     13  C   UNL     1      -3.437  11.562  16.263  0.00  0.00    +0.000 C 
ATOM     14  C   UNL     1      -5.273  11.100  17.876  0.00  0.00    +0.000 C 
ATOM     15  O   UNL     1      -3.214  12.001  18.656  0.00  0.00    +0.000 OA
ENDBRANCH   2   3
BRANCH   1  19
ATOM     16  C   UNL     1       4.183   5.371  18.043  0.00  0.00    +0.000 A 
ATOM     17  C   UNL     1       4.171   6.550  17.285  0.00  0.00    +0.000 A 
ATOM     18  C   UNL     1       3.329   7.611  17.629  0.00  0.00    +0.000 A 
ATOM     19  C   UNL     1       2.464   7.516  18.726  0.00  0.00    +0.000 A 
ATOM     20  C   UNL     1       2.454   6.326  19.472  0.00  0.00    +0.000 A 
ATOM     21  C   UNL     1       3.302   5.273  19.127  0.00  0.00    +0.000 A 
BRANCH  21  22
ATOM     22  O   UNL     1       3.308   4.135  19.890  0.00  0.00    +0.000 OA
ATOM     23  H   UNL     1       3.136   4.375  20.815  0.00  0.00    +0.000 HD
ENDBRANCH  21  22
BRANCH  16  24
ATOM     24  C   UNL     1       5.203   4.277  17.756  0.00  0.00    +0.000 C 
BRANCH  24  25
ATOM     25  N   UNL     1       6.360   4.748  16.950  0.00  0.00    +0.000 NA
BRANCH  25  27
ATOM     26  C   UNL     1       7.770   5.847  18.749  0.00  0.00    +0.000 C 
ATOM     27  C   UNL     1       7.595   4.706  17.756  0.00  0.00    +0.000 C 
ENDBRANCH  25  27
BRANCH  25  28
ATOM     28  C   UNL     1       6.456   4.017  15.675  0.00  0.00    +0.000 C 
ATOM     29  C   UNL     1       6.856   4.832  14.446  0.00  0.00    +0.000 C 
ENDBRANCH  25  28
ENDBRANCH  24  25
ENDBRANCH  16  24
ENDBRANCH   1  19
TORSDOF 7
ENDMDL
MODEL 8
REMARK VINA RESULT:      -7.5      6.924      8.566
REMARK  Name = 
REMARK  12 active torsions:
REMARK  status: ('A' for Active; 'I' for Inactive)
REMARK    1  A    between atoms: C_1  and  C_2
REMARK    2  A    between atoms: C_2  and  N_3
REMARK    3  A    between atoms: N_3  and  C_4
REMARK    4  A    between atoms: N_3  and  C_6
REMARK    5  A    between atoms: C_4  and  C_5
REMARK    6  A    between atoms: C_6  and  C_7
REMARK    7  A    between atoms: C_10  and  C_11
REMARK    8  A    between atoms: C_12  and  C_13
REMARK    9  A    between atoms: C_16  and  C_17
REMARK   10  A    between atoms: C_22  and  C_23
REMARK   11  A    between atoms: C_22  and  C_24
REMARK   12  A    between atoms: C_27  and  O_28
REMARK                            x       y       z     vdW  Elec       q    Type
REMARK                         _______ _______ _______ _____ _____    ______ ____
ROOT
ATOM      1  C   UNL     1       2.579   6.679  19.073  0.00  0.00    +0.000 C 
ATOM      2  C   UNL     1       2.209   7.958  18.928  0.00  0.00    +0.000 C 
ENDROOT
BRANCH   2   3
ATOM      3  C   UNL     1       1.388   8.642  19.933  0.00  0.00    +0.000 A 
ATOM      4  C   UNL     1       1.600   8.391  21.286  0.00  0.00    +0.000 A 
ATOM      5  N   UNL     1       0.907   8.976  22.289  0.00  0.00    +0.000 NA
ATOM      6  C   UNL     1      -0.036   9.887  21.943  0.00  0.00    +0.000 A 
ATOM      7  C   UNL     1      -0.782  10.540  23.069  0.00  0.00    +0.000 C 
ATOM      8  C   UNL     1      -0.303  10.222  20.612  0.00  0.00    +0.000 A 
ATOM      9  C   UNL     1       0.392   9.567  19.590  0.00  0.00    +0.000 A 
ATOM     10  C   UNL     1       0.085   9.894  18.160  0.00  0.00    +0.000 C 
ATOM     11  O   UNL     1      -1.094  10.680  18.034  0.00  0.00    +0.000 OA
ATOM     12  C   UNL     1      -1.174  11.711  19.015  0.00  0.00    +0.000 C 
ATOM     13  C   UNL     1      -0.047  12.750  18.878  0.00  0.00    +0.000 C 
ATOM     14  C   UNL     1      -2.510  12.417  18.766  0.00  0.00    +0.000 C 
ATOM     15  O   UNL     1      -1.223  11.200  20.355  0.00  0.00    +0.000 OA
ENDBRANCH   2   3
BRANCH   1  19
ATOM     16  C   UNL     1       5.093   4.576  16.281  0.00  0.00    +0.000 A 
ATOM     17  C   UNL     1       4.985   5.973  16.251  0.00  0.00    +0.000 A 
ATOM     18  C   UNL     1       4.145   6.644  17.145  0.00  0.00    +0.000 A 
ATOM     19  C   UNL     1       3.377   5.936  18.077  0.00  0.00    +0.000 A 
ATOM     20  C   UNL     1       3.463   4.534  18.092  0.00  0.00    +0.000 A 
ATOM     21  C   UNL     1       4.308   3.872  17.202  0.00  0.00    +0.000 A 
BRANCH  21  22
ATOM     22  O   UNL     1       4.409   2.507  17.258  0.00  0.00    +0.000 OA
ATOM     23  H   UNL     1       3.863   2.122  16.553  0.00  0.00    +0.000 HD
ENDBRANCH  21  22
BRANCH  16  24
ATOM     24  C   UNL     1       6.116   3.861  15.409  0.00  0.00    +0.000 C 
BRANCH  24  25
ATOM     25  N   UNL     1       6.278   4.478  14.066  0.00  0.00    +0.000 NA
BRANCH  25  27
ATOM     26  C   UNL     1       8.070   5.523  12.608  0.00  0.00    +0.000 C 
ATOM     27  C   UNL     1       7.533   5.252  14.007  0.00  0.00    +0.000 C 
ENDBRANCH  25  27
BRANCH  25  28
ATOM     28  C   UNL     1       6.150   3.472  12.997  0.00  0.00    +0.000 C 
ATOM     29  C   UNL     1       4.846   3.480  12.201  0.00  0.00    +0.000 C 
ENDBRANCH  25  28
ENDBRANCH  24  25
ENDBRANCH  16  24
ENDBRANCH   1  19
TORSDOF 7
ENDMDL
MODEL 9
REMARK VINA RESULT:      -7.4      6.332     10.236
REMARK  Name = 
REMARK  12 active torsions:
REMARK  status: ('A' for Active; 'I' for Inactive)
REMARK    1  A    between atoms: C_1  and  C_2
REMARK    2  A    between atoms: C_2  and  N_3
REMARK    3  A    between atoms: N_3  and  C_4
REMARK    4  A    between atoms: N_3  and  C_6
REMARK    5  A    between atoms: C_4  and  C_5
REMARK    6  A    between atoms: C_6  and  C_7
REMARK    7  A    between atoms: C_10  and  C_11
REMARK    8  A    between atoms: C_12  and  C_13
REMARK    9  A    between atoms: C_16  and  C_17
REMARK   10  A    between atoms: C_22  and  C_23
REMARK   11  A    between atoms: C_22  and  C_24
REMARK   12  A    between atoms: C_27  and  O_28
REMARK                            x       y       z     vdW  Elec       q    Type
REMARK                         _______ _______ _______ _____ _____    ______ ____
ROOT
ATOM      1  C   UNL     1       1.859   8.736  17.771  0.00  0.00    +0.000 C 
ATOM      2  C   UNL     1       2.560   7.783  18.400  0.00  0.00    +0.000 C 
ENDROOT
BRANCH   2   3
ATOM      3  C   UNL     1       3.446   6.870  17.671  0.00  0.00    +0.000 A 
ATOM      4  C   UNL     1       4.402   7.384  16.798  0.00  0.00    +0.000 A 
ATOM      5  N   UNL     1       5.273   6.631  16.090  0.00  0.00    +0.000 NA
ATOM      6  C   UNL     1       5.221   5.288  16.270  0.00  0.00    +0.000 A 
ATOM      7  C   UNL     1       6.208   4.469  15.490  0.00  0.00    +0.000 C 
ATOM      8  C   UNL     1       4.313   4.682  17.143  0.00  0.00    +0.000 A 
ATOM      9  C   UNL     1       3.389   5.478  17.828  0.00  0.00    +0.000 A 
ATOM     10  C   UNL     1       2.387   4.832  18.737  0.00  0.00    +0.000 C 
ATOM     11  O   UNL     1       2.358   3.419  18.580  0.00  0.00    +0.000 OA
ATOM     12  C   UNL     1       3.661   2.851  18.466  0.00  0.00    +0.000 C 
ATOM     13  C   UNL     1       4.504   3.042  19.739  0.00  0.00    +0.000 C 
ATOM     14  C   UNL     1       3.441   1.351  18.256  0.00  0.00    +0.000 C 
ATOM     15  O   UNL     1       4.376   3.327  17.316  0.00  0.00    +0.000 OA
ENDBRANCH   2   3
BRANCH   1  19
ATOM     16  C   UNL     1      -0.996  11.252  19.786  0.00  0.00    +0.000 A 
ATOM     17  C   UNL     1      -1.197  10.842  18.461  0.00  0.00    +0.000 A 
ATOM     18  C   UNL     1      -0.251  10.047  17.808  0.00  0.00    +0.000 A 
ATOM     19  C   UNL     1       0.929   9.658  18.453  0.00  0.00    +0.000 A 
ATOM     20  C   UNL     1       1.147  10.089  19.772  0.00  0.00    +0.000 A 
ATOM     21  C   UNL     1       0.195  10.876  20.420  0.00  0.00    +0.000 A 
BRANCH  21  22
ATOM     22  O   UNL     1       0.406  11.254  21.721  0.00  0.00    +0.000 OA
ATOM     23  H   UNL     1       0.071  10.558  22.308  0.00  0.00    +0.000 HD
ENDBRANCH  21  22
BRANCH  16  24
ATOM     24  C   UNL     1      -2.092  11.991  20.542  0.00  0.00    +0.000 C 
BRANCH  24  25
ATOM     25  N   UNL     1      -1.595  13.175  21.290  0.00  0.00    +0.000 NA
BRANCH  25  27
ATOM     26  C   UNL     1       0.031  14.697  20.076  0.00  0.00    +0.000 C 
ATOM     27  C   UNL     1      -1.414  14.319  20.375  0.00  0.00    +0.000 C 
ENDBRANCH  25  27
BRANCH  25  28
ATOM     28  C   UNL     1      -2.452  13.473  22.451  0.00  0.00    +0.000 C 
ATOM     29  C   UNL     1      -2.797  12.299  23.367  0.00  0.00    +0.000 C 
ENDBRANCH  25  28
ENDBRANCH  24  25
ENDBRANCH  16  24
ENDBRANCH   1  19
TORSDOF 7
ENDMDL
