MODEL 1
REMARK VINA RESULT:      -6.9      0.000      0.000
REMARK  Name = 
REMARK  6 active torsions:
REMARK  status: ('A' for Active; 'I' for Inactive)
REMARK    1  A    between atoms: C_2  and  C_3
REMARK    2  A    between atoms: C_3  and  S_4
REMARK    3  A    between atoms: S_4  and  C_5
REMARK    4  A    between atoms: C_5  and  N_7
REMARK    5  A    between atoms: N_7  and  C_8
REMARK    6  A    between atoms: N_14  and  C_15
REMARK                            x       y       z     vdW  Elec       q    Type
REMARK                         _______ _______ _______ _____ _____    ______ ____
ROOT
ATOM      1  C   UNL     1       3.238   4.104  20.296  0.00  0.00    +0.000 C 
ENDROOT
BRANCH   1   3
ATOM      2  O   UNL     1       1.017   5.029  20.531  0.00  0.00    +0.000 OA
ATOM      3  C   UNL     1       2.184   5.202  20.194  0.00  0.00    +0.000 C 
ATOM      4  N   UNL     1       2.728   6.402  19.741  0.00  0.00    +0.000 N 
ATOM      5  H   UNL     1       3.676   6.374  19.389  0.00  0.00    +0.000 HD
BRANCH   4   6
ATOM      6  C   UNL     1       2.076   7.646  19.613  0.00  0.00    +0.000 A 
ATOM      7  C   UNL     1       1.463   8.318  20.672  0.00  0.00    +0.000 A 
ATOM      8  C   UNL     1       0.810   9.541  20.457  0.00  0.00    +0.000 A 
ATOM      9  C   UNL     1       0.767  10.091  19.181  0.00  0.00    +0.000 A 
ATOM     10 BR   UNL     1      -0.159  11.710  18.882  0.00  0.00    +0.000 Br
ATOM     11  C   UNL     1       1.395   9.445  18.120  0.00  0.00    +0.000 A 
ATOM     12  C   UNL     1       2.059   8.232  18.338  0.00  0.00    +0.000 A 
ENDBRANCH   4   6
ENDBRANCH   1   3
BRANCH   1  13
ATOM     13  S   UNL     1       4.733   4.451  19.317  0.00  0.00    +0.000 S 
BRANCH  13  14
ATOM     14  C   UNL     1       4.330   3.646  17.810  0.00  0.00    +0.000 C 
ATOM     15  S   UNL     1       3.513   2.194  17.676  0.00  0.00    +0.000 S 
BRANCH  14  16
ATOM     16  N   UNL     1       4.787   4.401  16.762  0.00  0.00    +0.000 N 
ATOM     17  H   UNL     1       4.216   5.204  16.507  0.00  0.00    +0.000 HD
BRANCH  16  18
ATOM     18  C   UNL     1       5.908   4.071  15.884  0.00  0.00    +0.000 C 
ATOM     19  C   UNL     1       5.539   4.233  14.421  0.00  0.00    +0.000 C 
ATOM     20  C   UNL     1       6.864   4.541  13.775  0.00  0.00    +0.000 C 
ATOM     21  O   UNL     1       7.604   5.274  14.753  0.00  0.00    +0.000 OA
ATOM     22  C   UNL     1       7.065   5.051  15.992  0.00  0.00    +0.000 C 
ATOM     23  O   UNL     1       7.462   5.571  17.025  0.00  0.00    +0.000 OA
ENDBRANCH  16  18
ENDBRANCH  14  16
ENDBRANCH  13  14
ENDBRANCH   1  13
TORSDOF 6
ENDMDL
MODEL 2
REMARK VINA RESULT:      -6.9      0.266      1.084
REMARK  Name = 
REMARK  6 active torsions:
REMARK  status: ('A' for Active; 'I' for Inactive)
REMARK    1  A    between atoms: C_2  and  C_3
REMARK    2  A    between atoms: C_3  and  S_4
REMARK    3  A    between atoms: S_4  and  C_5
REMARK    4  A    between atoms: C_5  and  N_7
REMARK    5  A    between atoms: N_7  and  C_8
REMARK    6  A    between atoms: N_14  and  C_15
REMARK                            x       y       z     vdW  Elec       q    Type
REMARK                         _______ _______ _______ _____ _____    ______ ____
ROOT
ATOM      1  C   UNL     1       3.264   3.886  20.435  0.00  0.00    +0.000 C 
ENDROOT
BRANCH   1   3
ATOM      2  O   UNL     1       1.026   4.792  20.305  0.00  0.00    +0.000 OA
ATOM      3  C   UNL     1       2.230   4.974  20.160  0.00  0.00    +0.000 C 
ATOM      4  N   UNL     1       2.830   6.179  19.797  0.00  0.00    +0.000 N 
ATOM      5  H   UNL     1       3.823   6.159  19.602  0.00  0.00    +0.000 HD
BRANCH   4   6
ATOM      6  C   UNL     1       2.197   7.416  19.561  0.00  0.00    +0.000 A 
ATOM      7  C   UNL     1       2.182   8.061  18.322  0.00  0.00    +0.000 A 
ATOM      8  C   UNL     1       1.552   9.305  18.174  0.00  0.00    +0.000 A 
ATOM      9  C   UNL     1       0.940   9.909  19.267  0.00  0.00    +0.000 A 
ATOM     10 BR   UNL     1       0.140  11.610  19.079  0.00  0.00    +0.000 Br
ATOM     11  C   UNL     1       0.925   9.268  20.502  0.00  0.00    +0.000 A 
ATOM     12  C   UNL     1       1.541   8.019  20.645  0.00  0.00    +0.000 A 
ENDBRANCH   4   6
ENDBRANCH   1   3
BRANCH   1  13
ATOM     13  S   UNL     1       4.778   4.069  19.442  0.00  0.00    +0.000 S 
BRANCH  13  14
ATOM     14  C   UNL     1       4.185   3.607  17.855  0.00  0.00    +0.000 C 
ATOM     15  S   UNL     1       3.093   2.380  17.549  0.00  0.00    +0.000 S 
BRANCH  14  16
ATOM     16  N   UNL     1       4.756   4.418  16.910  0.00  0.00    +0.000 N 
ATOM     17  H   UNL     1       4.303   5.315  16.757  0.00  0.00    +0.000 HD
BRANCH  16  18
ATOM     18  C   UNL     1       5.838   4.050  15.996  0.00  0.00    +0.000 C 
ATOM     19  C   UNL     1       5.460   4.311  14.550  0.00  0.00    +0.000 C 
ATOM     20  C   UNL     1       6.795   4.553  13.896  0.00  0.00    +0.000 C 
ATOM     21  O   UNL     1       7.601   5.182  14.895  0.00  0.00    +0.000 OA
ATOM     22  C   UNL     1       7.064   4.937  16.131  0.00  0.00    +0.000 C 
ATOM     23  O   UNL     1       7.513   5.375  17.180  0.00  0.00    +0.000 OA
ENDBRANCH  16  18
ENDBRANCH  14  16
ENDBRANCH  13  14
ENDBRANCH   1  13
TORSDOF 6
ENDMDL
MODEL 3
REMARK VINA RESULT:      -6.7      1.341      2.164
REMARK  Name = 
REMARK  6 active torsions:
REMARK  status: ('A' for Active; 'I' for Inactive)
REMARK    1  A    between atoms: C_2  and  C_3
REMARK    2  A    between atoms: C_3  and  S_4
REMARK    3  A    between atoms: S_4  and  C_5
REMARK    4  A    between atoms: C_5  and  N_7
REMARK    5  A    between atoms: N_7  and  C_8
REMARK    6  A    between atoms: N_14  and  C_15
REMARK                            x       y       z     vdW  Elec       q    Type
REMARK                         _______ _______ _______ _____ _____    ______ ____
ROOT
ATOM      1  C   UNL     1       3.278   3.352  20.684  0.00  0.00    +0.000 C 
ENDROOT
BRANCH   1   3
ATOM      2  O   UNL     1       1.164   4.205  19.876  0.00  0.00    +0.000 OA
ATOM      3  C   UNL     1       2.338   4.430  20.152  0.00  0.00    +0.000 C 
ATOM      4  N   UNL     1       2.963   5.674  20.085  0.00  0.00    +0.000 N 
ATOM      5  H   UNL     1       3.964   5.696  20.230  0.00  0.00    +0.000 HD
BRANCH   4   6
ATOM      6  C   UNL     1       2.381   6.909  19.731  0.00  0.00    +0.000 A 
ATOM      7  C   UNL     1       2.497   7.492  18.467  0.00  0.00    +0.000 A 
ATOM      8  C   UNL     1       1.910   8.738  18.201  0.00  0.00    +0.000 A 
ATOM      9  C   UNL     1       1.210   9.404  19.201  0.00  0.00    +0.000 A 
ATOM     10 BR   UNL     1       0.467  11.107  18.858  0.00  0.00    +0.000 Br
ATOM     11  C   UNL     1       1.064   8.825  20.458  0.00  0.00    +0.000 A 
ATOM     12  C   UNL     1       1.638   7.574  20.718  0.00  0.00    +0.000 A 
ENDBRANCH   4   6
ENDBRANCH   1   3
BRANCH   1  13
ATOM     13  S   UNL     1       3.783   2.151  19.414  0.00  0.00    +0.000 S 
BRANCH  13  14
ATOM     14  C   UNL     1       4.047   3.216  18.043  0.00  0.00    +0.000 C 
ATOM     15  S   UNL     1       2.943   3.517  16.825  0.00  0.00    +0.000 S 
BRANCH  14  16
ATOM     16  N   UNL     1       5.298   3.766  18.137  0.00  0.00    +0.000 N 
ATOM     17  H   UNL     1       5.981   3.235  18.672  0.00  0.00    +0.000 HD
BRANCH  16  18
ATOM     18  C   UNL     1       5.691   5.102  17.690  0.00  0.00    +0.000 C 
ATOM     19  C   UNL     1       6.711   5.726  18.623  0.00  0.00    +0.000 C 
ATOM     20  C   UNL     1       7.464   6.662  17.715  0.00  0.00    +0.000 C 
ATOM     21  O   UNL     1       7.470   6.028  16.434  0.00  0.00    +0.000 OA
ATOM     22  C   UNL     1       6.471   5.094  16.386  0.00  0.00    +0.000 C 
ATOM     23  O   UNL     1       6.250   4.364  15.430  0.00  0.00    +0.000 OA
ENDBRANCH  16  18
ENDBRANCH  14  16
ENDBRANCH  13  14
ENDBRANCH   1  13
TORSDOF 6
ENDMDL
MODEL 4
REMARK VINA RESULT:      -6.6      0.672      1.109
REMARK  Name = 
REMARK  6 active torsions:
REMARK  status: ('A' for Active; 'I' for Inactive)
REMARK    1  A    between atoms: C_2  and  C_3
REMARK    2  A    between atoms: C_3  and  S_4
REMARK    3  A    between atoms: S_4  and  C_5
REMARK    4  A    between atoms: C_5  and  N_7
REMARK    5  A    between atoms: N_7  and  C_8
REMARK    6  A    between atoms: N_14  and  C_15
REMARK                            x       y       z     vdW  Elec       q    Type
REMARK                         _______ _______ _______ _____ _____    ______ ____
ROOT
ATOM      1  C   UNL     1       3.142   3.604  19.821  0.00  0.00    +0.000 C 
ENDROOT
BRANCH   1   3
ATOM      2  O   UNL     1       0.944   4.547  20.173  0.00  0.00    +0.000 OA
ATOM      3  C   UNL     1       2.122   4.736  19.886  0.00  0.00    +0.000 C 
ATOM      4  N   UNL     1       2.708   5.977  19.644  0.00  0.00    +0.000 N 
ATOM      5  H   UNL     1       3.662   5.978  19.305  0.00  0.00    +0.000 HD
BRANCH   4   6
ATOM      6  C   UNL     1       2.095   7.244  19.712  0.00  0.00    +0.000 A 
ATOM      7  C   UNL     1       1.523   7.773  20.872  0.00  0.00    +0.000 A 
ATOM      8  C   UNL     1       0.906   9.033  20.851  0.00  0.00    +0.000 A 
ATOM      9  C   UNL     1       0.857   9.763  19.669  0.00  0.00    +0.000 A 
ATOM     10 BR   UNL     1      -0.021  11.435  19.630  0.00  0.00    +0.000 Br
ATOM     11  C   UNL     1       1.444   9.261  18.512  0.00  0.00    +0.000 A 
ATOM     12  C   UNL     1       2.072   8.010  18.537  0.00  0.00    +0.000 A 
ENDBRANCH   4   6
ENDBRANCH   1   3
BRANCH   1  13
ATOM     13  S   UNL     1       3.618   3.163  18.121  0.00  0.00    +0.000 S 
BRANCH  13  14
ATOM     14  C   UNL     1       4.974   4.250  17.869  0.00  0.00    +0.000 C 
ATOM     15  S   UNL     1       5.996   4.814  19.064  0.00  0.00    +0.000 S 
BRANCH  14  16
ATOM     16  N   UNL     1       5.063   4.555  16.537  0.00  0.00    +0.000 N 
ATOM     17  H   UNL     1       4.231   4.958  16.113  0.00  0.00    +0.000 HD
BRANCH  16  18
ATOM     18  C   UNL     1       6.166   4.206  15.642  0.00  0.00    +0.000 C 
ATOM     19  C   UNL     1       5.687   4.000  14.217  0.00  0.00    +0.000 C 
ATOM     20  C   UNL     1       6.906   4.346  13.403  0.00  0.00    +0.000 C 
ATOM     21  O   UNL     1       7.581   5.367  14.142  0.00  0.00    +0.000 OA
ATOM     22  C   UNL     1       7.160   5.338  15.444  0.00  0.00    +0.000 C 
ATOM     23  O   UNL     1       7.533   6.116  16.310  0.00  0.00    +0.000 OA
ENDBRANCH  16  18
ENDBRANCH  14  16
ENDBRANCH  13  14
ENDBRANCH   1  13
TORSDOF 6
ENDMDL
MODEL 5
REMARK VINA RESULT:      -6.5      1.309      2.070
REMARK  Name = 
REMARK  6 active torsions:
REMARK  status: ('A' for Active; 'I' for Inactive)
REMARK    1  A    between atoms: C_2  and  C_3
REMARK    2  A    between atoms: C_3  and  S_4
REMARK    3  A    between atoms: S_4  and  C_5
REMARK    4  A    between atoms: C_5  and  N_7
REMARK    5  A    between atoms: N_7  and  C_8
REMARK    6  A    between atoms: N_14  and  C_15
REMARK                            x       y       z     vdW  Elec       q    Type
REMARK                         _______ _______ _______ _____ _____    ______ ____
ROOT
ATOM      1  C   UNL     1       4.003   4.272  19.041  0.00  0.00    +0.000 C 
ENDROOT
BRANCH   1   3
ATOM      2  O   UNL     1       1.633   4.751  18.989  0.00  0.00    +0.000 OA
ATOM      3  C   UNL     1       2.781   5.185  18.989  0.00  0.00    +0.000 C 
ATOM      4  N   UNL     1       3.140   6.531  19.004  0.00  0.00    +0.000 N 
ATOM      5  H   UNL     1       4.121   6.749  18.885  0.00  0.00    +0.000 HD
BRANCH   4   6
ATOM      6  C   UNL     1       2.281   7.648  19.058  0.00  0.00    +0.000 A 
ATOM      7  C   UNL     1       1.974   8.451  17.956  0.00  0.00    +0.000 A 
ATOM      8  C   UNL     1       1.131   9.562  18.097  0.00  0.00    +0.000 A 
ATOM      9  C   UNL     1       0.596   9.875  19.342  0.00  0.00    +0.000 A 
ATOM     10 BR   UNL     1      -0.497  11.403  19.542  0.00  0.00    +0.000 Br
ATOM     11  C   UNL     1       0.871   9.071  20.444  0.00  0.00    +0.000 A 
ATOM     12  C   UNL     1       1.702   7.953  20.299  0.00  0.00    +0.000 A 
ENDBRANCH   4   6
ENDBRANCH   1   3
BRANCH   1  13
ATOM     13  S   UNL     1       4.416   3.534  17.429  0.00  0.00    +0.000 S 
BRANCH  13  14
ATOM     14  C   UNL     1       5.513   4.745  16.788  0.00  0.00    +0.000 C 
ATOM     15  S   UNL     1       6.560   5.679  17.694  0.00  0.00    +0.000 S 
BRANCH  14  16
ATOM     16  N   UNL     1       5.378   4.795  15.425  0.00  0.00    +0.000 N 
ATOM     17  H   UNL     1       4.596   5.340  15.073  0.00  0.00    +0.000 HD
BRANCH  16  18
ATOM     18  C   UNL     1       6.141   4.013  14.452  0.00  0.00    +0.000 C 
ATOM     19  C   UNL     1       5.297   3.648  13.245  0.00  0.00    +0.000 C 
ATOM     20  C   UNL     1       6.323   3.513  12.150  0.00  0.00    +0.000 C 
ATOM     21  O   UNL     1       7.343   4.465  12.464  0.00  0.00    +0.000 OA
ATOM     22  C   UNL     1       7.256   4.803  13.788  0.00  0.00    +0.000 C 
ATOM     23  O   UNL     1       7.973   5.624  14.342  0.00  0.00    +0.000 OA
ENDBRANCH  16  18
ENDBRANCH  14  16
ENDBRANCH  13  14
ENDBRANCH   1  13
TORSDOF 6
ENDMDL
MODEL 6
REMARK VINA RESULT:      -6.5      2.062      2.729
REMARK  Name = 
REMARK  6 active torsions:
REMARK  status: ('A' for Active; 'I' for Inactive)
REMARK    1  A    between atoms: C_2  and  C_3
REMARK    2  A    between atoms: C_3  and  S_4
REMARK    3  A    between atoms: S_4  and  C_5
REMARK    4  A    between atoms: C_5  and  N_7
REMARK    5  A    between atoms: N_7  and  C_8
REMARK    6  A    between atoms: N_14  and  C_15
REMARK                            x       y       z     vdW  Elec       q    Type
REMARK                         _______ _______ _______ _____ _____    ______ ____
ROOT
ATOM      1  C   UNL     1       2.997   7.095  18.047  0.00  0.00    +0.000 C 
ENDROOT
BRANCH   1   3
ATOM      2  O   UNL     1       2.084   9.307  17.701  0.00  0.00    +0.000 OA
ATOM      3  C   UNL     1       2.249   8.359  18.461  0.00  0.00    +0.000 C 
ATOM      4  N   UNL     1       1.744   8.260  19.756  0.00  0.00    +0.000 N 
ATOM      5  H   UNL     1       2.052   7.473  20.313  0.00  0.00    +0.000 HD
BRANCH   4   6
ATOM      6  C   UNL     1       0.928   9.190  20.433  0.00  0.00    +0.000 A 
ATOM      7  C   UNL     1       0.252  10.238  19.803  0.00  0.00    +0.000 A 
ATOM      8  C   UNL     1      -0.519  11.140  20.552  0.00  0.00    +0.000 A 
ATOM      9  C   UNL     1      -0.611  10.997  21.931  0.00  0.00    +0.000 A 
ATOM     10 BR   UNL     1      -1.605  12.243  22.944  0.00  0.00    +0.000 Br
ATOM     11  C   UNL     1       0.036   9.944  22.570  0.00  0.00    +0.000 A 
ATOM     12  C   UNL     1       0.794   9.035  21.821  0.00  0.00    +0.000 A 
ENDBRANCH   4   6
ENDBRANCH   1   3
BRANCH   1  13
ATOM     13  S   UNL     1       3.164   5.885  19.396  0.00  0.00    +0.000 S 
BRANCH  13  14
ATOM     14  C   UNL     1       4.041   4.603  18.577  0.00  0.00    +0.000 C 
ATOM     15  S   UNL     1       3.986   2.983  18.980  0.00  0.00    +0.000 S 
BRANCH  14  16
ATOM     16  N   UNL     1       4.771   5.144  17.551  0.00  0.00    +0.000 N 
ATOM     17  H   UNL     1       4.606   6.128  17.355  0.00  0.00    +0.000 HD
BRANCH  16  18
ATOM     18  C   UNL     1       5.626   4.409  16.619  0.00  0.00    +0.000 C 
ATOM     19  C   UNL     1       5.586   5.015  15.229  0.00  0.00    +0.000 C 
ATOM     20  C   UNL     1       6.930   4.640  14.663  0.00  0.00    +0.000 C 
ATOM     21  O   UNL     1       7.826   4.639  15.777  0.00  0.00    +0.000 OA
ATOM     22  C   UNL     1       7.107   4.534  16.937  0.00  0.00    +0.000 C 
ATOM     23  O   UNL     1       7.595   4.543  18.059  0.00  0.00    +0.000 OA
ENDBRANCH  16  18
ENDBRANCH  14  16
ENDBRANCH  13  14
ENDBRANCH   1  13
TORSDOF 6
ENDMDL
MODEL 7
REMARK VINA RESULT:      -6.4      2.026      2.513
REMARK  Name = 
REMARK  6 active torsions:
REMARK  status: ('A' for Active; 'I' for Inactive)
REMARK    1  A    between atoms: C_2  and  C_3
REMARK    2  A    between atoms: C_3  and  S_4
REMARK    3  A    between atoms: S_4  and  C_5
REMARK    4  A    between atoms: C_5  and  N_7
REMARK    5  A    between atoms: N_7  and  C_8
REMARK    6  A    between atoms: N_14  and  C_15
REMARK                            x       y       z     vdW  Elec       q    Type
REMARK                         _______ _______ _______ _____ _____    ______ ____
ROOT
ATOM      1  C   UNL     1       2.912   6.883  18.211  0.00  0.00    +0.000 C 
ENDROOT
BRANCH   1   3
ATOM      2  O   UNL     1       1.653   8.910  17.818  0.00  0.00    +0.000 OA
ATOM      3  C   UNL     1       2.080   8.092  18.627  0.00  0.00    +0.000 C 
ATOM      4  N   UNL     1       1.831   8.102  19.998  0.00  0.00    +0.000 N 
ATOM      5  H   UNL     1       2.340   7.435  20.564  0.00  0.00    +0.000 HD
BRANCH   4   6
ATOM      6  C   UNL     1       1.026   9.009  20.718  0.00  0.00    +0.000 A 
ATOM      7  C   UNL     1       0.361   8.691  21.905  0.00  0.00    +0.000 A 
ATOM      8  C   UNL     1      -0.444   9.643  22.548  0.00  0.00    +0.000 A 
ATOM      9  C   UNL     1      -0.588  10.913  22.002  0.00  0.00    +0.000 A 
ATOM     10 BR   UNL     1      -1.715  12.177  22.839  0.00  0.00    +0.000 Br
ATOM     11  C   UNL     1       0.088  11.253  20.834  0.00  0.00    +0.000 A 
ATOM     12  C   UNL     1       0.903  10.307  20.201  0.00  0.00    +0.000 A 
ENDBRANCH   4   6
ENDBRANCH   1   3
BRANCH   1  13
ATOM     13  S   UNL     1       3.037   5.616  19.511  0.00  0.00    +0.000 S 
BRANCH  13  14
ATOM     14  C   UNL     1       4.087   4.447  18.728  0.00  0.00    +0.000 C 
ATOM     15  S   UNL     1       4.305   2.864  19.214  0.00  0.00    +0.000 S 
BRANCH  14  16
ATOM     16  N   UNL     1       4.692   5.040  17.651  0.00  0.00    +0.000 N 
ATOM     17  H   UNL     1       4.401   5.991  17.441  0.00  0.00    +0.000 HD
BRANCH  16  18
ATOM     18  C   UNL     1       5.580   4.385  16.691  0.00  0.00    +0.000 C 
ATOM     19  C   UNL     1       5.565   5.088  15.346  0.00  0.00    +0.000 C 
ATOM     20  C   UNL     1       6.927   4.771  14.789  0.00  0.00    +0.000 C 
ATOM     21  O   UNL     1       7.796   4.701  15.922  0.00  0.00    +0.000 OA
ATOM     22  C   UNL     1       7.051   4.504  17.053  0.00  0.00    +0.000 C 
ATOM     23  O   UNL     1       7.511   4.438  18.184  0.00  0.00    +0.000 OA
ENDBRANCH  16  18
ENDBRANCH  14  16
ENDBRANCH  13  14
ENDBRANCH   1  13
TORSDOF 6
ENDMDL
MODEL 8
REMARK VINA RESULT:      -6.3      1.071      1.479
REMARK  Name = 
REMARK  6 active torsions:
REMARK  status: ('A' for Active; 'I' for Inactive)
REMARK    1  A    between atoms: C_2  and  C_3
REMARK    2  A    between atoms: C_3  and  S_4
REMARK    3  A    between atoms: S_4  and  C_5
REMARK    4  A    between atoms: C_5  and  N_7
REMARK    5  A    between atoms: N_7  and  C_8
REMARK    6  A    between atoms: N_14  and  C_15
REMARK                            x       y       z     vdW  Elec       q    Type
REMARK                         _______ _______ _______ _____ _____    ______ ____
ROOT
ATOM      1  C   UNL     1       3.153   3.850  20.686  0.00  0.00    +0.000 C 
ENDROOT
BRANCH   1   3
ATOM      2  O   UNL     1       0.946   4.656  20.115  0.00  0.00    +0.000 OA
ATOM      3  C   UNL     1       2.134   4.912  20.286  0.00  0.00    +0.000 C 
ATOM      4  N   UNL     1       2.710   6.179  20.207  0.00  0.00    +0.000 N 
ATOM      5  H   UNL     1       3.719   6.230  20.256  0.00  0.00    +0.000 HD
BRANCH   4   6
ATOM      6  C   UNL     1       2.058   7.404  19.956  0.00  0.00    +0.000 A 
ATOM      7  C   UNL     1       1.305   8.096  20.907  0.00  0.00    +0.000 A 
ATOM      8  C   UNL     1       0.664   9.297  20.571  0.00  0.00    +0.000 A 
ATOM      9  C   UNL     1       0.773   9.806  19.282  0.00  0.00    +0.000 A 
ATOM     10 BR   UNL     1      -0.135  11.396  18.815  0.00  0.00    +0.000 Br
ATOM     11  C   UNL     1       1.540   9.141  18.330  0.00  0.00    +0.000 A 
ATOM     12  C   UNL     1       2.191   7.949  18.670  0.00  0.00    +0.000 A 
ENDBRANCH   4   6
ENDBRANCH   1   3
BRANCH   1  13
ATOM     13  S   UNL     1       3.692   2.812  19.291  0.00  0.00    +0.000 S 
BRANCH  13  14
ATOM     14  C   UNL     1       5.015   3.779  18.658  0.00  0.00    +0.000 C 
ATOM     15  S   UNL     1       5.832   4.969  19.498  0.00  0.00    +0.000 S 
BRANCH  14  16
ATOM     16  N   UNL     1       5.272   3.396  17.368  0.00  0.00    +0.000 N 
ATOM     17  H   UNL     1       5.492   2.413  17.228  0.00  0.00    +0.000 HD
BRANCH  16  18
ATOM     18  C   UNL     1       5.424   4.285  16.217  0.00  0.00    +0.000 C 
ATOM     19  C   UNL     1       4.547   5.517  16.343  0.00  0.00    +0.000 C 
ATOM     20  C   UNL     1       5.300   6.546  15.541  0.00  0.00    +0.000 C 
ATOM     21  O   UNL     1       6.682   6.225  15.711  0.00  0.00    +0.000 OA
ATOM     22  C   UNL     1       6.799   4.926  16.130  0.00  0.00    +0.000 C 
ATOM     23  O   UNL     1       7.858   4.376  16.395  0.00  0.00    +0.000 OA
ENDBRANCH  16  18
ENDBRANCH  14  16
ENDBRANCH  13  14
ENDBRANCH   1  13
TORSDOF 6
ENDMDL
MODEL 9
REMARK VINA RESULT:      -6.3      1.333      1.991
REMARK  Name = 
REMARK  6 active torsions:
REMARK  status: ('A' for Active; 'I' for Inactive)
REMARK    1  A    between atoms: C_2  and  C_3
REMARK    2  A    between atoms: C_3  and  S_4
REMARK    3  A    between atoms: S_4  and  C_5
REMARK    4  A    between atoms: C_5  and  N_7
REMARK    5  A    between atoms: N_7  and  C_8
REMARK    6  A    between atoms: N_14  and  C_15
REMARK                            x       y       z     vdW  Elec       q    Type
REMARK                         _______ _______ _______ _____ _____    ______ ____
ROOT
ATOM      1  C   UNL     1       3.373   3.698  17.958  0.00  0.00    +0.000 C 
ENDROOT
BRANCH   1   3
ATOM      2  O   UNL     1       1.200   4.721  17.680  0.00  0.00    +0.000 OA
ATOM      3  C   UNL     1       2.369   4.843  18.034  0.00  0.00    +0.000 C 
ATOM      4  N   UNL     1       2.929   5.987  18.601  0.00  0.00    +0.000 N 
ATOM      5  H   UNL     1       3.931   5.989  18.739  0.00  0.00    +0.000 HD
BRANCH   4   6
ATOM      6  C   UNL     1       2.277   7.199  18.910  0.00  0.00    +0.000 A 
ATOM      7  C   UNL     1       2.052   8.221  17.986  0.00  0.00    +0.000 A 
ATOM      8  C   UNL     1       1.420   9.410  18.379  0.00  0.00    +0.000 A 
ATOM      9  C   UNL     1       1.016   9.579  19.699  0.00  0.00    +0.000 A 
ATOM     10 BR   UNL     1       0.214  11.202  20.240  0.00  0.00    +0.000 Br
ATOM     11  C   UNL     1       1.211   8.560  20.626  0.00  0.00    +0.000 A 
ATOM     12  C   UNL     1       1.829   7.367  20.229  0.00  0.00    +0.000 A 
ENDBRANCH   4   6
ENDBRANCH   1   3
BRANCH   1  13
ATOM     13  S   UNL     1       4.650   3.777  19.253  0.00  0.00    +0.000 S 
BRANCH  13  14
ATOM     14  C   UNL     1       5.895   4.699  18.426  0.00  0.00    +0.000 C 
ATOM     15  S   UNL     1       7.234   5.386  19.152  0.00  0.00    +0.000 S 
BRANCH  14  16
ATOM     16  N   UNL     1       5.597   4.758  17.090  0.00  0.00    +0.000 N 
ATOM     17  H   UNL     1       4.654   5.060  16.856  0.00  0.00    +0.000 HD
BRANCH  16  18
ATOM     18  C   UNL     1       6.437   4.276  15.995  0.00  0.00    +0.000 C 
ATOM     19  C   UNL     1       5.604   3.802  14.818  0.00  0.00    +0.000 C 
ATOM     20  C   UNL     1       6.527   4.020  13.648  0.00  0.00    +0.000 C 
ATOM     21  O   UNL     1       7.302   5.173  13.983  0.00  0.00    +0.000 OA
ATOM     22  C   UNL     1       7.255   5.375  15.336  0.00  0.00    +0.000 C 
ATOM     23  O   UNL     1       7.793   6.306  15.918  0.00  0.00    +0.000 OA
ENDBRANCH  16  18
ENDBRANCH  14  16
ENDBRANCH  13  14
ENDBRANCH   1  13
TORSDOF 6
ENDMDL
