MODEL 1
REMARK VINA RESULT:      -8.8      0.000      0.000
REMARK  Name = 
REMARK  8 active torsions:
REMARK  status: ('A' for Active; 'I' for Inactive)
REMARK    1  A    between atoms: C_1  and  C_2
REMARK    2  A    between atoms: C_2  and  O_3
REMARK    3  A    between atoms: O_3  and  C_4
REMARK    4  A    between atoms: C_4  and  C_6
REMARK    5  A    between atoms: C_7  and  N_8
REMARK    6  A    between atoms: C_12  and  O_13
REMARK    7  A    between atoms: C_17  and  C_18
REMARK    8  A    between atoms: C_21  and  C_22
REMARK                            x       y       z     vdW  Elec       q    Type
REMARK                         _______ _______ _______ _____ _____    ______ ____
ROOT
ATOM      1  C   UNL     1       3.390   4.070  18.304  0.00  0.00    +0.000 C 
ATOM      2  C   UNL     1       4.377   3.362  18.891  0.00  0.00    +0.000 C 
ATOM      3  O   UNL     1       5.633   3.909  19.136  0.00  0.00    +0.000 OA
ATOM      4  C   UNL     1       5.946   5.156  18.652  0.00  0.00    +0.000 A 
ATOM      5  C   UNL     1       7.249   5.610  18.868  0.00  0.00    +0.000 A 
ATOM      6  C   UNL     1       7.616   6.874  18.412  0.00  0.00    +0.000 A 
ATOM      7  C   UNL     1       6.709   7.682  17.739  0.00  0.00    +0.000 A 
ATOM      8  C   UNL     1       5.410   7.227  17.526  0.00  0.00    +0.000 A 
ATOM      9  C   UNL     1       5.016   5.962  17.995  0.00  0.00    +0.000 A 
ATOM     10  C   UNL     1       3.577   5.501  17.875  0.00  0.00    +0.000 C 
ENDROOT
BRANCH  10  11
ATOM     11  C   UNL     1       2.666   6.448  18.663  0.00  0.00    +0.000 A 
ATOM     12  C   UNL     1       2.223   7.639  18.079  0.00  0.00    +0.000 A 
ATOM     13  C   UNL     1       1.511   8.572  18.834  0.00  0.00    +0.000 A 
ATOM     14  C   UNL     1       1.213   8.346  20.190  0.00  0.00    +0.000 A 
ATOM     15  C   UNL     1       1.601   7.113  20.741  0.00  0.00    +0.000 A 
ATOM     16  C   UNL     1       2.312   6.174  19.992  0.00  0.00    +0.000 A 
BRANCH  14  17
ATOM     17  C   UNL     1       0.588   9.382  21.034  0.00  0.00    +0.000 A 
ATOM     18  C   UNL     1       0.149   9.143  22.337  0.00  0.00    +0.000 A 
ATOM     19  C   UNL     1      -0.527  10.146  23.023  0.00  0.00    +0.000 A 
ATOM     20  C   UNL     1      -0.745  11.368  22.407  0.00  0.00    +0.000 A 
ATOM     21  C   UNL     1      -0.258  11.544  21.124  0.00  0.00    +0.000 A 
ATOM     22  N   UNL     1       0.400  10.589  20.434  0.00  0.00    +0.000 NA
ENDBRANCH  14  17
ENDBRANCH  10  11
BRANCH   2  23
ATOM     23  N   UNL     1       4.270   2.064  19.341  0.00  0.00    +0.000 N 
ATOM     24  H   UNL     1       3.509   1.946  20.012  0.00  0.00    +0.000 HD
ATOM     25  H   UNL     1       5.158   1.724  19.699  0.00  0.00    +0.000 HD
ENDBRANCH   2  23
BRANCH   1  26
ATOM     26  C   UNL     1       2.017   3.559  18.051  0.00  0.00    +0.000 C 
ATOM     27  O   UNL     1       1.268   4.026  17.211  0.00  0.00    +0.000 OA
BRANCH  26  28
ATOM     28  O   UNL     1       1.670   2.655  19.005  0.00  0.00    +0.000 OA
BRANCH  28  30
ATOM     29  C   UNL     1       1.356   2.817  21.356  0.00  0.00    +0.000 C 
ATOM     30  C   UNL     1       0.754   3.135  19.997  0.00  0.00    +0.000 C 
ENDBRANCH  28  30
ENDBRANCH  26  28
ENDBRANCH   1  26
BRANCH   6  31
ATOM     31  O   UNL     1       8.872   7.369  18.611  0.00  0.00    +0.000 OA
ATOM     32  H   UNL     1       9.300   7.487  17.746  0.00  0.00    +0.000 HD
ENDBRANCH   6  31
TORSDOF 7
ENDMDL
MODEL 2
REMARK VINA RESULT:      -8.4      0.910      1.238
REMARK  Name = 
REMARK  8 active torsions:
REMARK  status: ('A' for Active; 'I' for Inactive)
REMARK    1  A    between atoms: C_1  and  C_2
REMARK    2  A    between atoms: C_2  and  O_3
REMARK    3  A    between atoms: O_3  and  C_4
REMARK    4  A    between atoms: C_4  and  C_6
REMARK    5  A    between atoms: C_7  and  N_8
REMARK    6  A    between atoms: C_12  and  O_13
REMARK    7  A    between atoms: C_17  and  C_18
REMARK    8  A    between atoms: C_21  and  C_22
REMARK                            x       y       z     vdW  Elec       q    Type
REMARK                         _______ _______ _______ _____ _____    ______ ____
ROOT
ATOM      1  C   UNL     1       3.829   4.215  18.291  0.00  0.00    +0.000 C 
ATOM      2  C   UNL     1       4.748   3.633  19.088  0.00  0.00    +0.000 C 
ATOM      3  O   UNL     1       5.946   4.262  19.415  0.00  0.00    +0.000 OA
ATOM      4  C   UNL     1       6.287   5.448  18.812  0.00  0.00    +0.000 A 
ATOM      5  C   UNL     1       7.537   5.984  19.129  0.00  0.00    +0.000 A 
ATOM      6  C   UNL     1       7.927   7.192  18.557  0.00  0.00    +0.000 A 
ATOM      7  C   UNL     1       7.096   7.866  17.671  0.00  0.00    +0.000 A 
ATOM      8  C   UNL     1       5.849   7.329  17.358  0.00  0.00    +0.000 A 
ATOM      9  C   UNL     1       5.430   6.120  17.939  0.00  0.00    +0.000 A 
ATOM     10  C   UNL     1       4.032   5.585  17.700  0.00  0.00    +0.000 C 
ENDROOT
BRANCH  10  11
ATOM     11  C   UNL     1       3.000   6.585  18.232  0.00  0.00    +0.000 A 
ATOM     12  C   UNL     1       2.388   7.488  17.357  0.00  0.00    +0.000 A 
ATOM     13  C   UNL     1       1.555   8.493  17.851  0.00  0.00    +0.000 A 
ATOM     14  C   UNL     1       1.300   8.625  19.228  0.00  0.00    +0.000 A 
ATOM     15  C   UNL     1       1.863   7.665  20.085  0.00  0.00    +0.000 A 
ATOM     16  C   UNL     1       2.697   6.657  19.598  0.00  0.00    +0.000 A 
BRANCH  14  17
ATOM     17  C   UNL     1       0.539   9.765  19.774  0.00  0.00    +0.000 A 
ATOM     18  C   UNL     1      -0.395  10.486  19.029  0.00  0.00    +0.000 A 
ATOM     19  C   UNL     1      -0.988  11.614  19.587  0.00  0.00    +0.000 A 
ATOM     20  C   UNL     1      -0.648  11.998  20.874  0.00  0.00    +0.000 A 
ATOM     21  C   UNL     1       0.266  11.221  21.564  0.00  0.00    +0.000 A 
ATOM     22  N   UNL     1       0.856  10.122  21.048  0.00  0.00    +0.000 NA
ENDBRANCH  14  17
ENDBRANCH  10  11
BRANCH   2  23
ATOM     23  N   UNL     1       4.618   2.401  19.691  0.00  0.00    +0.000 N 
ATOM     24  H   UNL     1       3.897   2.397  20.415  0.00  0.00    +0.000 HD
ATOM     25  H   UNL     1       5.513   2.062  20.033  0.00  0.00    +0.000 HD
ENDBRANCH   2  23
BRANCH   1  26
ATOM     26  C   UNL     1       2.516   3.615  17.936  0.00  0.00    +0.000 C 
ATOM     27  O   UNL     1       2.251   3.178  16.829  0.00  0.00    +0.000 OA
BRANCH  26  28
ATOM     28  O   UNL     1       1.624   3.808  18.944  0.00  0.00    +0.000 OA
BRANCH  28  30
ATOM     29  C   UNL     1       1.297   2.796  21.069  0.00  0.00    +0.000 C 
ATOM     30  C   UNL     1       1.140   2.613  19.569  0.00  0.00    +0.000 C 
ENDBRANCH  28  30
ENDBRANCH  26  28
ENDBRANCH   1  26
BRANCH   6  31
ATOM     31  O   UNL     1       9.132   7.763  18.845  0.00  0.00    +0.000 OA
ATOM     32  H   UNL     1       9.839   7.180  18.522  0.00  0.00    +0.000 HD
ENDBRANCH   6  31
TORSDOF 7
ENDMDL
MODEL 3
REMARK VINA RESULT:      -7.8      2.019      4.837
REMARK  Name = 
REMARK  8 active torsions:
REMARK  status: ('A' for Active; 'I' for Inactive)
REMARK    1  A    between atoms: C_1  and  C_2
REMARK    2  A    between atoms: C_2  and  O_3
REMARK    3  A    between atoms: O_3  and  C_4
REMARK    4  A    between atoms: C_4  and  C_6
REMARK    5  A    between atoms: C_7  and  N_8
REMARK    6  A    between atoms: C_12  and  O_13
REMARK    7  A    between atoms: C_17  and  C_18
REMARK    8  A    between atoms: C_21  and  C_22
REMARK                            x       y       z     vdW  Elec       q    Type
REMARK                         _______ _______ _______ _____ _____    ______ ____
ROOT
ATOM      1  C   UNL     1       4.893   5.580  17.434  0.00  0.00    +0.000 C 
ATOM      2  C   UNL     1       4.749   4.659  16.460  0.00  0.00    +0.000 C 
ATOM      3  O   UNL     1       3.755   3.684  16.507  0.00  0.00    +0.000 OA
ATOM      4  C   UNL     1       2.977   3.550  17.631  0.00  0.00    +0.000 A 
ATOM      5  C   UNL     1       2.053   2.502  17.639  0.00  0.00    +0.000 A 
ATOM      6  C   UNL     1       1.228   2.328  18.748  0.00  0.00    +0.000 A 
ATOM      7  C   UNL     1       1.318   3.175  19.846  0.00  0.00    +0.000 A 
ATOM      8  C   UNL     1       2.240   4.219  19.834  0.00  0.00    +0.000 A 
ATOM      9  C   UNL     1       3.068   4.421  18.716  0.00  0.00    +0.000 A 
ATOM     10  C   UNL     1       3.991   5.621  18.639  0.00  0.00    +0.000 C 
ENDROOT
BRANCH  10  11
ATOM     11  C   UNL     1       3.165   6.910  18.679  0.00  0.00    +0.000 A 
ATOM     12  C   UNL     1       2.498   7.276  19.853  0.00  0.00    +0.000 A 
ATOM     13  C   UNL     1       1.631   8.371  19.858  0.00  0.00    +0.000 A 
ATOM     14  C   UNL     1       1.408   9.137  18.700  0.00  0.00    +0.000 A 
ATOM     15  C   UNL     1       2.142   8.801  17.551  0.00  0.00    +0.000 A 
ATOM     16  C   UNL     1       3.011   7.708  17.537  0.00  0.00    +0.000 A 
BRANCH  14  17
ATOM     17  C   UNL     1       0.390  10.204  18.656  0.00  0.00    +0.000 A 
ATOM     18  C   UNL     1      -0.832  10.066  17.996  0.00  0.00    +0.000 A 
ATOM     19  C   UNL     1      -1.688  11.158  17.911  0.00  0.00    +0.000 A 
ATOM     20  C   UNL     1      -1.319  12.362  18.489  0.00  0.00    +0.000 A 
ATOM     21  C   UNL     1      -0.105  12.419  19.150  0.00  0.00    +0.000 A 
ATOM     22  N   UNL     1       0.745  11.375  19.249  0.00  0.00    +0.000 NA
ENDBRANCH  14  17
ENDBRANCH  10  11
BRANCH   2  23
ATOM     23  N   UNL     1       5.510   4.580  15.314  0.00  0.00    +0.000 N 
ATOM     24  H   UNL     1       5.034   4.076  14.565  0.00  0.00    +0.000 HD
ATOM     25  H   UNL     1       6.433   4.202  15.510  0.00  0.00    +0.000 HD
ENDBRANCH   2  23
BRANCH   1  26
ATOM     26  C   UNL     1       5.906   6.669  17.425  0.00  0.00    +0.000 C 
ATOM     27  O   UNL     1       6.125   7.378  16.458  0.00  0.00    +0.000 OA
BRANCH  26  28
ATOM     28  O   UNL     1       6.660   6.617  18.555  0.00  0.00    +0.000 OA
BRANCH  28  30
ATOM     29  C   UNL     1       8.185   5.474  19.976  0.00  0.00    +0.000 C 
ATOM     30  C   UNL     1       7.716   5.648  18.541  0.00  0.00    +0.000 C 
ENDBRANCH  28  30
ENDBRANCH  26  28
ENDBRANCH   1  26
BRANCH   6  31
ATOM     31  O   UNL     1       0.300   1.330  18.799  0.00  0.00    +0.000 OA
ATOM     32  H   UNL     1      -0.397   1.520  18.150  0.00  0.00    +0.000 HD
ENDBRANCH   6  31
TORSDOF 7
ENDMDL
MODEL 4
REMARK VINA RESULT:      -7.7      4.430      9.018
REMARK  Name = 
REMARK  8 active torsions:
REMARK  status: ('A' for Active; 'I' for Inactive)
REMARK    1  A    between atoms: C_1  and  C_2
REMARK    2  A    between atoms: C_2  and  O_3
REMARK    3  A    between atoms: O_3  and  C_4
REMARK    4  A    between atoms: C_4  and  C_6
REMARK    5  A    between atoms: C_7  and  N_8
REMARK    6  A    between atoms: C_12  and  O_13
REMARK    7  A    between atoms: C_17  and  C_18
REMARK    8  A    between atoms: C_21  and  C_22
REMARK                            x       y       z     vdW  Elec       q    Type
REMARK                         _______ _______ _______ _____ _____    ______ ____
ROOT
ATOM      1  C   UNL     1       0.583  12.750  19.786  0.00  0.00    +0.000 C 
ATOM      2  C   UNL     1      -0.407  13.259  20.547  0.00  0.00    +0.000 C 
ATOM      3  O   UNL     1      -1.738  12.891  20.370  0.00  0.00    +0.000 OA
ATOM      4  C   UNL     1      -2.096  12.096  19.308  0.00  0.00    +0.000 A 
ATOM      5  C   UNL     1      -3.458  11.830  19.147  0.00  0.00    +0.000 A 
ATOM      6  C   UNL     1      -3.875  11.018  18.096  0.00  0.00    +0.000 A 
ATOM      7  C   UNL     1      -2.959  10.476  17.203  0.00  0.00    +0.000 A 
ATOM      8  C   UNL     1      -1.602  10.743  17.367  0.00  0.00    +0.000 A 
ATOM      9  C   UNL     1      -1.160  11.546  18.433  0.00  0.00    +0.000 A 
ATOM     10  C   UNL     1       0.320  11.747  18.693  0.00  0.00    +0.000 C 
ENDROOT
BRANCH  10  11
ATOM     11  C   UNL     1       0.978  10.398  18.998  0.00  0.00    +0.000 A 
ATOM     12  C   UNL     1       1.786   9.782  18.036  0.00  0.00    +0.000 A 
ATOM     13  C   UNL     1       2.274   8.491  18.248  0.00  0.00    +0.000 A 
ATOM     14  C   UNL     1       1.980   7.779  19.424  0.00  0.00    +0.000 A 
ATOM     15  C   UNL     1       1.229   8.440  20.411  0.00  0.00    +0.000 A 
ATOM     16  C   UNL     1       0.737   9.731  20.207  0.00  0.00    +0.000 A 
BRANCH  14  17
ATOM     17  C   UNL     1       2.369   6.366  19.598  0.00  0.00    +0.000 A 
ATOM     18  C   UNL     1       1.844   5.547  20.599  0.00  0.00    +0.000 A 
ATOM     19  C   UNL     1       2.346   4.260  20.759  0.00  0.00    +0.000 A 
ATOM     20  C   UNL     1       3.351   3.810  19.919  0.00  0.00    +0.000 A 
ATOM     21  C   UNL     1       3.806   4.666  18.932  0.00  0.00    +0.000 A 
ATOM     22  N   UNL     1       3.337   5.919  18.753  0.00  0.00    +0.000 NA
ENDBRANCH  14  17
ENDBRANCH  10  11
BRANCH   2  23
ATOM     23  N   UNL     1      -0.240  14.149  21.584  0.00  0.00    +0.000 N 
ATOM     24  H   UNL     1      -1.039  14.777  21.690  0.00  0.00    +0.000 HD
ATOM     25  H   UNL     1       0.639  14.652  21.501  0.00  0.00    +0.000 HD
ENDBRANCH   2  23
BRANCH   1  26
ATOM     26  C   UNL     1       2.026  13.070  19.949  0.00  0.00    +0.000 C 
ATOM     27  O   UNL     1       2.585  13.131  21.031  0.00  0.00    +0.000 OA
BRANCH  26  28
ATOM     28  O   UNL     1       2.555  13.468  18.761  0.00  0.00    +0.000 OA
BRANCH  28  30
ATOM     29  C   UNL     1       3.861  15.204  17.796  0.00  0.00    +0.000 C 
ATOM     30  C   UNL     1       2.579  14.885  18.548  0.00  0.00    +0.000 C 
ENDBRANCH  28  30
ENDBRANCH  26  28
ENDBRANCH   1  26
BRANCH   6  31
ATOM     31  O   UNL     1      -5.192  10.717  17.904  0.00  0.00    +0.000 OA
ATOM     32  H   UNL     1      -5.253   9.962  17.295  0.00  0.00    +0.000 HD
ENDBRANCH   6  31
TORSDOF 7
ENDMDL
MODEL 5
REMARK VINA RESULT:      -7.6      2.059      5.059
REMARK  Name = 
REMARK  8 active torsions:
REMARK  status: ('A' for Active; 'I' for Inactive)
REMARK    1  A    between atoms: C_1  and  C_2
REMARK    2  A    between atoms: C_2  and  O_3
REMARK    3  A    between atoms: O_3  and  C_4
REMARK    4  A    between atoms: C_4  and  C_6
REMARK    5  A    between atoms: C_7  and  N_8
REMARK    6  A    between atoms: C_12  and  O_13
REMARK    7  A    between atoms: C_17  and  C_18
REMARK    8  A    between atoms: C_21  and  C_22
REMARK                            x       y       z     vdW  Elec       q    Type
REMARK                         _______ _______ _______ _____ _____    ______ ____
ROOT
ATOM      1  C   UNL     1       5.125   4.981  18.371  0.00  0.00    +0.000 C 
ATOM      2  C   UNL     1       5.169   4.096  17.355  0.00  0.00    +0.000 C 
ATOM      3  O   UNL     1       4.120   3.218  17.095  0.00  0.00    +0.000 OA
ATOM      4  C   UNL     1       3.060   3.137  17.966  0.00  0.00    +0.000 A 
ATOM      5  C   UNL     1       2.082   2.181  17.684  0.00  0.00    +0.000 A 
ATOM      6  C   UNL     1       0.978   2.065  18.526  0.00  0.00    +0.000 A 
ATOM      7  C   UNL     1       0.842   2.880  19.643  0.00  0.00    +0.000 A 
ATOM      8  C   UNL     1       1.819   3.833  19.920  0.00  0.00    +0.000 A 
ATOM      9  C   UNL     1       2.931   3.976  19.072  0.00  0.00    +0.000 A 
ATOM     10  C   UNL     1       3.940   5.086  19.294  0.00  0.00    +0.000 C 
ENDROOT
BRANCH  10  11
ATOM     11  C   UNL     1       3.247   6.446  19.168  0.00  0.00    +0.000 A 
ATOM     12  C   UNL     1       2.610   7.011  20.278  0.00  0.00    +0.000 A 
ATOM     13  C   UNL     1       1.857   8.178  20.139  0.00  0.00    +0.000 A 
ATOM     14  C   UNL     1       1.721   8.821  18.896  0.00  0.00    +0.000 A 
ATOM     15  C   UNL     1       2.428   8.282  17.808  0.00  0.00    +0.000 A 
ATOM     16  C   UNL     1       3.183   7.115  17.938  0.00  0.00    +0.000 A 
BRANCH  14  17
ATOM     17  C   UNL     1       0.816   9.971  18.708  0.00  0.00    +0.000 A 
ATOM     18  C   UNL     1      -0.459   9.855  18.151  0.00  0.00    +0.000 A 
ATOM     19  C   UNL     1      -1.204  11.004  17.910  0.00  0.00    +0.000 A 
ATOM     20  C   UNL     1      -0.673  12.243  18.233  0.00  0.00    +0.000 A 
ATOM     21  C   UNL     1       0.586  12.281  18.806  0.00  0.00    +0.000 A 
ATOM     22  N   UNL     1       1.331  11.182  19.051  0.00  0.00    +0.000 NA
ENDBRANCH  14  17
ENDBRANCH  10  11
BRANCH   2  23
ATOM     23  N   UNL     1       6.200   3.966  16.451  0.00  0.00    +0.000 N 
ATOM     24  H   UNL     1       5.970   4.365  15.539  0.00  0.00    +0.000 HD
ATOM     25  H   UNL     1       6.513   3.002  16.384  0.00  0.00    +0.000 HD
ENDBRANCH   2  23
BRANCH   1  26
ATOM     26  C   UNL     1       6.193   5.970  18.678  0.00  0.00    +0.000 C 
ATOM     27  O   UNL     1       6.784   6.017  19.743  0.00  0.00    +0.000 OA
BRANCH  26  28
ATOM     28  O   UNL     1       6.260   6.907  17.694  0.00  0.00    +0.000 OA
BRANCH  28  30
ATOM     29  C   UNL     1       7.925   8.601  17.780  0.00  0.00    +0.000 C 
ATOM     30  C   UNL     1       7.582   7.222  17.241  0.00  0.00    +0.000 C 
ENDBRANCH  28  30
ENDBRANCH  26  28
ENDBRANCH   1  26
BRANCH   6  31
ATOM     31  O   UNL     1      -0.012   1.157  18.287  0.00  0.00    +0.000 OA
ATOM     32  H   UNL     1      -0.871   1.588  18.431  0.00  0.00    +0.000 HD
ENDBRANCH   6  31
TORSDOF 7
ENDMDL
MODEL 6
REMARK VINA RESULT:      -7.5      4.386      8.936
REMARK  Name = 
REMARK  8 active torsions:
REMARK  status: ('A' for Active; 'I' for Inactive)
REMARK    1  A    between atoms: C_1  and  C_2
REMARK    2  A    between atoms: C_2  and  O_3
REMARK    3  A    between atoms: O_3  and  C_4
REMARK    4  A    between atoms: C_4  and  C_6
REMARK    5  A    between atoms: C_7  and  N_8
REMARK    6  A    between atoms: C_12  and  O_13
REMARK    7  A    between atoms: C_17  and  C_18
REMARK    8  A    between atoms: C_21  and  C_22
REMARK                            x       y       z     vdW  Elec       q    Type
REMARK                         _______ _______ _______ _____ _____    ______ ____
ROOT
ATOM      1  C   UNL     1       0.553  12.779  19.523  0.00  0.00    +0.000 C 
ATOM      2  C   UNL     1      -0.420  13.353  20.260  0.00  0.00    +0.000 C 
ATOM      3  O   UNL     1      -1.753  12.968  20.151  0.00  0.00    +0.000 OA
ATOM      4  C   UNL     1      -2.135  12.080  19.175  0.00  0.00    +0.000 A 
ATOM      5  C   UNL     1      -3.499  11.798  19.074  0.00  0.00    +0.000 A 
ATOM      6  C   UNL     1      -3.940  10.893  18.111  0.00  0.00    +0.000 A 
ATOM      7  C   UNL     1      -3.044  10.276  17.247  0.00  0.00    +0.000 A 
ATOM      8  C   UNL     1      -1.684  10.558  17.352  0.00  0.00    +0.000 A 
ATOM      9  C   UNL     1      -1.219  11.455  18.329  0.00  0.00    +0.000 A 
ATOM     10  C   UNL     1       0.266  11.682  18.532  0.00  0.00    +0.000 C 
ENDROOT
BRANCH  10  11
ATOM     11  C   UNL     1       0.938  10.367  18.940  0.00  0.00    +0.000 A 
ATOM     12  C   UNL     1       1.756   9.689  18.031  0.00  0.00    +0.000 A 
ATOM     13  C   UNL     1       2.258   8.424  18.342  0.00  0.00    +0.000 A 
ATOM     14  C   UNL     1       1.966   7.799  19.567  0.00  0.00    +0.000 A 
ATOM     15  C   UNL     1       1.203   8.524  20.498  0.00  0.00    +0.000 A 
ATOM     16  C   UNL     1       0.699   9.790  20.195  0.00  0.00    +0.000 A 
BRANCH  14  17
ATOM     17  C   UNL     1       2.369   6.408  19.848  0.00  0.00    +0.000 A 
ATOM     18  C   UNL     1       3.469   5.795  19.244  0.00  0.00    +0.000 A 
ATOM     19  C   UNL     1       3.715   4.448  19.483  0.00  0.00    +0.000 A 
ATOM     20  C   UNL     1       2.871   3.738  20.322  0.00  0.00    +0.000 A 
ATOM     21  C   UNL     1       1.816   4.415  20.907  0.00  0.00    +0.000 A 
ATOM     22  N   UNL     1       1.554   5.722  20.693  0.00  0.00    +0.000 NA
ENDBRANCH  14  17
ENDBRANCH  10  11
BRANCH   2  23
ATOM     23  N   UNL     1      -0.230  14.334  21.209  0.00  0.00    +0.000 N 
ATOM     24  H   UNL     1      -0.261  13.965  22.161  0.00  0.00    +0.000 HD
ATOM     25  H   UNL     1      -0.875  15.108  21.073  0.00  0.00    +0.000 HD
ENDBRANCH   2  23
BRANCH   1  26
ATOM     26  C   UNL     1       1.998  13.116  19.620  0.00  0.00    +0.000 C 
ATOM     27  O   UNL     1       2.741  13.181  18.656  0.00  0.00    +0.000 OA
BRANCH  26  28
ATOM     28  O   UNL     1       2.388  13.138  20.922  0.00  0.00    +0.000 OA
BRANCH  28  30
ATOM     29  C   UNL     1       3.075  15.136  22.011  0.00  0.00    +0.000 C 
ATOM     30  C   UNL     1       3.543  13.939  21.200  0.00  0.00    +0.000 C 
ENDBRANCH  28  30
ENDBRANCH  26  28
ENDBRANCH   1  26
BRANCH   6  31
ATOM     31  O   UNL     1      -5.260  10.574  17.981  0.00  0.00    +0.000 OA
ATOM     32  H   UNL     1      -5.335   9.616  17.836  0.00  0.00    +0.000 HD
ENDBRANCH   6  31
TORSDOF 7
ENDMDL
MODEL 7
REMARK VINA RESULT:      -7.5      0.989      1.596
REMARK  Name = 
REMARK  8 active torsions:
REMARK  status: ('A' for Active; 'I' for Inactive)
REMARK    1  A    between atoms: C_1  and  C_2
REMARK    2  A    between atoms: C_2  and  O_3
REMARK    3  A    between atoms: O_3  and  C_4
REMARK    4  A    between atoms: C_4  and  C_6
REMARK    5  A    between atoms: C_7  and  N_8
REMARK    6  A    between atoms: C_12  and  O_13
REMARK    7  A    between atoms: C_17  and  C_18
REMARK    8  A    between atoms: C_21  and  C_22
REMARK                            x       y       z     vdW  Elec       q    Type
REMARK                         _______ _______ _______ _____ _____    ______ ____
ROOT
ATOM      1  C   UNL     1       3.322   4.531  18.503  0.00  0.00    +0.000 C 
ATOM      2  C   UNL     1       4.162   3.844  19.304  0.00  0.00    +0.000 C 
ATOM      3  O   UNL     1       5.452   4.291  19.578  0.00  0.00    +0.000 OA
ATOM      4  C   UNL     1       5.955   5.385  18.917  0.00  0.00    +0.000 A 
ATOM      5  C   UNL     1       7.282   5.730  19.184  0.00  0.00    +0.000 A 
ATOM      6  C   UNL     1       7.839   6.840  18.552  0.00  0.00    +0.000 A 
ATOM      7  C   UNL     1       7.097   7.600  17.656  0.00  0.00    +0.000 A 
ATOM      8  C   UNL     1       5.774   7.253  17.393  0.00  0.00    +0.000 A 
ATOM      9  C   UNL     1       5.189   6.147  18.035  0.00  0.00    +0.000 A 
ATOM     10  C   UNL     1       3.719   5.828  17.849  0.00  0.00    +0.000 C 
ENDROOT
BRANCH  10  11
ATOM     11  C   UNL     1       2.870   6.997  18.359  0.00  0.00    +0.000 A 
ATOM     12  C   UNL     1       2.515   7.065  19.711  0.00  0.00    +0.000 A 
ATOM     13  C   UNL     1       1.628   8.046  20.158  0.00  0.00    +0.000 A 
ATOM     14  C   UNL     1       1.072   8.990  19.276  0.00  0.00    +0.000 A 
ATOM     15  C   UNL     1       1.496   8.953  17.937  0.00  0.00    +0.000 A 
ATOM     16  C   UNL     1       2.384   7.976  17.482  0.00  0.00    +0.000 A 
BRANCH  14  17
ATOM     17  C   UNL     1       0.027   9.938  19.707  0.00  0.00    +0.000 A 
ATOM     18  C   UNL     1      -0.944  10.448  18.844  0.00  0.00    +0.000 A 
ATOM     19  C   UNL     1      -1.825  11.420  19.307  0.00  0.00    +0.000 A 
ATOM     20  C   UNL     1      -1.730  11.859  20.617  0.00  0.00    +0.000 A 
ATOM     21  C   UNL     1      -0.760  11.291  21.425  0.00  0.00    +0.000 A 
ATOM     22  N   UNL     1       0.107  10.346  21.002  0.00  0.00    +0.000 NA
ENDBRANCH  14  17
ENDBRANCH  10  11
BRANCH   2  23
ATOM     23  N   UNL     1       3.859   2.673  19.963  0.00  0.00    +0.000 N 
ATOM     24  H   UNL     1       3.026   2.218  19.585  0.00  0.00    +0.000 HD
ATOM     25  H   UNL     1       3.799   2.819  20.967  0.00  0.00    +0.000 HD
ENDBRANCH   2  23
BRANCH   1  26
ATOM     26  C   UNL     1       1.922   4.130  18.202  0.00  0.00    +0.000 C 
ATOM     27  O   UNL     1       1.505   3.931  17.074  0.00  0.00    +0.000 OA
BRANCH  26  28
ATOM     28  O   UNL     1       1.159   4.215  19.324  0.00  0.00    +0.000 OA
BRANCH  28  30
ATOM     29  C   UNL     1       1.113   2.874  21.286  0.00  0.00    +0.000 C 
ATOM     30  C   UNL     1       0.678   2.965  19.832  0.00  0.00    +0.000 C 
ENDBRANCH  28  30
ENDBRANCH  26  28
ENDBRANCH   1  26
BRANCH   6  31
ATOM     31  O   UNL     1       9.125   7.227  18.790  0.00  0.00    +0.000 OA
ATOM     32  H   UNL     1       9.669   6.433  18.925  0.00  0.00    +0.000 HD
ENDBRANCH   6  31
TORSDOF 7
ENDMDL
MODEL 8
REMARK VINA RESULT:      -7.4      2.075      4.777
REMARK  Name = 
REMARK  8 active torsions:
REMARK  status: ('A' for Active; 'I' for Inactive)
REMARK    1  A    between atoms: C_1  and  C_2
REMARK    2  A    between atoms: C_2  and  O_3
REMARK    3  A    between atoms: O_3  and  C_4
REMARK    4  A    between atoms: C_4  and  C_6
REMARK    5  A    between atoms: C_7  and  N_8
REMARK    6  A    between atoms: C_12  and  O_13
REMARK    7  A    between atoms: C_17  and  C_18
REMARK    8  A    between atoms: C_21  and  C_22
REMARK                            x       y       z     vdW  Elec       q    Type
REMARK                         _______ _______ _______ _____ _____    ______ ____
ROOT
ATOM      1  C   UNL     1       4.801   5.592  17.457  0.00  0.00    +0.000 C 
ATOM      2  C   UNL     1       4.723   4.641  16.505  0.00  0.00    +0.000 C 
ATOM      3  O   UNL     1       3.777   3.620  16.558  0.00  0.00    +0.000 OA
ATOM      4  C   UNL     1       2.983   3.476  17.670  0.00  0.00    +0.000 A 
ATOM      5  C   UNL     1       2.112   2.384  17.688  0.00  0.00    +0.000 A 
ATOM      6  C   UNL     1       1.273   2.198  18.784  0.00  0.00    +0.000 A 
ATOM      7  C   UNL     1       1.297   3.076  19.860  0.00  0.00    +0.000 A 
ATOM      8  C   UNL     1       2.167   4.164  19.839  0.00  0.00    +0.000 A 
ATOM      9  C   UNL     1       3.008   4.378  18.733  0.00  0.00    +0.000 A 
ATOM     10  C   UNL     1       3.873   5.620  18.642  0.00  0.00    +0.000 C 
ENDROOT
BRANCH  10  11
ATOM     11  C   UNL     1       2.984   6.868  18.631  0.00  0.00    +0.000 A 
ATOM     12  C   UNL     1       2.851   7.620  17.459  0.00  0.00    +0.000 A 
ATOM     13  C   UNL     1       2.159   8.833  17.476  0.00  0.00    +0.000 A 
ATOM     14  C   UNL     1       1.574   9.329  18.654  0.00  0.00    +0.000 A 
ATOM     15  C   UNL     1       1.653   8.525  19.804  0.00  0.00    +0.000 A 
ATOM     16  C   UNL     1       2.343   7.311  19.796  0.00  0.00    +0.000 A 
BRANCH  14  17
ATOM     17  C   UNL     1       0.966  10.671  18.717  0.00  0.00    +0.000 A 
ATOM     18  C   UNL     1      -0.411  10.882  18.815  0.00  0.00    +0.000 A 
ATOM     19  C   UNL     1      -0.907  12.179  18.759  0.00  0.00    +0.000 A 
ATOM     20  C   UNL     1      -0.029  13.241  18.615  0.00  0.00    +0.000 A 
ATOM     21  C   UNL     1       1.324  12.961  18.551  0.00  0.00    +0.000 A 
ATOM     22  N   UNL     1       1.834  11.712  18.603  0.00  0.00    +0.000 NA
ENDBRANCH  14  17
ENDBRANCH  10  11
BRANCH   2  23
ATOM     23  N   UNL     1       5.511   4.570  15.378  0.00  0.00    +0.000 N 
ATOM     24  H   UNL     1       6.203   5.321  15.339  0.00  0.00    +0.000 HD
ATOM     25  H   UNL     1       4.945   4.521  14.535  0.00  0.00    +0.000 HD
ENDBRANCH   2  23
BRANCH   1  26
ATOM     26  C   UNL     1       5.759   6.730  17.439  0.00  0.00    +0.000 C 
ATOM     27  O   UNL     1       5.911   7.469  16.482  0.00  0.00    +0.000 OA
BRANCH  26  28
ATOM     28  O   UNL     1       6.554   6.691  18.542  0.00  0.00    +0.000 OA
BRANCH  28  30
ATOM     29  C   UNL     1       8.151   5.566  19.896  0.00  0.00    +0.000 C 
ATOM     30  C   UNL     1       7.645   5.765  18.476  0.00  0.00    +0.000 C 
ENDBRANCH  28  30
ENDBRANCH  26  28
ENDBRANCH   1  26
BRANCH   6  31
ATOM     31  O   UNL     1       0.394   1.157  18.843  0.00  0.00    +0.000 OA
ATOM     32  H   UNL     1      -0.450   1.439  18.453  0.00  0.00    +0.000 HD
ENDBRANCH   6  31
TORSDOF 7
ENDMDL
MODEL 9
REMARK VINA RESULT:      -7.2      0.812      1.206
REMARK  Name = 
REMARK  8 active torsions:
REMARK  status: ('A' for Active; 'I' for Inactive)
REMARK    1  A    between atoms: C_1  and  C_2
REMARK    2  A    between atoms: C_2  and  O_3
REMARK    3  A    between atoms: O_3  and  C_4
REMARK    4  A    between atoms: C_4  and  C_6
REMARK    5  A    between atoms: C_7  and  N_8
REMARK    6  A    between atoms: C_12  and  O_13
REMARK    7  A    between atoms: C_17  and  C_18
REMARK    8  A    between atoms: C_21  and  C_22
REMARK                            x       y       z     vdW  Elec       q    Type
REMARK                         _______ _______ _______ _____ _____    ______ ____
ROOT
ATOM      1  C   UNL     1       2.916   4.423  18.453  0.00  0.00    +0.000 C 
ATOM      2  C   UNL     1       3.972   3.675  18.832  0.00  0.00    +0.000 C 
ATOM      3  O   UNL     1       5.283   4.122  18.688  0.00  0.00    +0.000 OA
ATOM      4  C   UNL     1       5.540   5.293  18.018  0.00  0.00    +0.000 A 
ATOM      5  C   UNL     1       6.881   5.641  17.843  0.00  0.00    +0.000 A 
ATOM      6  C   UNL     1       7.199   6.826  17.183  0.00  0.00    +0.000 A 
ATOM      7  C   UNL     1       6.203   7.659  16.691  0.00  0.00    +0.000 A 
ATOM      8  C   UNL     1       4.866   7.310  16.868  0.00  0.00    +0.000 A 
ATOM      9  C   UNL     1       4.526   6.127  17.547  0.00  0.00    +0.000 A 
ATOM     10  C   UNL     1       3.078   5.793  17.850  0.00  0.00    +0.000 C 
ENDROOT
BRANCH  10  11
ATOM     11  C   UNL     1       2.477   6.878  18.749  0.00  0.00    +0.000 A 
ATOM     12  C   UNL     1       2.360   6.660  20.126  0.00  0.00    +0.000 A 
ATOM     13  C   UNL     1       1.687   7.580  20.931  0.00  0.00    +0.000 A 
ATOM     14  C   UNL     1       1.117   8.747  20.393  0.00  0.00    +0.000 A 
ATOM     15  C   UNL     1       1.307   8.988  19.021  0.00  0.00    +0.000 A 
ATOM     16  C   UNL     1       1.979   8.072  18.209  0.00  0.00    +0.000 A 
BRANCH  14  17
ATOM     17  C   UNL     1       0.283   9.653  21.205  0.00  0.00    +0.000 A 
ATOM     18  C   UNL     1      -0.024   9.412  22.545  0.00  0.00    +0.000 A 
ATOM     19  C   UNL     1      -0.905  10.261  23.206  0.00  0.00    +0.000 A 
ATOM     20  C   UNL     1      -1.457  11.335  22.528  0.00  0.00    +0.000 A 
ATOM     21  C   UNL     1      -1.088  11.529  21.208  0.00  0.00    +0.000 A 
ATOM     22  N   UNL     1      -0.235  10.722  20.542  0.00  0.00    +0.000 NA
ENDBRANCH  14  17
ENDBRANCH  10  11
BRANCH   2  23
ATOM     23  N   UNL     1       3.900   2.432  19.421  0.00  0.00    +0.000 N 
ATOM     24  H   UNL     1       4.387   1.716  18.880  0.00  0.00    +0.000 HD
ATOM     25  H   UNL     1       2.939   2.176  19.627  0.00  0.00    +0.000 HD
ENDBRANCH   2  23
BRANCH   1  26
ATOM     26  C   UNL     1       1.493   4.022  18.616  0.00  0.00    +0.000 C 
ATOM     27  O   UNL     1       0.728   3.855  17.681  0.00  0.00    +0.000 OA
BRANCH  26  28
ATOM     28  O   UNL     1       1.140   4.068  19.928  0.00  0.00    +0.000 OA
BRANCH  28  30
ATOM     29  C   UNL     1       1.535   2.716  21.842  0.00  0.00    +0.000 C 
ATOM     30  C   UNL     1       0.802   2.806  20.514  0.00  0.00    +0.000 C 
ENDBRANCH  28  30
ENDBRANCH  26  28
ENDBRANCH   1  26
BRANCH   6  31
ATOM     31  O   UNL     1       8.493   7.217  17.000  0.00  0.00    +0.000 OA
ATOM     32  H   UNL     1       8.877   6.693  16.277  0.00  0.00    +0.000 HD
ENDBRANCH   6  31
TORSDOF 7
ENDMDL
