MODEL 1
REMARK VINA RESULT:      -7.1      0.000      0.000
REMARK  Name = 
REMARK  6 active torsions:
REMARK  status: ('A' for Active; 'I' for Inactive)
REMARK    1  A    between atoms: C_1  and  C_2
REMARK    2  A    between atoms: C_2  and  O_3
REMARK    3  A    between atoms: O_3  and  C_4
REMARK    4  A    between atoms: C_4  and  N_6
REMARK    5  A    between atoms: N_6  and  C_7
REMARK    6  A    between atoms: C_11  and  C_12
REMARK                            x       y       z     vdW  Elec       q    Type
REMARK                         _______ _______ _______ _____ _____    ______ ____
ROOT
ATOM      1  C   UNL     1       4.743   3.988  17.340  0.00  0.00    +0.000 A 
ATOM      2  C   UNL     1       4.325   5.327  17.357  0.00  0.00    +0.000 A 
ATOM      3  C   UNL     1       3.449   5.795  18.340  0.00  0.00    +0.000 A 
ATOM      4  C   UNL     1       2.977   4.933  19.355  0.00  0.00    +0.000 A 
ATOM      5  C   UNL     1       2.071   5.325  20.376  0.00  0.00    +0.000 A 
ATOM      6  C   UNL     1       1.461   6.700  20.506  0.00  0.00    +0.000 C 
ATOM      7  C   UNL     1       1.691   4.377  21.337  0.00  0.00    +0.000 A 
ATOM      8  C   UNL     1       2.202   3.081  21.268  0.00  0.00    +0.000 A 
ATOM      9  O   UNL     1       1.880   2.253  22.103  0.00  0.00    +0.000 OA
ATOM     10  O   UNL     1       3.037   2.740  20.298  0.00  0.00    +0.000 OA
ATOM     11  C   UNL     1       3.433   3.590  19.356  0.00  0.00    +0.000 A 
ATOM     12  C   UNL     1       4.296   3.131  18.363  0.00  0.00    +0.000 A 
ENDROOT
BRANCH   1  13
ATOM     13  N   UNL     1       5.600   3.542  16.287  0.00  0.00    +0.000 N 
ATOM     14  H   UNL     1       5.467   2.583  15.929  0.00  0.00    +0.000 HD
BRANCH  13  15
ATOM     15  C   UNL     1       6.756   4.249  15.837  0.00  0.00    +0.000 C 
ATOM     16 SE   UNL     1       6.805   4.807  14.172  0.00  0.00    +0.000 Se
BRANCH  15  17
ATOM     17  O   UNL     1       7.836   4.379  16.655  0.00  0.00    +0.000 OA
BRANCH  17  19
ATOM     18  C   UNL     1       7.655   6.196  18.161  0.00  0.00    +0.000 C 
ATOM     19  C   UNL     1       7.809   4.691  17.997  0.00  0.00    +0.000 C 
ENDBRANCH  17  19
ENDBRANCH  15  17
ENDBRANCH  13  15
ENDBRANCH   1  13
TORSDOF 4
ENDMDL
MODEL 2
REMARK VINA RESULT:      -7.1      1.765      2.168
REMARK  Name = 
REMARK  6 active torsions:
REMARK  status: ('A' for Active; 'I' for Inactive)
REMARK    1  A    between atoms: C_1  and  C_2
REMARK    2  A    between atoms: C_2  and  O_3
REMARK    3  A    between atoms: O_3  and  C_4
REMARK    4  A    between atoms: C_4  and  N_6
REMARK    5  A    between atoms: N_6  and  C_7
REMARK    6  A    between atoms: C_11  and  C_12
REMARK                            x       y       z     vdW  Elec       q    Type
REMARK                         _______ _______ _______ _____ _____    ______ ____
ROOT
ATOM      1  C   UNL     1       4.382   5.353  17.336  0.00  0.00    +0.000 A 
ATOM      2  C   UNL     1       3.031   5.594  17.625  0.00  0.00    +0.000 A 
ATOM      3  C   UNL     1       2.371   4.884  18.632  0.00  0.00    +0.000 A 
ATOM      4  C   UNL     1       3.058   3.916  19.399  0.00  0.00    +0.000 A 
ATOM      5  C   UNL     1       2.456   3.140  20.424  0.00  0.00    +0.000 A 
ATOM      6  C   UNL     1       1.001   3.211  20.819  0.00  0.00    +0.000 C 
ATOM      7  C   UNL     1       3.252   2.222  21.126  0.00  0.00    +0.000 A 
ATOM      8  C   UNL     1       4.602   2.090  20.803  0.00  0.00    +0.000 A 
ATOM      9  O   UNL     1       5.300   1.298  21.412  0.00  0.00    +0.000 OA
ATOM     10  O   UNL     1       5.134   2.820  19.834  0.00  0.00    +0.000 OA
ATOM     11  C   UNL     1       4.433   3.703  19.131  0.00  0.00    +0.000 A 
ATOM     12  C   UNL     1       5.077   4.409  18.115  0.00  0.00    +0.000 A 
ENDROOT
BRANCH   1  13
ATOM     13  N   UNL     1       5.001   6.067  16.265  0.00  0.00    +0.000 N 
ATOM     14  H   UNL     1       4.408   6.689  15.693  0.00  0.00    +0.000 HD
BRANCH  13  15
ATOM     15  C   UNL     1       6.330   5.828  15.800  0.00  0.00    +0.000 C 
ATOM     16 SE   UNL     1       6.603   4.497  14.686  0.00  0.00    +0.000 Se
BRANCH  15  17
ATOM     17  O   UNL     1       7.368   6.548  16.303  0.00  0.00    +0.000 OA
BRANCH  17  19
ATOM     18  C   UNL     1       7.863   8.399  17.694  0.00  0.00    +0.000 C 
ATOM     19  C   UNL     1       7.545   6.912  17.621  0.00  0.00    +0.000 C 
ENDBRANCH  17  19
ENDBRANCH  15  17
ENDBRANCH  13  15
ENDBRANCH   1  13
TORSDOF 4
ENDMDL
MODEL 3
REMARK VINA RESULT:      -7.1      2.050      2.678
REMARK  Name = 
REMARK  6 active torsions:
REMARK  status: ('A' for Active; 'I' for Inactive)
REMARK    1  A    between atoms: C_1  and  C_2
REMARK    2  A    between atoms: C_2  and  O_3
REMARK    3  A    between atoms: O_3  and  C_4
REMARK    4  A    between atoms: C_4  and  N_6
REMARK    5  A    between atoms: N_6  and  C_7
REMARK    6  A    between atoms: C_11  and  C_12
REMARK                            x       y       z     vdW  Elec       q    Type
REMARK                         _______ _______ _______ _____ _____    ______ ____
ROOT
ATOM      1  C   UNL     1       4.380   5.695  16.906  0.00  0.00    +0.000 A 
ATOM      2  C   UNL     1       3.971   4.373  17.131  0.00  0.00    +0.000 A 
ATOM      3  C   UNL     1       3.104   4.055  18.181  0.00  0.00    +0.000 A 
ATOM      4  C   UNL     1       2.603   5.066  19.031  0.00  0.00    +0.000 A 
ATOM      5  C   UNL     1       1.736   4.824  20.130  0.00  0.00    +0.000 A 
ATOM      6  C   UNL     1       1.254   3.462  20.564  0.00  0.00    +0.000 C 
ATOM      7  C   UNL     1       1.293   5.918  20.888  0.00  0.00    +0.000 A 
ATOM      8  C   UNL     1       1.713   7.205  20.555  0.00  0.00    +0.000 A 
ATOM      9  O   UNL     1       1.328   8.160  21.207  0.00  0.00    +0.000 OA
ATOM     10  O   UNL     1       2.531   7.399  19.531  0.00  0.00    +0.000 OA
ATOM     11  C   UNL     1       2.988   6.406  18.776  0.00  0.00    +0.000 A 
ATOM     12  C   UNL     1       3.863   6.709  17.734  0.00  0.00    +0.000 A 
ENDROOT
BRANCH   1  13
ATOM     13  N   UNL     1       5.307   5.965  15.852  0.00  0.00    +0.000 N 
ATOM     14  H   UNL     1       5.065   6.705  15.174  0.00  0.00    +0.000 HD
BRANCH  13  15
ATOM     15  C   UNL     1       6.439   5.150  15.548  0.00  0.00    +0.000 C 
ATOM     16 SE   UNL     1       6.327   4.023  14.205  0.00  0.00    +0.000 Se
BRANCH  15  17
ATOM     17  O   UNL     1       7.532   5.173  16.358  0.00  0.00    +0.000 OA
BRANCH  17  19
ATOM     18  C   UNL     1       7.671   5.689  18.664  0.00  0.00    +0.000 C 
ATOM     19  C   UNL     1       7.635   4.596  17.605  0.00  0.00    +0.000 C 
ENDBRANCH  17  19
ENDBRANCH  15  17
ENDBRANCH  13  15
ENDBRANCH   1  13
TORSDOF 4
ENDMDL
MODEL 4
REMARK VINA RESULT:      -7.0      1.672      1.846
REMARK  Name = 
REMARK  6 active torsions:
REMARK  status: ('A' for Active; 'I' for Inactive)
REMARK    1  A    between atoms: C_1  and  C_2
REMARK    2  A    between atoms: C_2  and  O_3
REMARK    3  A    between atoms: O_3  and  C_4
REMARK    4  A    between atoms: C_4  and  N_6
REMARK    5  A    between atoms: N_6  and  C_7
REMARK    6  A    between atoms: C_11  and  C_12
REMARK                            x       y       z     vdW  Elec       q    Type
REMARK                         _______ _______ _______ _____ _____    ______ ____
ROOT
ATOM      1  C   UNL     1       5.458   4.282  17.880  0.00  0.00    +0.000 A 
ATOM      2  C   UNL     1       5.306   5.267  18.868  0.00  0.00    +0.000 A 
ATOM      3  C   UNL     1       4.108   5.397  19.576  0.00  0.00    +0.000 A 
ATOM      4  C   UNL     1       3.025   4.525  19.327  0.00  0.00    +0.000 A 
ATOM      5  C   UNL     1       1.771   4.604  19.989  0.00  0.00    +0.000 A 
ATOM      6  C   UNL     1       1.404   5.642  21.021  0.00  0.00    +0.000 C 
ATOM      7  C   UNL     1       0.781   3.665  19.663  0.00  0.00    +0.000 A 
ATOM      8  C   UNL     1       1.044   2.687  18.704  0.00  0.00    +0.000 A 
ATOM      9  O   UNL     1       0.189   1.866  18.421  0.00  0.00    +0.000 OA
ATOM     10  O   UNL     1       2.219   2.645  18.096  0.00  0.00    +0.000 OA
ATOM     11  C   UNL     1       3.197   3.506  18.356  0.00  0.00    +0.000 A 
ATOM     12  C   UNL     1       4.392   3.394  17.647  0.00  0.00    +0.000 A 
ENDROOT
BRANCH   1  13
ATOM     13  N   UNL     1       6.683   4.219  17.147  0.00  0.00    +0.000 N 
ATOM     14  H   UNL     1       7.462   3.676  17.553  0.00  0.00    +0.000 HD
BRANCH  13  15
ATOM     15  C   UNL     1       6.976   5.017  16.000  0.00  0.00    +0.000 C 
ATOM     16 SE   UNL     1       6.606   4.371  14.409  0.00  0.00    +0.000 Se
BRANCH  15  17
ATOM     17  O   UNL     1       7.633   6.200  16.143  0.00  0.00    +0.000 OA
BRANCH  17  19
ATOM     18  C   UNL     1       8.031   7.375  18.160  0.00  0.00    +0.000 C 
ATOM     19  C   UNL     1       7.210   7.284  16.882  0.00  0.00    +0.000 C 
ENDBRANCH  17  19
ENDBRANCH  15  17
ENDBRANCH  13  15
ENDBRANCH   1  13
TORSDOF 4
ENDMDL
MODEL 5
REMARK VINA RESULT:      -7.0      1.261      1.450
REMARK  Name = 
REMARK  6 active torsions:
REMARK  status: ('A' for Active; 'I' for Inactive)
REMARK    1  A    between atoms: C_1  and  C_2
REMARK    2  A    between atoms: C_2  and  O_3
REMARK    3  A    between atoms: O_3  and  C_4
REMARK    4  A    between atoms: C_4  and  N_6
REMARK    5  A    between atoms: N_6  and  C_7
REMARK    6  A    between atoms: C_11  and  C_12
REMARK                            x       y       z     vdW  Elec       q    Type
REMARK                         _______ _______ _______ _____ _____    ______ ____
ROOT
ATOM      1  C   UNL     1       4.496   6.041  16.803  0.00  0.00    +0.000 A 
ATOM      2  C   UNL     1       4.081   7.243  17.395  0.00  0.00    +0.000 A 
ATOM      3  C   UNL     1       3.223   7.244  18.498  0.00  0.00    +0.000 A 
ATOM      4  C   UNL     1       2.769   6.030  19.058  0.00  0.00    +0.000 A 
ATOM      5  C   UNL     1       1.882   5.945  20.165  0.00  0.00    +0.000 A 
ATOM      6  C   UNL     1       1.277   7.130  20.877  0.00  0.00    +0.000 C 
ATOM      7  C   UNL     1       1.519   4.676  20.638  0.00  0.00    +0.000 A 
ATOM      8  C   UNL     1       2.027   3.535  20.017  0.00  0.00    +0.000 A 
ATOM      9  O   UNL     1       1.719   2.429  20.427  0.00  0.00    +0.000 OA
ATOM     10  O   UNL     1       2.843   3.644  18.980  0.00  0.00    +0.000 OA
ATOM     11  C   UNL     1       3.222   4.816  18.482  0.00  0.00    +0.000 A 
ATOM     12  C   UNL     1       4.067   4.828  17.373  0.00  0.00    +0.000 A 
ENDROOT
BRANCH   1  13
ATOM     13  N   UNL     1       5.333   6.091  15.646  0.00  0.00    +0.000 N 
ATOM     14  H   UNL     1       5.042   6.699  14.864  0.00  0.00    +0.000 HD
BRANCH  13  15
ATOM     15  C   UNL     1       6.429   5.207  15.407  0.00  0.00    +0.000 C 
ATOM     16 SE   UNL     1       6.274   3.999  14.141  0.00  0.00    +0.000 Se
BRANCH  15  17
ATOM     17  O   UNL     1       7.517   5.235  16.223  0.00  0.00    +0.000 OA
BRANCH  17  19
ATOM     18  C   UNL     1       7.651   5.553  18.565  0.00  0.00    +0.000 C 
ATOM     19  C   UNL     1       7.661   4.557  17.414  0.00  0.00    +0.000 C 
ENDBRANCH  17  19
ENDBRANCH  15  17
ENDBRANCH  13  15
ENDBRANCH   1  13
TORSDOF 4
ENDMDL
MODEL 6
REMARK VINA RESULT:      -6.9      1.649      2.425
REMARK  Name = 
REMARK  6 active torsions:
REMARK  status: ('A' for Active; 'I' for Inactive)
REMARK    1  A    between atoms: C_1  and  C_2
REMARK    2  A    between atoms: C_2  and  O_3
REMARK    3  A    between atoms: O_3  and  C_4
REMARK    4  A    between atoms: C_4  and  N_6
REMARK    5  A    between atoms: N_6  and  C_7
REMARK    6  A    between atoms: C_11  and  C_12
REMARK                            x       y       z     vdW  Elec       q    Type
REMARK                         _______ _______ _______ _____ _____    ______ ____
ROOT
ATOM      1  C   UNL     1       4.609   3.625  17.244  0.00  0.00    +0.000 A 
ATOM      2  C   UNL     1       4.052   2.499  17.868  0.00  0.00    +0.000 A 
ATOM      3  C   UNL     1       3.145   2.634  18.923  0.00  0.00    +0.000 A 
ATOM      4  C   UNL     1       2.750   3.913  19.374  0.00  0.00    +0.000 A 
ATOM      5  C   UNL     1       1.850   4.136  20.450  0.00  0.00    +0.000 A 
ATOM      6  C   UNL     1       1.215   3.048  21.281  0.00  0.00    +0.000 C 
ATOM      7  C   UNL     1       1.525   5.457  20.789  0.00  0.00    +0.000 A 
ATOM      8  C   UNL     1       2.088   6.514  20.075  0.00  0.00    +0.000 A 
ATOM      9  O   UNL     1       1.805   7.664  20.362  0.00  0.00    +0.000 OA
ATOM     10  O   UNL     1       2.933   6.276  19.083  0.00  0.00    +0.000 OA
ATOM     11  C   UNL     1       3.285   5.049  18.714  0.00  0.00    +0.000 A 
ATOM     12  C   UNL     1       4.199   4.902  17.672  0.00  0.00    +0.000 A 
ENDROOT
BRANCH   1  13
ATOM     13  N   UNL     1       5.570   3.438  16.204  0.00  0.00    +0.000 N 
ATOM     14  H   UNL     1       5.587   2.526  15.720  0.00  0.00    +0.000 HD
BRANCH  13  15
ATOM     15  C   UNL     1       6.641   4.340  15.925  0.00  0.00    +0.000 C 
ATOM     16 SE   UNL     1       6.911   4.836  14.262  0.00  0.00    +0.000 Se
BRANCH  15  17
ATOM     17  O   UNL     1       7.496   4.710  16.917  0.00  0.00    +0.000 OA
BRANCH  17  19
ATOM     18  C   UNL     1       7.700   5.720  19.048  0.00  0.00    +0.000 C 
ATOM     19  C   UNL     1       7.529   5.933  17.551  0.00  0.00    +0.000 C 
ENDBRANCH  17  19
ENDBRANCH  15  17
ENDBRANCH  13  15
ENDBRANCH   1  13
TORSDOF 4
ENDMDL
MODEL 7
REMARK VINA RESULT:      -6.8      2.050      2.811
REMARK  Name = 
REMARK  6 active torsions:
REMARK  status: ('A' for Active; 'I' for Inactive)
REMARK    1  A    between atoms: C_1  and  C_2
REMARK    2  A    between atoms: C_2  and  O_3
REMARK    3  A    between atoms: O_3  and  C_4
REMARK    4  A    between atoms: C_4  and  N_6
REMARK    5  A    between atoms: N_6  and  C_7
REMARK    6  A    between atoms: C_11  and  C_12
REMARK                            x       y       z     vdW  Elec       q    Type
REMARK                         _______ _______ _______ _____ _____    ______ ____
ROOT
ATOM      1  C   UNL     1       4.946   4.106  16.747  0.00  0.00    +0.000 A 
ATOM      2  C   UNL     1       4.880   5.506  16.792  0.00  0.00    +0.000 A 
ATOM      3  C   UNL     1       4.051   6.160  17.707  0.00  0.00    +0.000 A 
ATOM      4  C   UNL     1       3.271   5.423  18.626  0.00  0.00    +0.000 A 
ATOM      5  C   UNL     1       2.390   6.011  19.573  0.00  0.00    +0.000 A 
ATOM      6  C   UNL     1       2.137   7.492  19.713  0.00  0.00    +0.000 C 
ATOM      7  C   UNL     1       1.683   5.168  20.444  0.00  0.00    +0.000 A 
ATOM      8  C   UNL     1       1.854   3.787  20.360  0.00  0.00    +0.000 A 
ATOM      9  O   UNL     1       1.247   3.050  21.117  0.00  0.00    +0.000 OA
ATOM     10  O   UNL     1       2.675   3.267  19.459  0.00  0.00    +0.000 OA
ATOM     11  C   UNL     1       3.370   4.009  18.605  0.00  0.00    +0.000 A 
ATOM     12  C   UNL     1       4.191   3.368  17.678  0.00  0.00    +0.000 A 
ENDROOT
BRANCH   1  13
ATOM     13  N   UNL     1       5.769   3.481  15.761  0.00  0.00    +0.000 N 
ATOM     14  H   UNL     1       6.337   2.668  16.050  0.00  0.00    +0.000 HD
BRANCH  13  15
ATOM     15  C   UNL     1       6.022   4.021  14.464  0.00  0.00    +0.000 C 
ATOM     16 SE   UNL     1       7.392   5.101  14.256  0.00  0.00    +0.000 Se
BRANCH  15  17
ATOM     17  O   UNL     1       5.149   3.788  13.447  0.00  0.00    +0.000 OA
BRANCH  17  19
ATOM     18  C   UNL     1       4.207   3.245  11.345  0.00  0.00    +0.000 C 
ATOM     19  C   UNL     1       5.459   3.267  12.209  0.00  0.00    +0.000 C 
ENDBRANCH  17  19
ENDBRANCH  15  17
ENDBRANCH  13  15
ENDBRANCH   1  13
TORSDOF 4
ENDMDL
MODEL 8
REMARK VINA RESULT:      -6.7      2.284      3.162
REMARK  Name = 
REMARK  6 active torsions:
REMARK  status: ('A' for Active; 'I' for Inactive)
REMARK    1  A    between atoms: C_1  and  C_2
REMARK    2  A    between atoms: C_2  and  O_3
REMARK    3  A    between atoms: O_3  and  C_4
REMARK    4  A    between atoms: C_4  and  N_6
REMARK    5  A    between atoms: N_6  and  C_7
REMARK    6  A    between atoms: C_11  and  C_12
REMARK                            x       y       z     vdW  Elec       q    Type
REMARK                         _______ _______ _______ _____ _____    ______ ____
ROOT
ATOM      1  C   UNL     1       4.446   4.493  16.858  0.00  0.00    +0.000 A 
ATOM      2  C   UNL     1       3.921   3.293  17.360  0.00  0.00    +0.000 A 
ATOM      3  C   UNL     1       3.048   3.290  18.452  0.00  0.00    +0.000 A 
ATOM      4  C   UNL     1       2.657   4.501  19.065  0.00  0.00    +0.000 A 
ATOM      5  C   UNL     1       1.792   4.582  20.189  0.00  0.00    +0.000 A 
ATOM      6  C   UNL     1       1.195   3.395  20.905  0.00  0.00    +0.000 C 
ATOM      7  C   UNL     1       1.466   5.849  20.695  0.00  0.00    +0.000 A 
ATOM      8  C   UNL     1       1.996   6.991  20.094  0.00  0.00    +0.000 A 
ATOM      9  O   UNL     1       1.713   8.095  20.525  0.00  0.00    +0.000 OA
ATOM     10  O   UNL     1       2.809   6.884  19.054  0.00  0.00    +0.000 OA
ATOM     11  C   UNL     1       3.159   5.714  18.529  0.00  0.00    +0.000 A 
ATOM     12  C   UNL     1       4.039   5.704  17.448  0.00  0.00    +0.000 A 
ENDROOT
BRANCH   1  13
ATOM     13  N   UNL     1       5.373   4.443  15.772  0.00  0.00    +0.000 N 
ATOM     14  H   UNL     1       5.064   4.000  14.893  0.00  0.00    +0.000 HD
BRANCH  13  15
ATOM     15  C   UNL     1       6.758   4.774  15.881  0.00  0.00    +0.000 C 
ATOM     16 SE   UNL     1       7.536   4.629  17.449  0.00  0.00    +0.000 Se
BRANCH  15  17
ATOM     17  O   UNL     1       7.419   5.298  14.813  0.00  0.00    +0.000 OA
BRANCH  17  19
ATOM     18  C   UNL     1       8.268   5.680  12.637  0.00  0.00    +0.000 C 
ATOM     19  C   UNL     1       7.263   4.926  13.495  0.00  0.00    +0.000 C 
ENDBRANCH  17  19
ENDBRANCH  15  17
ENDBRANCH  13  15
ENDBRANCH   1  13
TORSDOF 4
ENDMDL
MODEL 9
REMARK VINA RESULT:      -6.6      3.715      5.853
REMARK  Name = 
REMARK  6 active torsions:
REMARK  status: ('A' for Active; 'I' for Inactive)
REMARK    1  A    between atoms: C_1  and  C_2
REMARK    2  A    between atoms: C_2  and  O_3
REMARK    3  A    between atoms: O_3  and  C_4
REMARK    4  A    between atoms: C_4  and  N_6
REMARK    5  A    between atoms: N_6  and  C_7
REMARK    6  A    between atoms: C_11  and  C_12
REMARK                            x       y       z     vdW  Elec       q    Type
REMARK                         _______ _______ _______ _____ _____    ______ ____
ROOT
ATOM      1  C   UNL     1       6.402   4.018  14.123  0.00  0.00    +0.000 A 
ATOM      2  C   UNL     1       5.442   3.328  14.878  0.00  0.00    +0.000 A 
ATOM      3  C   UNL     1       5.238   3.626  16.228  0.00  0.00    +0.000 A 
ATOM      4  C   UNL     1       5.983   4.645  16.862  0.00  0.00    +0.000 A 
ATOM      5  C   UNL     1       5.850   4.994  18.232  0.00  0.00    +0.000 A 
ATOM      6  C   UNL     1       4.925   4.312  19.210  0.00  0.00    +0.000 C 
ATOM      7  C   UNL     1       6.638   6.039  18.737  0.00  0.00    +0.000 A 
ATOM      8  C   UNL     1       7.528   6.703  17.894  0.00  0.00    +0.000 A 
ATOM      9  O   UNL     1       8.212   7.616  18.326  0.00  0.00    +0.000 OA
ATOM     10  O   UNL     1       7.639   6.349  16.623  0.00  0.00    +0.000 OA
ATOM     11  C   UNL     1       6.925   5.366  16.085  0.00  0.00    +0.000 A 
ATOM     12  C   UNL     1       7.128   5.052  14.742  0.00  0.00    +0.000 A 
ENDROOT
BRANCH   1  13
ATOM     13  N   UNL     1       6.610   3.645  12.759  0.00  0.00    +0.000 N 
ATOM     14  H   UNL     1       7.447   4.014  12.279  0.00  0.00    +0.000 HD
BRANCH  13  15
ATOM     15  C   UNL     1       5.643   2.972  11.952  0.00  0.00    +0.000 C 
ATOM     16 SE   UNL     1       6.041   1.385  11.313  0.00  0.00    +0.000 Se
BRANCH  15  17
ATOM     17  O   UNL     1       4.492   3.605  11.599  0.00  0.00    +0.000 OA
BRANCH  17  19
ATOM     18  C   UNL     1       3.058   4.154   9.797  0.00  0.00    +0.000 C 
ATOM     19  C   UNL     1       3.493   3.094  10.798  0.00  0.00    +0.000 C 
ENDBRANCH  17  19
ENDBRANCH  15  17
ENDBRANCH  13  15
ENDBRANCH   1  13
TORSDOF 4
ENDMDL
