MODEL 1
REMARK VINA RESULT:      -6.9      0.000      0.000
REMARK  Name = 
REMARK  8 active torsions:
REMARK  status: ('A' for Active; 'I' for Inactive)
REMARK    1  A    between atoms: N_1  and  CA_2
REMARK    2  A    between atoms: CA_2  and  C_3
REMARK    3  A    between atoms: CA_2  and  C_6
REMARK    4  A    between atoms: C_3  and  OXT_5
REMARK    5  A    between atoms: C_6  and  C_7
REMARK    6  A    between atoms: C_6  and  C_11
REMARK    7  A    between atoms: C_7  and  C_8
REMARK    8  A    between atoms: C_8  and  O_10
REMARK                            x       y       z     vdW  Elec       q    Type
REMARK                         _______ _______ _______ _____ _____    ______ ____
ROOT
ATOM      1  C   UNL     1       5.839   5.018  17.059  0.00  0.00    +0.000 C 
ENDROOT
BRANCH   1   2
ATOM      2  C   UNL     1       4.545   4.787  17.838  0.00  0.00    +0.000 A 
ATOM      3  C   UNL     1       3.491   4.089  17.225  0.00  0.00    +0.000 A 
ATOM      4  C   UNL     1       2.318   3.808  17.925  0.00  0.00    +0.000 A 
ATOM      5  C   UNL     1       2.185   4.224  19.246  0.00  0.00    +0.000 A 
ATOM      6 CL   UNL     1       0.753   3.856  20.123  0.00  0.00    +0.000 Cl
ATOM      7  C   UNL     1       3.216   4.929  19.867  0.00  0.00    +0.000 A 
ATOM      8  C   UNL     1       4.393   5.210  19.167  0.00  0.00    +0.000 A 
ENDBRANCH   1   2
BRANCH   1   9
ATOM      9  CA  UNL     1       7.063   5.150  18.006  0.00  0.00    +0.000 C 
BRANCH   9  10
ATOM     10  N   UNL     1       8.134   4.176  17.684  0.00  0.00    +0.000 NA
ATOM     11  H1  UNL     1       8.746   4.056  18.495  0.00  0.00    +0.000 HD
ATOM     12  H2  UNL     1       8.746   4.599  16.977  0.00  0.00    +0.000 HD
ENDBRANCH   9  10
BRANCH   9  13
ATOM     13  C   UNL     1       7.673   6.565  17.963  0.00  0.00    +0.000 C 
ATOM     14  O   UNL     1       7.640   7.310  16.997  0.00  0.00    +0.000 OA
BRANCH  13  15
ATOM     15  OXT UNL     1       8.391   6.857  19.078  0.00  0.00    +0.000 OA
ATOM     16  HXT UNL     1       9.019   6.162  19.352  0.00  0.00    +0.000 HD
ENDBRANCH  13  15
ENDBRANCH   9  13
ENDBRANCH   1   9
BRANCH   1  17
ATOM     17  C   UNL     1       6.053   3.879  16.037  0.00  0.00    +0.000 C 
BRANCH  17  18
ATOM     18  C   UNL     1       6.438   4.394  14.667  0.00  0.00    +0.000 C 
ATOM     19  O   UNL     1       5.916   4.042  13.623  0.00  0.00    +0.000 OA
BRANCH  18  20
ATOM     20  O   UNL     1       7.394   5.350  14.708  0.00  0.00    +0.000 OA
ATOM     21  H   UNL     1       7.791   5.569  13.845  0.00  0.00    +0.000 HD
ENDBRANCH  18  20
ENDBRANCH  17  18
ENDBRANCH   1  17
TORSDOF 8
ENDMDL
MODEL 2
REMARK VINA RESULT:      -6.8      0.719      1.305
REMARK  Name = 
REMARK  8 active torsions:
REMARK  status: ('A' for Active; 'I' for Inactive)
REMARK    1  A    between atoms: N_1  and  CA_2
REMARK    2  A    between atoms: CA_2  and  C_3
REMARK    3  A    between atoms: CA_2  and  C_6
REMARK    4  A    between atoms: C_3  and  OXT_5
REMARK    5  A    between atoms: C_6  and  C_7
REMARK    6  A    between atoms: C_6  and  C_11
REMARK    7  A    between atoms: C_7  and  C_8
REMARK    8  A    between atoms: C_8  and  O_10
REMARK                            x       y       z     vdW  Elec       q    Type
REMARK                         _______ _______ _______ _____ _____    ______ ____
ROOT
ATOM      1  C   UNL     1       5.747   4.907  16.795  0.00  0.00    +0.000 C 
ENDROOT
BRANCH   1   2
ATOM      2  C   UNL     1       4.434   4.591  17.511  0.00  0.00    +0.000 A 
ATOM      3  C   UNL     1       4.070   3.250  17.714  0.00  0.00    +0.000 A 
ATOM      4  C   UNL     1       2.909   2.924  18.415  0.00  0.00    +0.000 A 
ATOM      5  C   UNL     1       2.097   3.936  18.917  0.00  0.00    +0.000 A 
ATOM      6 CL   UNL     1       0.680   3.541  19.805  0.00  0.00    +0.000 Cl
ATOM      7  C   UNL     1       2.436   5.274  18.713  0.00  0.00    +0.000 A 
ATOM      8  C   UNL     1       3.601   5.602  18.013  0.00  0.00    +0.000 A 
ENDBRANCH   1   2
BRANCH   1   9
ATOM      9  CA  UNL     1       6.915   5.104  17.802  0.00  0.00    +0.000 C 
BRANCH   9  10
ATOM     10  N   UNL     1       8.035   4.164  17.559  0.00  0.00    +0.000 NA
ATOM     11  H1  UNL     1       8.176   4.048  16.553  0.00  0.00    +0.000 HD
ATOM     12  H2  UNL     1       7.739   3.232  17.872  0.00  0.00    +0.000 HD
ENDBRANCH   9  10
BRANCH   9  13
ATOM     13  C   UNL     1       7.475   6.540  17.756  0.00  0.00    +0.000 C 
ATOM     14  O   UNL     1       8.163   7.048  18.627  0.00  0.00    +0.000 OA
BRANCH  13  15
ATOM     15  OXT UNL     1       7.002   7.250  16.700  0.00  0.00    +0.000 OA
ATOM     16  HXT UNL     1       6.123   6.971  16.382  0.00  0.00    +0.000 HD
ENDBRANCH  13  15
ENDBRANCH   9  13
ENDBRANCH   1   9
BRANCH   1  17
ATOM     17  C   UNL     1       6.079   3.791  15.779  0.00  0.00    +0.000 C 
BRANCH  17  18
ATOM     18  C   UNL     1       6.710   4.328  14.514  0.00  0.00    +0.000 C 
ATOM     19  O   UNL     1       7.469   5.282  14.469  0.00  0.00    +0.000 OA
BRANCH  18  20
ATOM     20  O   UNL     1       6.401   3.602  13.416  0.00  0.00    +0.000 OA
ATOM     21  H   UNL     1       7.110   3.544  12.750  0.00  0.00    +0.000 HD
ENDBRANCH  18  20
ENDBRANCH  17  18
ENDBRANCH   1  17
TORSDOF 8
ENDMDL
MODEL 3
REMARK VINA RESULT:      -6.8      1.738      3.328
REMARK  Name = 
REMARK  8 active torsions:
REMARK  status: ('A' for Active; 'I' for Inactive)
REMARK    1  A    between atoms: N_1  and  CA_2
REMARK    2  A    between atoms: CA_2  and  C_3
REMARK    3  A    between atoms: CA_2  and  C_6
REMARK    4  A    between atoms: C_3  and  OXT_5
REMARK    5  A    between atoms: C_6  and  C_7
REMARK    6  A    between atoms: C_6  and  C_11
REMARK    7  A    between atoms: C_7  and  C_8
REMARK    8  A    between atoms: C_8  and  O_10
REMARK                            x       y       z     vdW  Elec       q    Type
REMARK                         _______ _______ _______ _____ _____    ______ ____
ROOT
ATOM      1  C   UNL     1       5.582   4.521  16.722  0.00  0.00    +0.000 C 
ENDROOT
BRANCH   1   2
ATOM      2  C   UNL     1       4.226   4.059  17.255  0.00  0.00    +0.000 A 
ATOM      3  C   UNL     1       3.985   2.684  17.412  0.00  0.00    +0.000 A 
ATOM      4  C   UNL     1       2.782   2.227  17.951  0.00  0.00    +0.000 A 
ATOM      5  C   UNL     1       1.806   3.140  18.335  0.00  0.00    +0.000 A 
ATOM      6 CL   UNL     1       0.333   2.586  19.025  0.00  0.00    +0.000 Cl
ATOM      7  C   UNL     1       2.023   4.509  18.175  0.00  0.00    +0.000 A 
ATOM      8  C   UNL     1       3.229   4.969  17.636  0.00  0.00    +0.000 A 
ENDBRANCH   1   2
BRANCH   1   9
ATOM      9  CA  UNL     1       5.456   5.160  15.312  0.00  0.00    +0.000 C 
BRANCH   9  10
ATOM     10  N   UNL     1       5.332   6.636  15.370  0.00  0.00    +0.000 NA
ATOM     11  H1  UNL     1       4.616   6.948  14.709  0.00  0.00    +0.000 HD
ATOM     12  H2  UNL     1       6.199   7.043  15.000  0.00  0.00    +0.000 HD
ENDBRANCH   9  10
BRANCH   9  13
ATOM     13  C   UNL     1       6.662   4.816  14.416  0.00  0.00    +0.000 C 
ATOM     14  O   UNL     1       7.761   5.341  14.492  0.00  0.00    +0.000 OA
BRANCH  13  15
ATOM     15  OXT UNL     1       6.339   3.955  13.416  0.00  0.00    +0.000 OA
ATOM     16  HXT UNL     1       7.103   3.541  12.972  0.00  0.00    +0.000 HD
ENDBRANCH  13  15
ENDBRANCH   9  13
ENDBRANCH   1   9
BRANCH   1  17
ATOM     17  C   UNL     1       6.235   5.506  17.718  0.00  0.00    +0.000 C 
BRANCH  17  18
ATOM     18  C   UNL     1       7.562   5.004  18.244  0.00  0.00    +0.000 C 
ATOM     19  O   UNL     1       8.027   5.289  19.335  0.00  0.00    +0.000 OA
BRANCH  18  20
ATOM     20  O   UNL     1       8.175   4.141  17.402  0.00  0.00    +0.000 OA
ATOM     21  H   UNL     1       7.577   3.535  16.929  0.00  0.00    +0.000 HD
ENDBRANCH  18  20
ENDBRANCH  17  18
ENDBRANCH   1  17
TORSDOF 8
ENDMDL
MODEL 4
REMARK VINA RESULT:      -6.8      1.734      3.367
REMARK  Name = 
REMARK  8 active torsions:
REMARK  status: ('A' for Active; 'I' for Inactive)
REMARK    1  A    between atoms: N_1  and  CA_2
REMARK    2  A    between atoms: CA_2  and  C_3
REMARK    3  A    between atoms: CA_2  and  C_6
REMARK    4  A    between atoms: C_3  and  OXT_5
REMARK    5  A    between atoms: C_6  and  C_7
REMARK    6  A    between atoms: C_6  and  C_11
REMARK    7  A    between atoms: C_7  and  C_8
REMARK    8  A    between atoms: C_8  and  O_10
REMARK                            x       y       z     vdW  Elec       q    Type
REMARK                         _______ _______ _______ _____ _____    ______ ____
ROOT
ATOM      1  C   UNL     1       5.624   4.500  16.825  0.00  0.00    +0.000 C 
ENDROOT
BRANCH   1   2
ATOM      2  C   UNL     1       4.304   3.970  17.383  0.00  0.00    +0.000 A 
ATOM      3  C   UNL     1       3.251   4.869  17.622  0.00  0.00    +0.000 A 
ATOM      4  C   UNL     1       2.013   4.415  18.075  0.00  0.00    +0.000 A 
ATOM      5  C   UNL     1       1.814   3.056  18.296  0.00  0.00    +0.000 A 
ATOM      6 CL   UNL     1       0.282   2.486  18.828  0.00  0.00    +0.000 Cl
ATOM      7  C   UNL     1       2.852   2.149  18.077  0.00  0.00    +0.000 A 
ATOM      8  C   UNL     1       4.093   2.603  17.621  0.00  0.00    +0.000 A 
ENDBRANCH   1   2
BRANCH   1   9
ATOM      9  CA  UNL     1       5.435   5.151  15.427  0.00  0.00    +0.000 C 
BRANCH   9  10
ATOM     10  N   UNL     1       5.434   6.632  15.490  0.00  0.00    +0.000 NA
ATOM     11  H1  UNL     1       4.988   6.940  16.357  0.00  0.00    +0.000 HD
ATOM     12  H2  UNL     1       4.806   6.981  14.756  0.00  0.00    +0.000 HD
ENDBRANCH   9  10
BRANCH   9  13
ATOM     13  C   UNL     1       6.531   4.713  14.436  0.00  0.00    +0.000 C 
ATOM     14  O   UNL     1       6.404   3.835  13.597  0.00  0.00    +0.000 OA
BRANCH  13  15
ATOM     15  OXT UNL     1       7.726   5.310  14.683  0.00  0.00    +0.000 OA
ATOM     16  HXT UNL     1       8.142   5.054  15.528  0.00  0.00    +0.000 HD
ENDBRANCH  13  15
ENDBRANCH   9  13
ENDBRANCH   1   9
BRANCH   1  17
ATOM     17  C   UNL     1       6.256   5.500  17.818  0.00  0.00    +0.000 C 
BRANCH  17  18
ATOM     18  C   UNL     1       7.582   5.016  18.363  0.00  0.00    +0.000 C 
ATOM     19  O   UNL     1       8.057   5.357  19.433  0.00  0.00    +0.000 OA
BRANCH  18  20
ATOM     20  O   UNL     1       8.182   4.102  17.567  0.00  0.00    +0.000 OA
ATOM     21  H   UNL     1       7.818   3.200  17.633  0.00  0.00    +0.000 HD
ENDBRANCH  18  20
ENDBRANCH  17  18
ENDBRANCH   1  17
TORSDOF 8
ENDMDL
MODEL 5
REMARK VINA RESULT:      -6.7      0.743      1.336
REMARK  Name = 
REMARK  8 active torsions:
REMARK  status: ('A' for Active; 'I' for Inactive)
REMARK    1  A    between atoms: N_1  and  CA_2
REMARK    2  A    between atoms: CA_2  and  C_3
REMARK    3  A    between atoms: CA_2  and  C_6
REMARK    4  A    between atoms: C_3  and  OXT_5
REMARK    5  A    between atoms: C_6  and  C_7
REMARK    6  A    between atoms: C_6  and  C_11
REMARK    7  A    between atoms: C_7  and  C_8
REMARK    8  A    between atoms: C_8  and  O_10
REMARK                            x       y       z     vdW  Elec       q    Type
REMARK                         _______ _______ _______ _____ _____    ______ ____
ROOT
ATOM      1  C   UNL     1       5.732   4.918  17.076  0.00  0.00    +0.000 C 
ENDROOT
BRANCH   1   2
ATOM      2  C   UNL     1       4.503   4.508  17.886  0.00  0.00    +0.000 A 
ATOM      3  C   UNL     1       3.271   5.132  17.626  0.00  0.00    +0.000 A 
ATOM      4  C   UNL     1       2.116   4.742  18.303  0.00  0.00    +0.000 A 
ATOM      5  C   UNL     1       2.181   3.726  19.251  0.00  0.00    +0.000 A 
ATOM      6 CL   UNL     1       0.756   3.222  20.070  0.00  0.00    +0.000 Cl
ATOM      7  C   UNL     1       3.397   3.103  19.532  0.00  0.00    +0.000 A 
ATOM      8  C   UNL     1       4.556   3.492  18.852  0.00  0.00    +0.000 A 
ENDBRANCH   1   2
BRANCH   1   9
ATOM      9  CA  UNL     1       6.973   5.133  17.986  0.00  0.00    +0.000 C 
BRANCH   9  10
ATOM     10  N   UNL     1       8.070   4.184  17.678  0.00  0.00    +0.000 NA
ATOM     11  H1  UNL     1       8.142   3.486  18.422  0.00  0.00    +0.000 HD
ATOM     12  H2  UNL     1       8.958   4.696  17.737  0.00  0.00    +0.000 HD
ENDBRANCH   9  10
BRANCH   9  13
ATOM     13  C   UNL     1       7.530   6.565  17.869  0.00  0.00    +0.000 C 
ATOM     14  O   UNL     1       8.261   7.099  18.689  0.00  0.00    +0.000 OA
BRANCH  13  15
ATOM     15  OXT UNL     1       7.006   7.244  16.817  0.00  0.00    +0.000 OA
ATOM     16  HXT UNL     1       7.664   7.585  16.183  0.00  0.00    +0.000 HD
ENDBRANCH  13  15
ENDBRANCH   9  13
ENDBRANCH   1   9
BRANCH   1  17
ATOM     17  C   UNL     1       6.024   3.865  15.985  0.00  0.00    +0.000 C 
BRANCH  17  18
ATOM     18  C   UNL     1       6.567   4.481  14.714  0.00  0.00    +0.000 C 
ATOM     19  O   UNL     1       7.524   5.235  14.663  0.00  0.00    +0.000 OA
BRANCH  18  20
ATOM     20  O   UNL     1       5.919   4.064  13.602  0.00  0.00    +0.000 OA
ATOM     21  H   UNL     1       6.244   4.451  12.769  0.00  0.00    +0.000 HD
ENDBRANCH  18  20
ENDBRANCH  17  18
ENDBRANCH   1  17
TORSDOF 8
ENDMDL
MODEL 6
REMARK VINA RESULT:      -6.7      0.281      1.408
REMARK  Name = 
REMARK  8 active torsions:
REMARK  status: ('A' for Active; 'I' for Inactive)
REMARK    1  A    between atoms: N_1  and  CA_2
REMARK    2  A    between atoms: CA_2  and  C_3
REMARK    3  A    between atoms: CA_2  and  C_6
REMARK    4  A    between atoms: C_3  and  OXT_5
REMARK    5  A    between atoms: C_6  and  C_7
REMARK    6  A    between atoms: C_6  and  C_11
REMARK    7  A    between atoms: C_7  and  C_8
REMARK    8  A    between atoms: C_8  and  O_10
REMARK                            x       y       z     vdW  Elec       q    Type
REMARK                         _______ _______ _______ _____ _____    ______ ____
ROOT
ATOM      1  C   UNL     1       5.721   4.926  16.955  0.00  0.00    +0.000 C 
ENDROOT
BRANCH   1   2
ATOM      2  C   UNL     1       4.474   4.665  17.799  0.00  0.00    +0.000 A 
ATOM      3  C   UNL     1       4.407   5.189  19.101  0.00  0.00    +0.000 A 
ATOM      4  C   UNL     1       3.262   5.023  19.880  0.00  0.00    +0.000 A 
ATOM      5  C   UNL     1       2.172   4.328  19.366  0.00  0.00    +0.000 A 
ATOM      6 CL   UNL     1       0.747   4.144  20.309  0.00  0.00    +0.000 Cl
ATOM      7  C   UNL     1       2.225   3.791  18.079  0.00  0.00    +0.000 A 
ATOM      8  C   UNL     1       3.372   3.958  17.297  0.00  0.00    +0.000 A 
ENDBRANCH   1   2
BRANCH   1   9
ATOM      9  CA  UNL     1       6.992   5.068  17.838  0.00  0.00    +0.000 C 
BRANCH   9  10
ATOM     10  N   UNL     1       8.096   4.191  17.383  0.00  0.00    +0.000 NA
ATOM     11  H1  UNL     1       8.196   4.260  16.368  0.00  0.00    +0.000 HD
ATOM     12  H2  UNL     1       7.809   3.216  17.533  0.00  0.00    +0.000 HD
ENDBRANCH   9  10
BRANCH   9  13
ATOM     13  C   UNL     1       7.511   6.519  17.866  0.00  0.00    +0.000 C 
ATOM     14  O   UNL     1       7.392   7.321  16.953  0.00  0.00    +0.000 OA
BRANCH  13  15
ATOM     15  OXT UNL     1       8.256   6.785  18.970  0.00  0.00    +0.000 OA
ATOM     16  HXT UNL     1       7.771   6.717  19.814  0.00  0.00    +0.000 HD
ENDBRANCH  13  15
ENDBRANCH   9  13
ENDBRANCH   1   9
BRANCH   1  17
ATOM     17  C   UNL     1       5.899   3.801  15.911  0.00  0.00    +0.000 C 
BRANCH  17  18
ATOM     18  C   UNL     1       6.433   4.313  14.592  0.00  0.00    +0.000 C 
ATOM     19  O   UNL     1       6.998   5.384  14.441  0.00  0.00    +0.000 OA
BRANCH  18  20
ATOM     20  O   UNL     1       6.280   3.431  13.578  0.00  0.00    +0.000 OA
ATOM     21  H   UNL     1       6.102   2.514  13.856  0.00  0.00    +0.000 HD
ENDBRANCH  18  20
ENDBRANCH  17  18
ENDBRANCH   1  17
TORSDOF 8
ENDMDL
MODEL 7
REMARK VINA RESULT:      -6.6      1.204      1.483
REMARK  Name = 
REMARK  8 active torsions:
REMARK  status: ('A' for Active; 'I' for Inactive)
REMARK    1  A    between atoms: N_1  and  CA_2
REMARK    2  A    between atoms: CA_2  and  C_3
REMARK    3  A    between atoms: CA_2  and  C_6
REMARK    4  A    between atoms: C_3  and  OXT_5
REMARK    5  A    between atoms: C_6  and  C_7
REMARK    6  A    between atoms: C_6  and  C_11
REMARK    7  A    between atoms: C_7  and  C_8
REMARK    8  A    between atoms: C_8  and  O_10
REMARK                            x       y       z     vdW  Elec       q    Type
REMARK                         _______ _______ _______ _____ _____    ______ ____
ROOT
ATOM      1  C   UNL     1       5.589   5.296  17.178  0.00  0.00    +0.000 C 
ENDROOT
BRANCH   1   2
ATOM      2  C   UNL     1       4.343   4.515  17.596  0.00  0.00    +0.000 A 
ATOM      3  C   UNL     1       3.190   5.220  17.980  0.00  0.00    +0.000 A 
ATOM      4  C   UNL     1       2.017   4.543  18.310  0.00  0.00    +0.000 A 
ATOM      5  C   UNL     1       1.984   3.153  18.263  0.00  0.00    +0.000 A 
ATOM      6 CL   UNL     1       0.533   2.314  18.643  0.00  0.00    +0.000 Cl
ATOM      7  C   UNL     1       3.123   2.436  17.897  0.00  0.00    +0.000 A 
ATOM      8  C   UNL     1       4.300   3.113  17.564  0.00  0.00    +0.000 A 
ENDBRANCH   1   2
BRANCH   1   9
ATOM      9  CA  UNL     1       6.191   6.094  18.367  0.00  0.00    +0.000 C 
BRANCH   9  10
ATOM     10  N   UNL     1       6.593   5.215  19.491  0.00  0.00    +0.000 NA
ATOM     11  H1  UNL     1       6.560   5.740  20.369  0.00  0.00    +0.000 HD
ATOM     12  H2  UNL     1       7.589   4.993  19.379  0.00  0.00    +0.000 HD
ENDBRANCH   9  10
BRANCH   9  13
ATOM     13  C   UNL     1       7.419   6.921  17.941  0.00  0.00    +0.000 C 
ATOM     14  O   UNL     1       7.562   7.445  16.847  0.00  0.00    +0.000 OA
BRANCH  13  15
ATOM     15  OXT UNL     1       8.413   6.893  18.865  0.00  0.00    +0.000 OA
ATOM     16  HXT UNL     1       8.111   6.963  19.790  0.00  0.00    +0.000 HD
ENDBRANCH  13  15
ENDBRANCH   9  13
ENDBRANCH   1   9
BRANCH   1  17
ATOM     17  C   UNL     1       6.638   4.336  16.572  0.00  0.00    +0.000 C 
BRANCH  17  18
ATOM     18  C   UNL     1       6.778   4.502  15.075  0.00  0.00    +0.000 C 
ATOM     19  O   UNL     1       6.067   3.958  14.247  0.00  0.00    +0.000 OA
BRANCH  18  20
ATOM     20  O   UNL     1       7.749   5.377  14.726  0.00  0.00    +0.000 OA
ATOM     21  H   UNL     1       7.776   6.193  15.259  0.00  0.00    +0.000 HD
ENDBRANCH  18  20
ENDBRANCH  17  18
ENDBRANCH   1  17
TORSDOF 8
ENDMDL
MODEL 8
REMARK VINA RESULT:      -6.6      1.628      3.376
REMARK  Name = 
REMARK  8 active torsions:
REMARK  status: ('A' for Active; 'I' for Inactive)
REMARK    1  A    between atoms: N_1  and  CA_2
REMARK    2  A    between atoms: CA_2  and  C_3
REMARK    3  A    between atoms: CA_2  and  C_6
REMARK    4  A    between atoms: C_3  and  OXT_5
REMARK    5  A    between atoms: C_6  and  C_7
REMARK    6  A    between atoms: C_6  and  C_11
REMARK    7  A    between atoms: C_7  and  C_8
REMARK    8  A    between atoms: C_8  and  O_10
REMARK                            x       y       z     vdW  Elec       q    Type
REMARK                         _______ _______ _______ _____ _____    ______ ____
ROOT
ATOM      1  C   UNL     1       5.637   4.567  16.880  0.00  0.00    +0.000 C 
ENDROOT
BRANCH   1   2
ATOM      2  C   UNL     1       4.312   4.025  17.416  0.00  0.00    +0.000 A 
ATOM      3  C   UNL     1       3.267   4.922  17.693  0.00  0.00    +0.000 A 
ATOM      4  C   UNL     1       2.025   4.458  18.127  0.00  0.00    +0.000 A 
ATOM      5  C   UNL     1       1.816   3.093  18.293  0.00  0.00    +0.000 A 
ATOM      6 CL   UNL     1       0.280   2.513  18.801  0.00  0.00    +0.000 Cl
ATOM      7  C   UNL     1       2.847   2.189  18.036  0.00  0.00    +0.000 A 
ATOM      8  C   UNL     1       4.092   2.651  17.599  0.00  0.00    +0.000 A 
ENDBRANCH   1   2
BRANCH   1   9
ATOM      9  CA  UNL     1       5.486   5.121  15.436  0.00  0.00    +0.000 C 
BRANCH   9  10
ATOM     10  N   UNL     1       5.404   6.601  15.405  0.00  0.00    +0.000 NA
ATOM     11  H1  UNL     1       4.552   6.909  15.880  0.00  0.00    +0.000 HD
ATOM     12  H2  UNL     1       5.256   6.890  14.431  0.00  0.00    +0.000 HD
ENDBRANCH   9  10
BRANCH   9  13
ATOM     13  C   UNL     1       6.654   4.686  14.530  0.00  0.00    +0.000 C 
ATOM     14  O   UNL     1       7.658   5.348  14.319  0.00  0.00    +0.000 OA
BRANCH  13  15
ATOM     15  OXT UNL     1       6.393   3.534  13.860  0.00  0.00    +0.000 OA
ATOM     16  HXT UNL     1       7.043   3.309  13.168  0.00  0.00    +0.000 HD
ENDBRANCH  13  15
ENDBRANCH   9  13
ENDBRANCH   1   9
BRANCH   1  17
ATOM     17  C   UNL     1       6.190   5.652  17.831  0.00  0.00    +0.000 C 
BRANCH  17  18
ATOM     18  C   UNL     1       7.581   5.330  18.330  0.00  0.00    +0.000 C 
ATOM     19  O   UNL     1       8.238   4.364  17.978  0.00  0.00    +0.000 OA
BRANCH  18  20
ATOM     20  O   UNL     1       8.071   6.263  19.178  0.00  0.00    +0.000 OA
ATOM     21  H   UNL     1       8.897   6.012  19.631  0.00  0.00    +0.000 HD
ENDBRANCH  18  20
ENDBRANCH  17  18
ENDBRANCH   1  17
TORSDOF 8
ENDMDL
MODEL 9
REMARK VINA RESULT:      -6.6      1.200      1.493
REMARK  Name = 
REMARK  8 active torsions:
REMARK  status: ('A' for Active; 'I' for Inactive)
REMARK    1  A    between atoms: N_1  and  CA_2
REMARK    2  A    between atoms: CA_2  and  C_3
REMARK    3  A    between atoms: CA_2  and  C_6
REMARK    4  A    between atoms: C_3  and  OXT_5
REMARK    5  A    between atoms: C_6  and  C_7
REMARK    6  A    between atoms: C_6  and  C_11
REMARK    7  A    between atoms: C_7  and  C_8
REMARK    8  A    between atoms: C_8  and  O_10
REMARK                            x       y       z     vdW  Elec       q    Type
REMARK                         _______ _______ _______ _____ _____    ______ ____
ROOT
ATOM      1  C   UNL     1       5.540   5.265  17.059  0.00  0.00    +0.000 C 
ENDROOT
BRANCH   1   2
ATOM      2  C   UNL     1       4.232   4.560  17.418  0.00  0.00    +0.000 A 
ATOM      3  C   UNL     1       4.181   3.156  17.391  0.00  0.00    +0.000 A 
ATOM      4  C   UNL     1       3.024   2.476  17.771  0.00  0.00    +0.000 A 
ATOM      5  C   UNL     1       1.903   3.193  18.177  0.00  0.00    +0.000 A 
ATOM      6 CL   UNL     1       0.483   2.361  18.672  0.00  0.00    +0.000 Cl
ATOM      7  C   UNL     1       1.931   4.587  18.198  0.00  0.00    +0.000 A 
ATOM      8  C   UNL     1       3.091   5.270  17.820  0.00  0.00    +0.000 A 
ENDBRANCH   1   2
BRANCH   1   9
ATOM      9  CA  UNL     1       6.166   5.974  18.292  0.00  0.00    +0.000 C 
BRANCH   9  10
ATOM     10  N   UNL     1       6.669   5.012  19.301  0.00  0.00    +0.000 NA
ATOM     11  H1  UNL     1       7.653   5.206  19.503  0.00  0.00    +0.000 HD
ATOM     12  H2  UNL     1       6.689   4.081  18.869  0.00  0.00    +0.000 HD
ENDBRANCH   9  10
BRANCH   9  13
ATOM     13  C   UNL     1       7.330   6.901  17.890  0.00  0.00    +0.000 C 
ATOM     14  O   UNL     1       8.300   7.147  18.590  0.00  0.00    +0.000 OA
BRANCH  13  15
ATOM     15  OXT UNL     1       7.102   7.546  16.717  0.00  0.00    +0.000 OA
ATOM     16  HXT UNL     1       7.205   8.515  16.759  0.00  0.00    +0.000 HD
ENDBRANCH  13  15
ENDBRANCH   9  13
ENDBRANCH   1   9
BRANCH   1  17
ATOM     17  C   UNL     1       6.533   4.257  16.439  0.00  0.00    +0.000 C 
BRANCH  17  18
ATOM     18  C   UNL     1       6.724   4.469  14.954  0.00  0.00    +0.000 C 
ATOM     19  O   UNL     1       6.073   3.914  14.085  0.00  0.00    +0.000 OA
BRANCH  18  20
ATOM     20  O   UNL     1       7.663   5.399  14.667  0.00  0.00    +0.000 OA
ATOM     21  H   UNL     1       7.638   5.739  13.754  0.00  0.00    +0.000 HD
ENDBRANCH  18  20
ENDBRANCH  17  18
ENDBRANCH   1  17
TORSDOF 8
ENDMDL
