MODEL 1
REMARK VINA RESULT:      -6.5      0.000      0.000
REMARK  Name = 
REMARK  3 active torsions:
REMARK  status: ('A' for Active; 'I' for Inactive)
REMARK    1  A    between atoms: N_5  and  C_6
REMARK    2  A    between atoms: C_9  and  C_10
REMARK    3  A    between atoms: C_10  and  O_11
REMARK                            x       y       z     vdW  Elec       q    Type
REMARK                         _______ _______ _______ _____ _____    ______ ____
ROOT
ATOM      1  N   UNL     1       7.566   5.274  14.306  0.00  0.00    +0.000 N 
ATOM      2  C   UNL     1       6.875   4.980  15.505  0.00  0.00    +0.000 A 
ATOM      3  C   UNL     1       5.505   4.722  15.486  0.00  0.00    +0.000 A 
ATOM      4  C   UNL     1       4.859   4.449  16.688  0.00  0.00    +0.000 A 
ATOM      5  N   UNL     1       5.550   4.426  17.869  0.00  0.00    +0.000 N 
ATOM      6  C   UNL     1       6.912   4.684  17.857  0.00  0.00    +0.000 A 
ATOM      7  O   UNL     1       7.561   4.679  18.889  0.00  0.00    +0.000 OA
ATOM      8  N   UNL     1       7.545   4.953  16.684  0.00  0.00    +0.000 NA
ATOM      9  H   UNL     1       7.068   5.305  13.404  0.00  0.00    +0.000 HD
ATOM     10  H   UNL     1       8.575   5.476  14.327  0.00  0.00    +0.000 HD
ENDROOT
BRANCH   5  11
ATOM     11  C   UNL     1       4.824   4.158  19.128  0.00  0.00    +0.000 C 
ATOM     12  C   UNL     1       4.299   2.736  19.187  0.00  0.00    +0.000 C 
ATOM     13  S   UNL     1       3.169   2.759  20.576  0.00  0.00    +0.000 S 
ATOM     14  C   UNL     1       2.919   4.557  20.296  0.00  0.00    +0.000 C 
ATOM     15  O   UNL     1       3.728   5.025  19.235  0.00  0.00    +0.000 OA
BRANCH  14  16
ATOM     16  C   UNL     1       1.456   4.827  19.950  0.00  0.00    +0.000 C 
BRANCH  16  17
ATOM     17  O   UNL     1       0.646   3.765  20.378  0.00  0.00    +0.000 OA
ATOM     18  H   UNL     1       0.243   4.045  21.241  0.00  0.00    +0.000 HD
ENDBRANCH  16  17
ENDBRANCH  14  16
ENDBRANCH   5  11
TORSDOF 3
ENDMDL
MODEL 2
REMARK VINA RESULT:      -6.5      1.019      1.019
REMARK  Name = 
REMARK  3 active torsions:
REMARK  status: ('A' for Active; 'I' for Inactive)
REMARK    1  A    between atoms: N_5  and  C_6
REMARK    2  A    between atoms: C_9  and  C_10
REMARK    3  A    between atoms: C_10  and  O_11
REMARK                            x       y       z     vdW  Elec       q    Type
REMARK                         _______ _______ _______ _____ _____    ______ ____
ROOT
ATOM      1  N   UNL     1       7.653   5.267  13.694  0.00  0.00    +0.000 N 
ATOM      2  C   UNL     1       6.984   4.973  14.905  0.00  0.00    +0.000 A 
ATOM      3  C   UNL     1       5.595   4.860  14.936  0.00  0.00    +0.000 A 
ATOM      4  C   UNL     1       4.973   4.582  16.149  0.00  0.00    +0.000 A 
ATOM      5  N   UNL     1       5.706   4.414  17.293  0.00  0.00    +0.000 N 
ATOM      6  C   UNL     1       7.086   4.529  17.232  0.00  0.00    +0.000 A 
ATOM      7  O   UNL     1       7.772   4.394  18.230  0.00  0.00    +0.000 OA
ATOM      8  N   UNL     1       7.695   4.803  16.048  0.00  0.00    +0.000 NA
ATOM      9  H   UNL     1       7.124   5.405  12.820  0.00  0.00    +0.000 HD
ATOM     10  H   UNL     1       8.677   5.362  13.678  0.00  0.00    +0.000 HD
ENDROOT
BRANCH   5  11
ATOM     11  C   UNL     1       5.008   4.145  18.568  0.00  0.00    +0.000 C 
ATOM     12  C   UNL     1       4.038   2.985  18.449  0.00  0.00    +0.000 C 
ATOM     13  S   UNL     1       3.065   3.090  19.949  0.00  0.00    +0.000 S 
ATOM     14  C   UNL     1       3.422   4.890  20.012  0.00  0.00    +0.000 C 
ATOM     15  O   UNL     1       4.277   5.277  18.955  0.00  0.00    +0.000 OA
BRANCH  14  16
ATOM     16  C   UNL     1       2.118   5.679  19.898  0.00  0.00    +0.000 C 
BRANCH  16  17
ATOM     17  O   UNL     1       1.860   6.373  21.089  0.00  0.00    +0.000 OA
ATOM     18  H   UNL     1       2.726   6.449  21.567  0.00  0.00    +0.000 HD
ENDBRANCH  16  17
ENDBRANCH  14  16
ENDBRANCH   5  11
TORSDOF 3
ENDMDL
MODEL 3
REMARK VINA RESULT:      -6.4      2.097      2.350
REMARK  Name = 
REMARK  3 active torsions:
REMARK  status: ('A' for Active; 'I' for Inactive)
REMARK    1  A    between atoms: N_5  and  C_6
REMARK    2  A    between atoms: C_9  and  C_10
REMARK    3  A    between atoms: C_10  and  O_11
REMARK                            x       y       z     vdW  Elec       q    Type
REMARK                         _______ _______ _______ _____ _____    ______ ____
ROOT
ATOM      1  N   UNL     1       7.570   5.328  14.533  0.00  0.00    +0.000 N 
ATOM      2  C   UNL     1       6.469   5.251  15.418  0.00  0.00    +0.000 A 
ATOM      3  C   UNL     1       5.930   4.015  15.769  0.00  0.00    +0.000 A 
ATOM      4  C   UNL     1       4.839   3.981  16.633  0.00  0.00    +0.000 A 
ATOM      5  N   UNL     1       4.306   5.137  17.137  0.00  0.00    +0.000 N 
ATOM      6  C   UNL     1       4.865   6.352  16.772  0.00  0.00    +0.000 A 
ATOM      7  O   UNL     1       4.414   7.403  17.194  0.00  0.00    +0.000 OA
ATOM      8  N   UNL     1       5.928   6.386  15.927  0.00  0.00    +0.000 NA
ATOM      9  H   UNL     1       7.986   4.473  14.133  0.00  0.00    +0.000 HD
ATOM     10  H   UNL     1       7.957   6.244  14.266  0.00  0.00    +0.000 HD
ENDROOT
BRANCH   5  11
ATOM     11  C   UNL     1       3.131   5.063  18.031  0.00  0.00    +0.000 C 
ATOM     12  C   UNL     1       3.534   4.860  19.479  0.00  0.00    +0.000 C 
ATOM     13  S   UNL     1       1.996   4.430  20.291  0.00  0.00    +0.000 S 
ATOM     14  C   UNL     1       1.373   3.785  18.688  0.00  0.00    +0.000 C 
ATOM     15  O   UNL     1       2.319   3.982  17.657  0.00  0.00    +0.000 OA
BRANCH  14  16
ATOM     16  C   UNL     1       1.089   2.289  18.810  0.00  0.00    +0.000 C 
BRANCH  16  17
ATOM     17  O   UNL     1       2.057   1.547  18.118  0.00  0.00    +0.000 OA
ATOM     18  H   UNL     1       2.923   2.013  18.255  0.00  0.00    +0.000 HD
ENDBRANCH  16  17
ENDBRANCH  14  16
ENDBRANCH   5  11
TORSDOF 3
ENDMDL
MODEL 4
REMARK VINA RESULT:      -6.2      1.333      1.351
REMARK  Name = 
REMARK  3 active torsions:
REMARK  status: ('A' for Active; 'I' for Inactive)
REMARK    1  A    between atoms: N_5  and  C_6
REMARK    2  A    between atoms: C_9  and  C_10
REMARK    3  A    between atoms: C_10  and  O_11
REMARK                            x       y       z     vdW  Elec       q    Type
REMARK                         _______ _______ _______ _____ _____    ______ ____
ROOT
ATOM      1  N   UNL     1       7.627   5.671  15.264  0.00  0.00    +0.000 N 
ATOM      2  C   UNL     1       6.707   5.306  16.275  0.00  0.00    +0.000 A 
ATOM      3  C   UNL     1       5.441   4.832  15.941  0.00  0.00    +0.000 A 
ATOM      4  C   UNL     1       4.560   4.495  16.964  0.00  0.00    +0.000 A 
ATOM      5  N   UNL     1       4.928   4.619  18.277  0.00  0.00    +0.000 N 
ATOM      6  C   UNL     1       6.196   5.091  18.580  0.00  0.00    +0.000 A 
ATOM      7  O   UNL     1       6.558   5.221  19.736  0.00  0.00    +0.000 OA
ATOM      8  N   UNL     1       7.056   5.422  17.581  0.00  0.00    +0.000 NA
ATOM      9  H   UNL     1       7.373   5.595  14.267  0.00  0.00    +0.000 HD
ATOM     10  H   UNL     1       8.557   6.034  15.515  0.00  0.00    +0.000 HD
ENDROOT
BRANCH   5  11
ATOM     11  C   UNL     1       3.957   4.275  19.337  0.00  0.00    +0.000 C 
ATOM     12  C   UNL     1       4.261   2.930  19.969  0.00  0.00    +0.000 C 
ATOM     13  S   UNL     1       2.786   2.566  20.918  0.00  0.00    +0.000 S 
ATOM     14  C   UNL     1       1.825   3.621  19.763  0.00  0.00    +0.000 C 
ATOM     15  O   UNL     1       2.666   4.211  18.793  0.00  0.00    +0.000 OA
BRANCH  14  16
ATOM     16  C   UNL     1       0.773   2.775  19.047  0.00  0.00    +0.000 C 
BRANCH  16  17
ATOM     17  O   UNL     1       1.341   1.586  18.569  0.00  0.00    +0.000 OA
ATOM     18  H   UNL     1       1.297   0.931  19.313  0.00  0.00    +0.000 HD
ENDBRANCH  16  17
ENDBRANCH  14  16
ENDBRANCH   5  11
TORSDOF 3
ENDMDL
MODEL 5
REMARK VINA RESULT:      -6.1      1.422      1.422
REMARK  Name = 
REMARK  3 active torsions:
REMARK  status: ('A' for Active; 'I' for Inactive)
REMARK    1  A    between atoms: N_5  and  C_6
REMARK    2  A    between atoms: C_9  and  C_10
REMARK    3  A    between atoms: C_10  and  O_11
REMARK                            x       y       z     vdW  Elec       q    Type
REMARK                         _______ _______ _______ _____ _____    ______ ____
ROOT
ATOM      1  N   UNL     1       7.875   5.340  13.876  0.00  0.00    +0.000 N 
ATOM      2  C   UNL     1       7.025   5.114  14.984  0.00  0.00    +0.000 A 
ATOM      3  C   UNL     1       6.007   4.166  14.912  0.00  0.00    +0.000 A 
ATOM      4  C   UNL     1       5.183   3.982  16.018  0.00  0.00    +0.000 A 
ATOM      5  N   UNL     1       5.369   4.711  17.162  0.00  0.00    +0.000 N 
ATOM      6  C   UNL     1       6.392   5.646  17.206  0.00  0.00    +0.000 A 
ATOM      7  O   UNL     1       6.584   6.320  18.203  0.00  0.00    +0.000 OA
ATOM      8  N   UNL     1       7.195   5.828  16.125  0.00  0.00    +0.000 NA
ATOM      9  H   UNL     1       7.752   4.810  13.001  0.00  0.00    +0.000 HD
ATOM     10  H   UNL     1       8.617   6.051  13.929  0.00  0.00    +0.000 HD
ENDROOT
BRANCH   5  11
ATOM     11  C   UNL     1       4.458   4.506  18.308  0.00  0.00    +0.000 C 
ATOM     12  C   UNL     1       4.789   3.240  19.075  0.00  0.00    +0.000 C 
ATOM     13  S   UNL     1       3.370   3.008  20.142  0.00  0.00    +0.000 S 
ATOM     14  C   UNL     1       2.351   3.934  18.927  0.00  0.00    +0.000 C 
ATOM     15  O   UNL     1       3.138   4.396  17.849  0.00  0.00    +0.000 OA
BRANCH  14  16
ATOM     16  C   UNL     1       1.253   3.024  18.376  0.00  0.00    +0.000 C 
BRANCH  16  17
ATOM     17  O   UNL     1       1.503   1.689  18.721  0.00  0.00    +0.000 OA
ATOM     18  H   UNL     1       2.488   1.597  18.807  0.00  0.00    +0.000 HD
ENDBRANCH  16  17
ENDBRANCH  14  16
ENDBRANCH   5  11
TORSDOF 3
ENDMDL
MODEL 6
REMARK VINA RESULT:      -6.1      3.117      5.462
REMARK  Name = 
REMARK  3 active torsions:
REMARK  status: ('A' for Active; 'I' for Inactive)
REMARK    1  A    between atoms: N_5  and  C_6
REMARK    2  A    between atoms: C_9  and  C_10
REMARK    3  A    between atoms: C_10  and  O_11
REMARK                            x       y       z     vdW  Elec       q    Type
REMARK                         _______ _______ _______ _____ _____    ______ ____
ROOT
ATOM      1  N   UNL     1       0.715   2.892  21.111  0.00  0.00    +0.000 N 
ATOM      2  C   UNL     1       1.902   3.225  20.417  0.00  0.00    +0.000 A 
ATOM      3  C   UNL     1       1.916   4.281  19.507  0.00  0.00    +0.000 A 
ATOM      4  C   UNL     1       3.100   4.569  18.834  0.00  0.00    +0.000 A 
ATOM      5  N   UNL     1       4.234   3.838  19.062  0.00  0.00    +0.000 N 
ATOM      6  C   UNL     1       4.191   2.795  19.974  0.00  0.00    +0.000 A 
ATOM      7  O   UNL     1       5.178   2.116  20.199  0.00  0.00    +0.000 OA
ATOM      8  N   UNL     1       3.035   2.511  20.630  0.00  0.00    +0.000 NA
ATOM      9  H   UNL     1      -0.155   3.422  20.953  0.00  0.00    +0.000 HD
ATOM     10  H   UNL     1       0.706   2.103  21.772  0.00  0.00    +0.000 HD
ENDROOT
BRANCH   5  11
ATOM     11  C   UNL     1       5.465   4.158  18.310  0.00  0.00    +0.000 C 
ATOM     12  C   UNL     1       5.950   5.567  18.590  0.00  0.00    +0.000 C 
ATOM     13  S   UNL     1       7.184   5.850  17.323  0.00  0.00    +0.000 S 
ATOM     14  C   UNL     1       6.322   4.626  16.261  0.00  0.00    +0.000 C 
ATOM     15  O   UNL     1       5.219   4.054  16.933  0.00  0.00    +0.000 OA
BRANCH  14  16
ATOM     16  C   UNL     1       5.818   5.310  14.990  0.00  0.00    +0.000 C 
BRANCH  16  17
ATOM     17  O   UNL     1       5.364   6.605  15.277  0.00  0.00    +0.000 OA
ATOM     18  H   UNL     1       4.714   6.842  14.566  0.00  0.00    +0.000 HD
ENDBRANCH  16  17
ENDBRANCH  14  16
ENDBRANCH   5  11
TORSDOF 3
ENDMDL
MODEL 7
REMARK VINA RESULT:      -6.0      3.119      5.558
REMARK  Name = 
REMARK  3 active torsions:
REMARK  status: ('A' for Active; 'I' for Inactive)
REMARK    1  A    between atoms: N_5  and  C_6
REMARK    2  A    between atoms: C_9  and  C_10
REMARK    3  A    between atoms: C_10  and  O_11
REMARK                            x       y       z     vdW  Elec       q    Type
REMARK                         _______ _______ _______ _____ _____    ______ ____
ROOT
ATOM      1  N   UNL     1       1.051   2.466  22.128  0.00  0.00    +0.000 N 
ATOM      2  C   UNL     1       1.762   3.085  21.074  0.00  0.00    +0.000 A 
ATOM      3  C   UNL     1       1.140   4.030  20.260  0.00  0.00    +0.000 A 
ATOM      4  C   UNL     1       1.870   4.607  19.225  0.00  0.00    +0.000 A 
ATOM      5  N   UNL     1       3.177   4.263  19.010  0.00  0.00    +0.000 N 
ATOM      6  C   UNL     1       3.771   3.323  19.837  0.00  0.00    +0.000 A 
ATOM      7  O   UNL     1       4.931   2.986  19.673  0.00  0.00    +0.000 OA
ATOM      8  N   UNL     1       3.059   2.756  20.847  0.00  0.00    +0.000 NA
ATOM      9  H   UNL     1       0.064   2.701  22.307  0.00  0.00    +0.000 HD
ATOM     10  H   UNL     1       1.511   1.759  22.718  0.00  0.00    +0.000 HD
ENDROOT
BRANCH   5  11
ATOM     11  C   UNL     1       3.912   4.880  17.886  0.00  0.00    +0.000 C 
ATOM     12  C   UNL     1       4.207   3.878  16.785  0.00  0.00    +0.000 C 
ATOM     13  S   UNL     1       5.394   4.727  15.747  0.00  0.00    +0.000 S 
ATOM     14  C   UNL     1       5.912   5.712  17.208  0.00  0.00    +0.000 C 
ATOM     15  O   UNL     1       5.137   5.386  18.343  0.00  0.00    +0.000 OA
BRANCH  14  16
ATOM     16  C   UNL     1       7.382   5.433  17.523  0.00  0.00    +0.000 C 
BRANCH  16  17
ATOM     17  O   UNL     1       7.510   4.238  18.245  0.00  0.00    +0.000 OA
ATOM     18  H   UNL     1       7.825   3.550  17.603  0.00  0.00    +0.000 HD
ENDBRANCH  16  17
ENDBRANCH  14  16
ENDBRANCH   5  11
TORSDOF 3
ENDMDL
MODEL 8
REMARK VINA RESULT:      -5.9      3.044      5.750
REMARK  Name = 
REMARK  3 active torsions:
REMARK  status: ('A' for Active; 'I' for Inactive)
REMARK    1  A    between atoms: N_5  and  C_6
REMARK    2  A    between atoms: C_9  and  C_10
REMARK    3  A    between atoms: C_10  and  O_11
REMARK                            x       y       z     vdW  Elec       q    Type
REMARK                         _______ _______ _______ _____ _____    ______ ____
ROOT
ATOM      1  N   UNL     1       1.576   2.566  22.224  0.00  0.00    +0.000 N 
ATOM      2  C   UNL     1       2.191   3.259  21.155  0.00  0.00    +0.000 A 
ATOM      3  C   UNL     1       3.033   2.589  20.269  0.00  0.00    +0.000 A 
ATOM      4  C   UNL     1       3.630   3.308  19.238  0.00  0.00    +0.000 A 
ATOM      5  N   UNL     1       3.393   4.648  19.088  0.00  0.00    +0.000 N 
ATOM      6  C   UNL     1       2.549   5.288  19.982  0.00  0.00    +0.000 A 
ATOM      7  O   UNL     1       2.320   6.481  19.885  0.00  0.00    +0.000 OA
ATOM      8  N   UNL     1       1.968   4.587  20.991  0.00  0.00    +0.000 NA
ATOM      9  H   UNL     1       1.742   1.558  22.364  0.00  0.00    +0.000 HD
ATOM     10  H   UNL     1       0.965   3.068  22.883  0.00  0.00    +0.000 HD
ENDROOT
BRANCH   5  11
ATOM     11  C   UNL     1       4.065   5.383  17.996  0.00  0.00    +0.000 C 
ATOM     12  C   UNL     1       4.342   4.493  16.799  0.00  0.00    +0.000 C 
ATOM     13  S   UNL     1       5.462   5.467  15.797  0.00  0.00    +0.000 S 
ATOM     14  C   UNL     1       6.012   6.334  17.319  0.00  0.00    +0.000 C 
ATOM     15  O   UNL     1       5.293   5.886  18.450  0.00  0.00    +0.000 OA
BRANCH  14  16
ATOM     16  C   UNL     1       7.500   6.074  17.552  0.00  0.00    +0.000 C 
BRANCH  16  17
ATOM     17  O   UNL     1       7.814   4.737  17.272  0.00  0.00    +0.000 OA
ATOM     18  H   UNL     1       7.657   4.605  16.301  0.00  0.00    +0.000 HD
ENDBRANCH  16  17
ENDBRANCH  14  16
ENDBRANCH   5  11
TORSDOF 3
ENDMDL
MODEL 9
REMARK VINA RESULT:      -5.9      3.180      5.380
REMARK  Name = 
REMARK  3 active torsions:
REMARK  status: ('A' for Active; 'I' for Inactive)
REMARK    1  A    between atoms: N_5  and  C_6
REMARK    2  A    between atoms: C_9  and  C_10
REMARK    3  A    between atoms: C_10  and  O_11
REMARK                            x       y       z     vdW  Elec       q    Type
REMARK                         _______ _______ _______ _____ _____    ______ ____
ROOT
ATOM      1  N   UNL     1       0.549   1.960  18.825  0.00  0.00    +0.000 N 
ATOM      2  C   UNL     1       1.804   2.574  18.607  0.00  0.00    +0.000 A 
ATOM      3  C   UNL     1       1.975   3.481  17.563  0.00  0.00    +0.000 A 
ATOM      4  C   UNL     1       3.229   4.055  17.373  0.00  0.00    +0.000 A 
ATOM      5  N   UNL     1       4.277   3.743  18.196  0.00  0.00    +0.000 N 
ATOM      6  C   UNL     1       4.077   2.838  19.228  0.00  0.00    +0.000 A 
ATOM      7  O   UNL     1       4.987   2.530  19.978  0.00  0.00    +0.000 OA
ATOM      8  N   UNL     1       2.853   2.276  19.413  0.00  0.00    +0.000 NA
ATOM      9  H   UNL     1      -0.255   2.171  18.215  0.00  0.00    +0.000 HD
ATOM     10  H   UNL     1       0.431   1.280  19.589  0.00  0.00    +0.000 HD
ENDROOT
BRANCH   5  11
ATOM     11  C   UNL     1       5.600   4.353  17.948  0.00  0.00    +0.000 C 
ATOM     12  C   UNL     1       5.535   5.868  17.956  0.00  0.00    +0.000 C 
ATOM     13  S   UNL     1       7.117   6.363  17.276  0.00  0.00    +0.000 S 
ATOM     14  C   UNL     1       7.194   4.760  16.384  0.00  0.00    +0.000 C 
ATOM     15  O   UNL     1       6.077   3.950  16.692  0.00  0.00    +0.000 OA
BRANCH  14  16
ATOM     16  C   UNL     1       7.214   5.009  14.876  0.00  0.00    +0.000 C 
BRANCH  16  17
ATOM     17  O   UNL     1       5.983   4.658  14.304  0.00  0.00    +0.000 OA
ATOM     18  H   UNL     1       5.940   3.666  14.309  0.00  0.00    +0.000 HD
ENDBRANCH  16  17
ENDBRANCH  14  16
ENDBRANCH   5  11
TORSDOF 3
ENDMDL
