MODEL 1
REMARK VINA RESULT:      -7.5      0.000      0.000
REMARK  Name = 
REMARK  4 active torsions:
REMARK  status: ('A' for Active; 'I' for Inactive)
REMARK    1  A    between atoms: C_1  and  C_2
REMARK    2  A    between atoms: C_9  and  C_10
REMARK    3  A    between atoms: N_12  and  N_13
REMARK    4  A    between atoms: C_14  and  C_16
REMARK                            x       y       z     vdW  Elec       q    Type
REMARK                         _______ _______ _______ _____ _____    ______ ____
ROOT
ATOM      1  C   UNL     1       7.342   6.246  18.257  0.00  0.00    +0.000 C 
ATOM      2  O   UNL     1       8.057   5.800  19.157  0.00  0.00    +0.000 OA
ATOM      3  N   UNL     1       7.496   7.551  17.828  0.00  0.00    +0.000 N 
ATOM      4  H   UNL     1       6.960   7.989  17.088  0.00  0.00    +0.000 HD
ENDROOT
BRANCH   1  13
ATOM      5  C   UNL     1       7.185   4.873  15.187  0.00  0.00    +0.000 C 
ATOM      6  C   UNL     1       6.232   4.873  16.325  0.00  0.00    +0.000 A 
ATOM      7  N   UNL     1       5.035   4.196  16.151  0.00  0.00    +0.000 NA
ATOM      8  C   UNL     1       4.420   4.373  17.280  0.00  0.00    +0.000 A 
ATOM      9  S   UNL     1       2.879   3.877  17.904  0.00  0.00    +0.000 S 
ATOM     10  C   UNL     1       3.257   4.728  19.407  0.00  0.00    +0.000 A 
ATOM     11  C   UNL     1       4.465   5.319  19.383  0.00  0.00    +0.000 A 
ATOM     12  N   UNL     1       5.118   5.116  18.181  0.00  0.00    +0.000 N 
ATOM     13  C   UNL     1       6.321   5.460  17.597  0.00  0.00    +0.000 A 
ENDBRANCH   1  13
BRANCH   3  14
ATOM     14  N   UNL     1       8.503   8.354  18.384  0.00  0.00    +0.000 N 
ATOM     15  C   UNL     1       8.455   9.712  18.128  0.00  0.00    +0.000 C 
ATOM     16  O   UNL     1       7.591  10.221  17.417  0.00  0.00    +0.000 OA
ATOM     17  H   UNL     1       9.082   7.929  19.105  0.00  0.00    +0.000 HD
BRANCH  15  18
ATOM     18  C   UNL     1       9.495  10.545  18.789  0.00  0.00    +0.000 A 
ATOM     19  C   UNL     1      10.598  11.039  18.080  0.00  0.00    +0.000 A 
ATOM     20  C   UNL     1      11.565  11.805  18.736  0.00  0.00    +0.000 A 
ATOM     21  C   UNL     1      11.431  12.086  20.095  0.00  0.00    +0.000 A 
ATOM     22  C   UNL     1      10.321  11.618  20.801  0.00  0.00    +0.000 A 
ATOM     23  C   UNL     1       9.350  10.855  20.147  0.00  0.00    +0.000 A 
ENDBRANCH  15  18
ENDBRANCH   3  14
TORSDOF 3
ENDMDL
MODEL 2
REMARK VINA RESULT:      -7.5      0.066      1.058
REMARK  Name = 
REMARK  4 active torsions:
REMARK  status: ('A' for Active; 'I' for Inactive)
REMARK    1  A    between atoms: C_1  and  C_2
REMARK    2  A    between atoms: C_9  and  C_10
REMARK    3  A    between atoms: N_12  and  N_13
REMARK    4  A    between atoms: C_14  and  C_16
REMARK                            x       y       z     vdW  Elec       q    Type
REMARK                         _______ _______ _______ _____ _____    ______ ____
ROOT
ATOM      1  C   UNL     1       7.305   6.270  18.317  0.00  0.00    +0.000 C 
ATOM      2  O   UNL     1       7.947   5.861  19.288  0.00  0.00    +0.000 OA
ATOM      3  N   UNL     1       7.528   7.541  17.822  0.00  0.00    +0.000 N 
ATOM      4  H   UNL     1       7.054   7.948  17.024  0.00  0.00    +0.000 HD
ENDROOT
BRANCH   1  13
ATOM      5  C   UNL     1       7.233   4.860  15.261  0.00  0.00    +0.000 C 
ATOM      6  C   UNL     1       6.250   4.872  16.374  0.00  0.00    +0.000 A 
ATOM      7  N   UNL     1       5.060   4.189  16.177  0.00  0.00    +0.000 NA
ATOM      8  C   UNL     1       4.414   4.379  17.287  0.00  0.00    +0.000 A 
ATOM      9  S   UNL     1       2.859   3.886  17.877  0.00  0.00    +0.000 S 
ATOM     10  C   UNL     1       3.195   4.756  19.379  0.00  0.00    +0.000 A 
ATOM     11  C   UNL     1       4.402   5.350  19.379  0.00  0.00    +0.000 A 
ATOM     12  N   UNL     1       5.087   5.134  18.197  0.00  0.00    +0.000 N 
ATOM     13  C   UNL     1       6.304   5.474  17.641  0.00  0.00    +0.000 A 
ENDBRANCH   1  13
BRANCH   3  14
ATOM     14  N   UNL     1       8.522   8.349  18.394  0.00  0.00    +0.000 N 
ATOM     15  C   UNL     1       8.454   9.711  18.164  0.00  0.00    +0.000 C 
ATOM     16  O   UNL     1       7.582  10.220  17.462  0.00  0.00    +0.000 OA
ATOM     17  H   UNL     1       9.108   7.920  19.107  0.00  0.00    +0.000 HD
BRANCH  15  18
ATOM     18  C   UNL     1       9.481  10.547  18.841  0.00  0.00    +0.000 A 
ATOM     19  C   UNL     1       9.390  10.861  20.203  0.00  0.00    +0.000 A 
ATOM     20  C   UNL     1      10.364  11.662  20.804  0.00  0.00    +0.000 A 
ATOM     21  C   UNL     1      11.433  12.146  20.050  0.00  0.00    +0.000 A 
ATOM     22  C   UNL     1      11.543  11.816  18.699  0.00  0.00    +0.000 A 
ATOM     23  C   UNL     1      10.572  11.011  18.095  0.00  0.00    +0.000 A 
ENDBRANCH  15  18
ENDBRANCH   3  14
TORSDOF 3
ENDMDL
MODEL 3
REMARK VINA RESULT:      -7.3      4.574      7.084
REMARK  Name = 
REMARK  4 active torsions:
REMARK  status: ('A' for Active; 'I' for Inactive)
REMARK    1  A    between atoms: C_1  and  C_2
REMARK    2  A    between atoms: C_9  and  C_10
REMARK    3  A    between atoms: N_12  and  N_13
REMARK    4  A    between atoms: C_14  and  C_16
REMARK                            x       y       z     vdW  Elec       q    Type
REMARK                         _______ _______ _______ _____ _____    ______ ____
ROOT
ATOM      1  C   UNL     1       3.150   5.473  19.547  0.00  0.00    +0.000 C 
ATOM      2  O   UNL     1       2.855   4.907  20.602  0.00  0.00    +0.000 OA
ATOM      3  N   UNL     1       2.765   6.782  19.329  0.00  0.00    +0.000 N 
ATOM      4  H   UNL     1       2.976   7.322  18.497  0.00  0.00    +0.000 HD
ENDROOT
BRANCH   1  13
ATOM      5  C   UNL     1       2.324   3.084  17.323  0.00  0.00    +0.000 C 
ATOM      6  C   UNL     1       3.584   3.838  17.550  0.00  0.00    +0.000 A 
ATOM      7  N   UNL     1       4.655   3.549  16.720  0.00  0.00    +0.000 NA
ATOM      8  C   UNL     1       5.593   4.337  17.151  0.00  0.00    +0.000 A 
ATOM      9  S   UNL     1       7.242   4.613  16.689  0.00  0.00    +0.000 S 
ATOM     10  C   UNL     1       7.363   5.813  17.982  0.00  0.00    +0.000 A 
ATOM     11  C   UNL     1       6.217   5.954  18.673  0.00  0.00    +0.000 A 
ATOM     12  N   UNL     1       5.221   5.119  18.200  0.00  0.00    +0.000 N 
ATOM     13  C   UNL     1       3.903   4.830  18.491  0.00  0.00    +0.000 A 
ENDBRANCH   1  13
BRANCH   3  14
ATOM     14  N   UNL     1       2.080   7.485  20.330  0.00  0.00    +0.000 N 
ATOM     15  C   UNL     1       1.440   8.656  19.970  0.00  0.00    +0.000 C 
ATOM     16  O   UNL     1       1.478   9.106  18.827  0.00  0.00    +0.000 OA
ATOM     17  H   UNL     1       1.919   6.993  21.207  0.00  0.00    +0.000 HD
BRANCH  15  18
ATOM     18  C   UNL     1       0.665   9.341  21.039  0.00  0.00    +0.000 A 
ATOM     19  C   UNL     1       0.668   8.874  22.360  0.00  0.00    +0.000 A 
ATOM     20  C   UNL     1      -0.084   9.531  23.337  0.00  0.00    +0.000 A 
ATOM     21  C   UNL     1      -0.834  10.658  23.001  0.00  0.00    +0.000 A 
ATOM     22  C   UNL     1      -0.820  11.143  21.692  0.00  0.00    +0.000 A 
ATOM     23  C   UNL     1      -0.066  10.490  20.714  0.00  0.00    +0.000 A 
ENDBRANCH  15  18
ENDBRANCH   3  14
TORSDOF 3
ENDMDL
MODEL 4
REMARK VINA RESULT:      -7.3      4.562      7.029
REMARK  Name = 
REMARK  4 active torsions:
REMARK  status: ('A' for Active; 'I' for Inactive)
REMARK    1  A    between atoms: C_1  and  C_2
REMARK    2  A    between atoms: C_9  and  C_10
REMARK    3  A    between atoms: N_12  and  N_13
REMARK    4  A    between atoms: C_14  and  C_16
REMARK                            x       y       z     vdW  Elec       q    Type
REMARK                         _______ _______ _______ _____ _____    ______ ____
ROOT
ATOM      1  C   UNL     1       3.185   5.540  19.499  0.00  0.00    +0.000 C 
ATOM      2  O   UNL     1       2.830   4.958  20.527  0.00  0.00    +0.000 OA
ATOM      3  N   UNL     1       2.836   6.861  19.293  0.00  0.00    +0.000 N 
ATOM      4  H   UNL     1       3.097   7.415  18.485  0.00  0.00    +0.000 HD
ENDROOT
BRANCH   1  13
ATOM      5  C   UNL     1       2.407   3.255  17.153  0.00  0.00    +0.000 C 
ATOM      6  C   UNL     1       3.676   3.956  17.475  0.00  0.00    +0.000 A 
ATOM      7  N   UNL     1       4.782   3.657  16.697  0.00  0.00    +0.000 NA
ATOM      8  C   UNL     1       5.720   4.396  17.205  0.00  0.00    +0.000 A 
ATOM      9  S   UNL     1       7.401   4.629  16.844  0.00  0.00    +0.000 S 
ATOM     10  C   UNL     1       7.489   5.782  18.182  0.00  0.00    +0.000 A 
ATOM     11  C   UNL     1       6.311   5.941  18.813  0.00  0.00    +0.000 A 
ATOM     12  N   UNL     1       5.315   5.157  18.258  0.00  0.00    +0.000 N 
ATOM     13  C   UNL     1       3.974   4.906  18.466  0.00  0.00    +0.000 A 
ENDBRANCH   1  13
BRANCH   3  14
ATOM     14  N   UNL     1       2.118   7.556  20.278  0.00  0.00    +0.000 N 
ATOM     15  C   UNL     1       1.464   8.715  19.899  0.00  0.00    +0.000 C 
ATOM     16  O   UNL     1       1.518   9.160  18.755  0.00  0.00    +0.000 OA
ATOM     17  H   UNL     1       1.948   7.065  21.153  0.00  0.00    +0.000 HD
BRANCH  15  18
ATOM     18  C   UNL     1       0.656   9.389  20.949  0.00  0.00    +0.000 A 
ATOM     19  C   UNL     1      -0.164  10.486  20.652  0.00  0.00    +0.000 A 
ATOM     20  C   UNL     1      -0.899  11.106  21.666  0.00  0.00    +0.000 A 
ATOM     21  C   UNL     1      -0.822  10.631  22.975  0.00  0.00    +0.000 A 
ATOM     22  C   UNL     1      -0.027   9.524  23.272  0.00  0.00    +0.000 A 
ATOM     23  C   UNL     1       0.706   8.899  22.260  0.00  0.00    +0.000 A 
ENDBRANCH  15  18
ENDBRANCH   3  14
TORSDOF 3
ENDMDL
MODEL 5
REMARK VINA RESULT:      -7.1      5.392      7.369
REMARK  Name = 
REMARK  4 active torsions:
REMARK  status: ('A' for Active; 'I' for Inactive)
REMARK    1  A    between atoms: C_1  and  C_2
REMARK    2  A    between atoms: C_9  and  C_10
REMARK    3  A    between atoms: N_12  and  N_13
REMARK    4  A    between atoms: C_14  and  C_16
REMARK                            x       y       z     vdW  Elec       q    Type
REMARK                         _______ _______ _______ _____ _____    ______ ____
ROOT
ATOM      1  C   UNL     1       2.149   5.532  19.841  0.00  0.00    +0.000 C 
ATOM      2  O   UNL     1       1.119   5.119  20.379  0.00  0.00    +0.000 OA
ATOM      3  N   UNL     1       2.546   6.844  20.015  0.00  0.00    +0.000 N 
ATOM      4  H   UNL     1       3.383   7.258  19.619  0.00  0.00    +0.000 HD
ENDROOT
BRANCH   1  13
ATOM      5  C   UNL     1       2.693   2.210  19.803  0.00  0.00    +0.000 C 
ATOM      6  C   UNL     1       3.238   3.316  18.975  0.00  0.00    +0.000 A 
ATOM      7  N   UNL     1       4.144   2.979  17.982  0.00  0.00    +0.000 NA
ATOM      8  C   UNL     1       4.444   4.122  17.445  0.00  0.00    +0.000 A 
ATOM      9  S   UNL     1       5.499   4.609  16.156  0.00  0.00    +0.000 S 
ATOM     10  C   UNL     1       5.019   6.285  16.448  0.00  0.00    +0.000 A 
ATOM     11  C   UNL     1       4.128   6.407  17.449  0.00  0.00    +0.000 A 
ATOM     12  N   UNL     1       3.806   5.183  18.009  0.00  0.00    +0.000 N 
ATOM     13  C   UNL     1       2.996   4.698  19.015  0.00  0.00    +0.000 A 
ENDBRANCH   1  13
BRANCH   3  14
ATOM     14  N   UNL     1       1.804   7.694  20.847  0.00  0.00    +0.000 N 
ATOM     15  C   UNL     1       1.259   8.833  20.280  0.00  0.00    +0.000 C 
ATOM     16  O   UNL     1       1.430   9.130  19.100  0.00  0.00    +0.000 OA
ATOM     17  H   UNL     1       1.535   7.325  21.756  0.00  0.00    +0.000 HD
BRANCH  15  18
ATOM     18  C   UNL     1       0.420   9.677  21.172  0.00  0.00    +0.000 A 
ATOM     19  C   UNL     1      -0.068  10.923  20.756  0.00  0.00    +0.000 A 
ATOM     20  C   UNL     1      -0.842  11.696  21.625  0.00  0.00    +0.000 A 
ATOM     21  C   UNL     1      -1.135  11.228  22.905  0.00  0.00    +0.000 A 
ATOM     22  C   UNL     1      -0.673   9.977  23.316  0.00  0.00    +0.000 A 
ATOM     23  C   UNL     1       0.097   9.198  22.448  0.00  0.00    +0.000 A 
ENDBRANCH  15  18
ENDBRANCH   3  14
TORSDOF 3
ENDMDL
MODEL 6
REMARK VINA RESULT:      -7.1      5.491      7.469
REMARK  Name = 
REMARK  4 active torsions:
REMARK  status: ('A' for Active; 'I' for Inactive)
REMARK    1  A    between atoms: C_1  and  C_2
REMARK    2  A    between atoms: C_9  and  C_10
REMARK    3  A    between atoms: N_12  and  N_13
REMARK    4  A    between atoms: C_14  and  C_16
REMARK                            x       y       z     vdW  Elec       q    Type
REMARK                         _______ _______ _______ _____ _____    ______ ____
ROOT
ATOM      1  C   UNL     1       2.097   5.522  19.964  0.00  0.00    +0.000 C 
ATOM      2  O   UNL     1       1.018   5.147  20.428  0.00  0.00    +0.000 OA
ATOM      3  N   UNL     1       2.537   6.814  20.184  0.00  0.00    +0.000 N 
ATOM      4  H   UNL     1       3.415   7.196  19.850  0.00  0.00    +0.000 HD
ENDROOT
BRANCH   1  13
ATOM      5  C   UNL     1       2.759   2.226  20.144  0.00  0.00    +0.000 C 
ATOM      6  C   UNL     1       3.252   3.290  19.233  0.00  0.00    +0.000 A 
ATOM      7  N   UNL     1       4.155   2.917  18.251  0.00  0.00    +0.000 NA
ATOM      8  C   UNL     1       4.407   4.030  17.632  0.00  0.00    +0.000 A 
ATOM      9  S   UNL     1       5.425   4.464  16.296  0.00  0.00    +0.000 S 
ATOM     10  C   UNL     1       4.890   6.139  16.481  0.00  0.00    +0.000 A 
ATOM     11  C   UNL     1       4.010   6.298  17.486  0.00  0.00    +0.000 A 
ATOM     12  N   UNL     1       3.740   5.106  18.133  0.00  0.00    +0.000 N 
ATOM     13  C   UNL     1       2.961   4.663  19.183  0.00  0.00    +0.000 A 
ENDBRANCH   1  13
BRANCH   3  14
ATOM     14  N   UNL     1       1.777   7.685  20.978  0.00  0.00    +0.000 N 
ATOM     15  C   UNL     1       1.243   8.807  20.371  0.00  0.00    +0.000 C 
ATOM     16  O   UNL     1       1.438   9.074  19.187  0.00  0.00    +0.000 OA
ATOM     17  H   UNL     1       1.490   7.339  21.891  0.00  0.00    +0.000 HD
BRANCH  15  18
ATOM     18  C   UNL     1       0.385   9.673  21.223  0.00  0.00    +0.000 A 
ATOM     19  C   UNL     1       0.022   9.294  22.522  0.00  0.00    +0.000 A 
ATOM     20  C   UNL     1      -0.799  10.125  23.289  0.00  0.00    +0.000 A 
ATOM     21  C   UNL     1      -1.253  11.335  22.766  0.00  0.00    +0.000 A 
ATOM     22  C   UNL     1      -0.873  11.730  21.483  0.00  0.00    +0.000 A 
ATOM     23  C   UNL     1      -0.049  10.904  20.714  0.00  0.00    +0.000 A 
ENDBRANCH  15  18
ENDBRANCH   3  14
TORSDOF 3
ENDMDL
MODEL 7
REMARK VINA RESULT:      -7.0      5.588      7.203
REMARK  Name = 
REMARK  4 active torsions:
REMARK  status: ('A' for Active; 'I' for Inactive)
REMARK    1  A    between atoms: C_1  and  C_2
REMARK    2  A    between atoms: C_9  and  C_10
REMARK    3  A    between atoms: N_12  and  N_13
REMARK    4  A    between atoms: C_14  and  C_16
REMARK                            x       y       z     vdW  Elec       q    Type
REMARK                         _______ _______ _______ _____ _____    ______ ____
ROOT
ATOM      1  C   UNL     1       3.014   4.227  17.752  0.00  0.00    +0.000 C 
ATOM      2  O   UNL     1       2.345   3.494  17.020  0.00  0.00    +0.000 OA
ATOM      3  N   UNL     1       4.294   4.595  17.384  0.00  0.00    +0.000 N 
ATOM      4  H   UNL     1       4.904   5.202  17.920  0.00  0.00    +0.000 HD
ENDROOT
BRANCH   1  13
ATOM      5  C   UNL     1       2.227   2.720  20.658  0.00  0.00    +0.000 C 
ATOM      6  C   UNL     1       2.192   4.144  20.235  0.00  0.00    +0.000 A 
ATOM      7  N   UNL     1       1.765   5.073  21.169  0.00  0.00    +0.000 NA
ATOM      8  C   UNL     1       1.830   6.200  20.528  0.00  0.00    +0.000 A 
ATOM      9  S   UNL     1       1.473   7.846  20.943  0.00  0.00    +0.000 S 
ATOM     10  C   UNL     1       1.939   8.320  19.304  0.00  0.00    +0.000 A 
ATOM     11  C   UNL     1       2.328   7.276  18.549  0.00  0.00    +0.000 A 
ATOM     12  N   UNL     1       2.265   6.082  19.244  0.00  0.00    +0.000 N 
ATOM     13  C   UNL     1       2.523   4.746  19.011  0.00  0.00    +0.000 A 
ENDBRANCH   1  13
BRANCH   3  14
ATOM     14  N   UNL     1       4.815   4.174  16.151  0.00  0.00    +0.000 N 
ATOM     15  C   UNL     1       5.408   5.128  15.345  0.00  0.00    +0.000 C 
ATOM     16  O   UNL     1       5.464   6.315  15.658  0.00  0.00    +0.000 OA
ATOM     17  H   UNL     1       4.913   3.170  16.015  0.00  0.00    +0.000 HD
BRANCH  15  18
ATOM     18  C   UNL     1       6.013   4.638  14.078  0.00  0.00    +0.000 A 
ATOM     19  C   UNL     1       7.238   5.131  13.611  0.00  0.00    +0.000 A 
ATOM     20  C   UNL     1       7.769   4.659  12.408  0.00  0.00    +0.000 A 
ATOM     21  C   UNL     1       7.084   3.692  11.672  0.00  0.00    +0.000 A 
ATOM     22  C   UNL     1       5.876   3.179  12.145  0.00  0.00    +0.000 A 
ATOM     23  C   UNL     1       5.344   3.645  13.350  0.00  0.00    +0.000 A 
ENDBRANCH  15  18
ENDBRANCH   3  14
TORSDOF 3
ENDMDL
MODEL 8
REMARK VINA RESULT:      -6.9      5.589      7.226
REMARK  Name = 
REMARK  4 active torsions:
REMARK  status: ('A' for Active; 'I' for Inactive)
REMARK    1  A    between atoms: C_1  and  C_2
REMARK    2  A    between atoms: C_9  and  C_10
REMARK    3  A    between atoms: N_12  and  N_13
REMARK    4  A    between atoms: C_14  and  C_16
REMARK                            x       y       z     vdW  Elec       q    Type
REMARK                         _______ _______ _______ _____ _____    ______ ____
ROOT
ATOM      1  C   UNL     1       2.973   4.289  17.762  0.00  0.00    +0.000 C 
ATOM      2  O   UNL     1       2.278   3.602  17.011  0.00  0.00    +0.000 OA
ATOM      3  N   UNL     1       4.275   4.598  17.415  0.00  0.00    +0.000 N 
ATOM      4  H   UNL     1       4.907   5.166  17.968  0.00  0.00    +0.000 HD
ENDROOT
BRANCH   1  13
ATOM      5  C   UNL     1       2.207   2.790  20.678  0.00  0.00    +0.000 C 
ATOM      6  C   UNL     1       2.171   4.212  20.252  0.00  0.00    +0.000 A 
ATOM      7  N   UNL     1       1.753   5.145  21.188  0.00  0.00    +0.000 NA
ATOM      8  C   UNL     1       1.815   6.270  20.543  0.00  0.00    +0.000 A 
ATOM      9  S   UNL     1       1.463   7.918  20.957  0.00  0.00    +0.000 S 
ATOM     10  C   UNL     1       1.917   8.387  19.313  0.00  0.00    +0.000 A 
ATOM     11  C   UNL     1       2.298   7.341  18.558  0.00  0.00    +0.000 A 
ATOM     12  N   UNL     1       2.239   6.148  19.256  0.00  0.00    +0.000 N 
ATOM     13  C   UNL     1       2.493   4.811  19.024  0.00  0.00    +0.000 A 
ENDBRANCH   1  13
BRANCH   3  14
ATOM     14  N   UNL     1       4.789   4.171  16.182  0.00  0.00    +0.000 N 
ATOM     15  C   UNL     1       5.369   5.124  15.364  0.00  0.00    +0.000 C 
ATOM     16  O   UNL     1       5.418   6.314  15.667  0.00  0.00    +0.000 OA
ATOM     17  H   UNL     1       4.894   3.167  16.053  0.00  0.00    +0.000 HD
BRANCH  15  18
ATOM     18  C   UNL     1       5.967   4.628  14.096  0.00  0.00    +0.000 A 
ATOM     19  C   UNL     1       5.331   3.652  13.317  0.00  0.00    +0.000 A 
ATOM     20  C   UNL     1       5.929   3.198  12.139  0.00  0.00    +0.000 A 
ATOM     21  C   UNL     1       7.157   3.718  11.733  0.00  0.00    +0.000 A 
ATOM     22  C   UNL     1       7.783   4.709  12.490  0.00  0.00    +0.000 A 
ATOM     23  C   UNL     1       7.186   5.169  13.667  0.00  0.00    +0.000 A 
ENDBRANCH  15  18
ENDBRANCH   3  14
TORSDOF 3
ENDMDL
MODEL 9
REMARK VINA RESULT:      -6.9      5.034      7.335
REMARK  Name = 
REMARK  4 active torsions:
REMARK  status: ('A' for Active; 'I' for Inactive)
REMARK    1  A    between atoms: C_1  and  C_2
REMARK    2  A    between atoms: C_9  and  C_10
REMARK    3  A    between atoms: N_12  and  N_13
REMARK    4  A    between atoms: C_14  and  C_16
REMARK                            x       y       z     vdW  Elec       q    Type
REMARK                         _______ _______ _______ _____ _____    ______ ____
ROOT
ATOM      1  C   UNL     1       2.942   7.287  18.082  0.00  0.00    +0.000 C 
ATOM      2  O   UNL     1       2.735   8.224  17.306  0.00  0.00    +0.000 OA
ATOM      3  N   UNL     1       2.492   7.354  19.387  0.00  0.00    +0.000 N 
ATOM      4  H   UNL     1       2.608   6.626  20.082  0.00  0.00    +0.000 HD
ENDROOT
BRANCH   1  13
ATOM      5  C   UNL     1       1.920   4.101  17.708  0.00  0.00    +0.000 C 
ATOM      6  C   UNL     1       3.245   4.748  17.528  0.00  0.00    +0.000 A 
ATOM      7  N   UNL     1       4.297   3.939  17.131  0.00  0.00    +0.000 NA
ATOM      8  C   UNL     1       5.302   4.758  17.067  0.00  0.00    +0.000 A 
ATOM      9  S   UNL     1       6.980   4.580  16.662  0.00  0.00    +0.000 S 
ATOM     10  C   UNL     1       7.197   6.308  16.966  0.00  0.00    +0.000 A 
ATOM     11  C   UNL     1       6.058   6.921  17.337  0.00  0.00    +0.000 A 
ATOM     12  N   UNL     1       4.991   6.043  17.393  0.00  0.00    +0.000 N 
ATOM     13  C   UNL     1       3.645   6.083  17.695  0.00  0.00    +0.000 A 
ENDBRANCH   1  13
BRANCH   3  14
ATOM     14  N   UNL     1       1.755   8.467  19.816  0.00  0.00    +0.000 N 
ATOM     15  C   UNL     1       1.025   8.344  20.984  0.00  0.00    +0.000 C 
ATOM     16  O   UNL     1       0.980   7.298  21.627  0.00  0.00    +0.000 OA
ATOM     17  H   UNL     1       1.962   9.356  19.364  0.00  0.00    +0.000 HD
BRANCH  15  18
ATOM     18  C   UNL     1       0.311   9.563  21.449  0.00  0.00    +0.000 A 
ATOM     19  C   UNL     1       0.308  10.743  20.694  0.00  0.00    +0.000 A 
ATOM     20  C   UNL     1      -0.359  11.875  21.168  0.00  0.00    +0.000 A 
ATOM     21  C   UNL     1      -1.030  11.831  22.390  0.00  0.00    +0.000 A 
ATOM     22  C   UNL     1      -1.052  10.651  23.134  0.00  0.00    +0.000 A 
ATOM     23  C   UNL     1      -0.389   9.515  22.661  0.00  0.00    +0.000 A 
ENDBRANCH  15  18
ENDBRANCH   3  14
TORSDOF 3
ENDMDL
