MODEL 1
REMARK VINA RESULT:      -7.9      0.000      0.000
REMARK  Name = 
REMARK  3 active torsions:
REMARK  status: ('A' for Active; 'I' for Inactive)
REMARK    1  A    between atoms: C_1  and  N_2
REMARK    2  A    between atoms: C_7  and  C_9
REMARK    3  A    between atoms: N_13  and  C_14
REMARK                            x       y       z     vdW  Elec       q    Type
REMARK                         _______ _______ _______ _____ _____    ______ ____
ROOT
ATOM      1  C   UNL     1       3.929   4.034  19.429  0.00  0.00    +0.000 A 
ATOM      2  C   UNL     1       3.489   2.804  19.891  0.00  0.00    +0.000 A 
ATOM      3  C   UNL     1       2.154   3.001  20.266  0.00  0.00    +0.000 A 
ATOM      4  N   UNL     1       1.761   4.260  20.097  0.00  0.00    +0.000 NA
ATOM      5  N   UNL     1       2.829   4.887  19.541  0.00  0.00    +0.000 N 
ENDROOT
BRANCH   1  12
ATOM      6  C   UNL     1       6.073   3.535  13.599  0.00  0.00    +0.000 C 
ATOM      7  N   UNL     1       5.916   4.711  14.451  0.00  0.00    +0.000 NA
ATOM      8  C   UNL     1       7.213   5.127  14.985  0.00  0.00    +0.000 C 
ATOM      9  C   UNL     1       7.196   5.881  16.315  0.00  0.00    +0.000 C 
ATOM     10  C   UNL     1       7.088   4.932  17.511  0.00  0.00    +0.000 C 
ATOM     11  N   UNL     1       5.744   4.400  17.766  0.00  0.00    +0.000 N 
ATOM     12  C   UNL     1       5.253   4.497  19.086  0.00  0.00    +0.000 C 
ATOM     13  O   UNL     1       5.960   5.009  19.953  0.00  0.00    +0.000 OA
ATOM     14  C   UNL     1       5.096   3.693  16.656  0.00  0.00    +0.000 C 
ATOM     15  C   UNL     1       4.834   4.585  15.435  0.00  0.00    +0.000 C 
ENDBRANCH   1  12
BRANCH   5  16
ATOM     16  C   UNL     1       2.640   6.187  19.064  0.00  0.00    +0.000 A 
ATOM     17  C   UNL     1       3.076   6.661  17.839  0.00  0.00    +0.000 A 
ATOM     18  C   UNL     1       2.707   8.017  17.733  0.00  0.00    +0.000 A 
ATOM     19  C   UNL     1       2.039   8.347  18.889  0.00  0.00    +0.000 A 
ATOM     20  C   UNL     1       1.449   9.562  19.341  0.00  0.00    +0.000 A 
ATOM     21  C   UNL     1       0.864   9.609  20.550  0.00  0.00    +0.000 A 
ATOM     22  C   UNL     1       0.840   8.449  21.421  0.00  0.00    +0.000 A 
ATOM     23  C   UNL     1       1.396   7.299  21.000  0.00  0.00    +0.000 A 
ATOM     24  N   UNL     1       1.984   7.222  19.725  0.00  0.00    +0.000 N 
ENDBRANCH   5  16
TORSDOF 2
ENDMDL
MODEL 2
REMARK VINA RESULT:      -7.2      1.104      2.043
REMARK  Name = 
REMARK  3 active torsions:
REMARK  status: ('A' for Active; 'I' for Inactive)
REMARK    1  A    between atoms: C_1  and  N_2
REMARK    2  A    between atoms: C_7  and  C_9
REMARK    3  A    between atoms: N_13  and  C_14
REMARK                            x       y       z     vdW  Elec       q    Type
REMARK                         _______ _______ _______ _____ _____    ______ ____
ROOT
ATOM      1  C   UNL     1       3.643   3.189  18.859  0.00  0.00    +0.000 A 
ATOM      2  C   UNL     1       3.309   1.908  18.452  0.00  0.00    +0.000 A 
ATOM      3  C   UNL     1       1.954   1.754  18.771  0.00  0.00    +0.000 A 
ATOM      4  N   UNL     1       1.450   2.831  19.368  0.00  0.00    +0.000 NA
ATOM      5  N   UNL     1       2.466   3.730  19.383  0.00  0.00    +0.000 N 
ENDROOT
BRANCH   1  12
ATOM      6  C   UNL     1       6.905   4.641  13.752  0.00  0.00    +0.000 C 
ATOM      7  N   UNL     1       6.418   5.491  14.835  0.00  0.00    +0.000 NA
ATOM      8  C   UNL     1       7.515   5.837  15.740  0.00  0.00    +0.000 C 
ATOM      9  C   UNL     1       7.135   6.154  17.187  0.00  0.00    +0.000 C 
ATOM     10  C   UNL     1       6.942   4.886  18.021  0.00  0.00    +0.000 C 
ATOM     11  N   UNL     1       5.667   4.189  17.811  0.00  0.00    +0.000 N 
ATOM     12  C   UNL     1       4.925   3.845  18.962  0.00  0.00    +0.000 C 
ATOM     13  O   UNL     1       5.371   4.133  20.072  0.00  0.00    +0.000 OA
ATOM     14  C   UNL     1       5.352   3.793  16.434  0.00  0.00    +0.000 C 
ATOM     15  C   UNL     1       5.199   4.984  15.478  0.00  0.00    +0.000 C 
ENDBRANCH   1  12
BRANCH   5  16
ATOM     16  C   UNL     1       2.168   5.038  19.775  0.00  0.00    +0.000 A 
ATOM     17  C   UNL     1       1.626   5.405  20.994  0.00  0.00    +0.000 A 
ATOM     18  C   UNL     1       1.462   6.804  21.002  0.00  0.00    +0.000 A 
ATOM     19  C   UNL     1       1.917   7.272  19.792  0.00  0.00    +0.000 A 
ATOM     20  C   UNL     1       1.992   8.583  19.238  0.00  0.00    +0.000 A 
ATOM     21  C   UNL     1       2.476   8.755  17.997  0.00  0.00    +0.000 A 
ATOM     22  C   UNL     1       2.906   7.627  17.193  0.00  0.00    +0.000 A 
ATOM     23  C   UNL     1       2.837   6.387  17.709  0.00  0.00    +0.000 A 
ATOM     24  N   UNL     1       2.364   6.191  19.019  0.00  0.00    +0.000 N 
ENDBRANCH   5  16
TORSDOF 2
ENDMDL
MODEL 3
REMARK VINA RESULT:      -6.9      4.613      8.368
REMARK  Name = 
REMARK  3 active torsions:
REMARK  status: ('A' for Active; 'I' for Inactive)
REMARK    1  A    between atoms: C_1  and  N_2
REMARK    2  A    between atoms: C_7  and  C_9
REMARK    3  A    between atoms: N_13  and  C_14
REMARK                            x       y       z     vdW  Elec       q    Type
REMARK                         _______ _______ _______ _____ _____    ______ ____
ROOT
ATOM      1  C   UNL     1      -0.070  12.380  19.655  0.00  0.00    +0.000 A 
ATOM      2  C   UNL     1      -0.960  13.066  18.846  0.00  0.00    +0.000 A 
ATOM      3  C   UNL     1      -1.491  12.107  17.974  0.00  0.00    +0.000 A 
ATOM      4  N   UNL     1      -0.968  10.900  18.172  0.00  0.00    +0.000 NA
ATOM      5  N   UNL     1      -0.132  11.051  19.230  0.00  0.00    +0.000 N 
ENDROOT
BRANCH   1  12
ATOM      6  C   UNL     1       5.402  14.667  17.741  0.00  0.00    +0.000 C 
ATOM      7  N   UNL     1       4.354  15.279  18.554  0.00  0.00    +0.000 NA
ATOM      8  C   UNL     1       4.746  15.286  19.964  0.00  0.00    +0.000 C 
ATOM      9  C   UNL     1       3.612  15.285  20.990  0.00  0.00    +0.000 C 
ATOM     10  C   UNL     1       3.052  13.882  21.226  0.00  0.00    +0.000 C 
ATOM     11  N   UNL     1       2.143  13.389  20.184  0.00  0.00    +0.000 N 
ATOM     12  C   UNL     1       0.906  12.857  20.607  0.00  0.00    +0.000 C 
ATOM     13  O   UNL     1       0.646  12.825  21.809  0.00  0.00    +0.000 OA
ATOM     14  C   UNL     1       2.666  13.367  18.813  0.00  0.00    +0.000 C 
ATOM     15  C   UNL     1       3.010  14.761  18.270  0.00  0.00    +0.000 C 
ENDBRANCH   1  12
BRANCH   5  16
ATOM     16  C   UNL     1       0.412   9.894  19.796  0.00  0.00    +0.000 A 
ATOM     17  C   UNL     1       0.150   9.427  21.072  0.00  0.00    +0.000 A 
ATOM     18  C   UNL     1       0.895   8.248  21.273  0.00  0.00    +0.000 A 
ATOM     19  C   UNL     1       1.591   8.006  20.112  0.00  0.00    +0.000 A 
ATOM     20  C   UNL     1       2.499   6.975  19.737  0.00  0.00    +0.000 A 
ATOM     21  C   UNL     1       3.061   6.992  18.517  0.00  0.00    +0.000 A 
ATOM     22  C   UNL     1       2.778   8.057  17.573  0.00  0.00    +0.000 A 
ATOM     23  C   UNL     1       1.922   9.034  17.921  0.00  0.00    +0.000 A 
ATOM     24  N   UNL     1       1.299   9.014  19.182  0.00  0.00    +0.000 N 
ENDBRANCH   5  16
TORSDOF 2
ENDMDL
MODEL 4
REMARK VINA RESULT:      -6.9      5.122      9.884
REMARK  Name = 
REMARK  3 active torsions:
REMARK  status: ('A' for Active; 'I' for Inactive)
REMARK    1  A    between atoms: C_1  and  N_2
REMARK    2  A    between atoms: C_7  and  C_9
REMARK    3  A    between atoms: N_13  and  C_14
REMARK                            x       y       z     vdW  Elec       q    Type
REMARK                         _______ _______ _______ _____ _____    ______ ____
ROOT
ATOM      1  C   UNL     1      -0.672  12.181  18.528  0.00  0.00    +0.000 A 
ATOM      2  C   UNL     1      -0.434  13.523  18.279  0.00  0.00    +0.000 A 
ATOM      3  C   UNL     1       0.587  13.893  19.164  0.00  0.00    +0.000 A 
ATOM      4  N   UNL     1       0.962  12.888  19.950  0.00  0.00    +0.000 NA
ATOM      5  N   UNL     1       0.228  11.826  19.535  0.00  0.00    +0.000 N 
ENDROOT
BRANCH   1  12
ATOM      6  C   UNL     1      -6.333  12.344  21.129  0.00  0.00    +0.000 C 
ATOM      7  N   UNL     1      -5.925  12.536  19.740  0.00  0.00    +0.000 NA
ATOM      8  C   UNL     1      -6.226  11.340  18.953  0.00  0.00    +0.000 C 
ATOM      9  C   UNL     1      -5.358  11.096  17.719  0.00  0.00    +0.000 C 
ATOM     10  C   UNL     1      -4.023  10.438  18.077  0.00  0.00    +0.000 C 
ATOM     11  N   UNL     1      -3.013  11.342  18.641  0.00  0.00    +0.000 N 
ATOM     12  C   UNL     1      -1.724  11.306  18.066  0.00  0.00    +0.000 C 
ATOM     13  O   UNL     1      -1.502  10.528  17.139  0.00  0.00    +0.000 OA
ATOM     14  C   UNL     1      -3.401  12.097  19.837  0.00  0.00    +0.000 C 
ATOM     15  C   UNL     1      -4.565  13.068  19.594  0.00  0.00    +0.000 C 
ENDBRANCH   1  12
BRANCH   5  16
ATOM     16  C   UNL     1       0.557  10.569  20.052  0.00  0.00    +0.000 A 
ATOM     17  C   UNL     1       0.242  10.119  21.322  0.00  0.00    +0.000 A 
ATOM     18  C   UNL     1       0.754   8.815  21.469  0.00  0.00    +0.000 A 
ATOM     19  C   UNL     1       1.364   8.483  20.281  0.00  0.00    +0.000 A 
ATOM     20  C   UNL     1       2.051   7.312  19.851  0.00  0.00    +0.000 A 
ATOM     21  C   UNL     1       2.577   7.263  18.615  0.00  0.00    +0.000 A 
ATOM     22  C   UNL     1       2.478   8.392  17.710  0.00  0.00    +0.000 A 
ATOM     23  C   UNL     1       1.831   9.501  18.110  0.00  0.00    +0.000 A 
ATOM     24  N   UNL     1       1.247   9.558  19.388  0.00  0.00    +0.000 N 
ENDBRANCH   5  16
TORSDOF 2
ENDMDL
MODEL 5
REMARK VINA RESULT:      -6.8      7.893     12.240
REMARK  Name = 
REMARK  3 active torsions:
REMARK  status: ('A' for Active; 'I' for Inactive)
REMARK    1  A    between atoms: C_1  and  N_2
REMARK    2  A    between atoms: C_7  and  C_9
REMARK    3  A    between atoms: N_13  and  C_14
REMARK                            x       y       z     vdW  Elec       q    Type
REMARK                         _______ _______ _______ _____ _____    ______ ____
ROOT
ATOM      1  C   UNL     1      -3.074  13.860  23.967  0.00  0.00    +0.000 A 
ATOM      2  C   UNL     1      -2.830  14.811  24.945  0.00  0.00    +0.000 A 
ATOM      3  C   UNL     1      -1.460  15.090  24.862  0.00  0.00    +0.000 A 
ATOM      4  N   UNL     1      -0.850  14.361  23.932  0.00  0.00    +0.000 NA
ATOM      5  N   UNL     1      -1.841  13.640  23.349  0.00  0.00    +0.000 N 
ENDROOT
BRANCH   1  12
ATOM      6  C   UNL     1      -7.247  15.637  19.694  0.00  0.00    +0.000 C 
ATOM      7  N   UNL     1      -6.466  14.407  19.798  0.00  0.00    +0.000 NA
ATOM      8  C   UNL     1      -7.306  13.314  20.289  0.00  0.00    +0.000 C 
ATOM      9  C   UNL     1      -6.593  12.186  21.035  0.00  0.00    +0.000 C 
ATOM     10  C   UNL     1      -6.326  12.544  22.498  0.00  0.00    +0.000 C 
ATOM     11  N   UNL     1      -5.190  13.445  22.724  0.00  0.00    +0.000 N 
ATOM     12  C   UNL     1      -4.244  13.058  23.698  0.00  0.00    +0.000 C 
ATOM     13  O   UNL     1      -4.411  12.005  24.311  0.00  0.00    +0.000 OA
ATOM     14  C   UNL     1      -5.218  14.729  22.014  0.00  0.00    +0.000 C 
ATOM     15  C   UNL     1      -5.182  14.582  20.487  0.00  0.00    +0.000 C 
ENDBRANCH   1  12
BRANCH   5  16
ATOM     16  C   UNL     1      -1.524  12.923  22.191  0.00  0.00    +0.000 A 
ATOM     17  C   UNL     1      -1.615  13.410  20.898  0.00  0.00    +0.000 A 
ATOM     18  C   UNL     1      -1.224  12.386  20.012  0.00  0.00    +0.000 A 
ATOM     19  C   UNL     1      -0.889  11.294  20.778  0.00  0.00    +0.000 A 
ATOM     20  C   UNL     1      -0.435   9.987  20.437  0.00  0.00    +0.000 A 
ATOM     21  C   UNL     1      -0.195   9.090  21.407  0.00  0.00    +0.000 A 
ATOM     22  C   UNL     1      -0.410   9.416  22.804  0.00  0.00    +0.000 A 
ATOM     23  C   UNL     1      -0.839  10.648  23.133  0.00  0.00    +0.000 A 
ATOM     24  N   UNL     1      -1.064  11.610  22.133  0.00  0.00    +0.000 N 
ENDBRANCH   5  16
TORSDOF 2
ENDMDL
MODEL 6
REMARK VINA RESULT:      -6.7      1.920      6.568
REMARK  Name = 
REMARK  3 active torsions:
REMARK  status: ('A' for Active; 'I' for Inactive)
REMARK    1  A    between atoms: C_1  and  N_2
REMARK    2  A    between atoms: C_7  and  C_9
REMARK    3  A    between atoms: N_13  and  C_14
REMARK                            x       y       z     vdW  Elec       q    Type
REMARK                         _______ _______ _______ _____ _____    ______ ____
ROOT
ATOM      1  C   UNL     1       2.389   6.554  19.520  0.00  0.00    +0.000 A 
ATOM      2  C   UNL     1       1.686   6.402  20.704  0.00  0.00    +0.000 A 
ATOM      3  C   UNL     1       1.799   5.046  21.035  0.00  0.00    +0.000 A 
ATOM      4  N   UNL     1       2.488   4.360  20.127  0.00  0.00    +0.000 NA
ATOM      5  N   UNL     1       2.891   5.286  19.221  0.00  0.00    +0.000 N 
ENDROOT
BRANCH   1  12
ATOM      6  C   UNL     1      -1.071  11.663  20.394  0.00  0.00    +0.000 C 
ATOM      7  N   UNL     1       0.378  11.509  20.291  0.00  0.00    +0.000 NA
ATOM      8  C   UNL     1       0.841  11.943  18.972  0.00  0.00    +0.000 C 
ATOM      9  C   UNL     1       2.132  11.307  18.457  0.00  0.00    +0.000 C 
ATOM     10  C   UNL     1       1.887   9.930  17.839  0.00  0.00    +0.000 C 
ATOM     11  N   UNL     1       1.702   8.837  18.802  0.00  0.00    +0.000 N 
ATOM     12  C   UNL     1       2.473   7.670  18.606  0.00  0.00    +0.000 C 
ATOM     13  O   UNL     1       3.247   7.615  17.652  0.00  0.00    +0.000 OA
ATOM     14  C   UNL     1       0.635   9.007  19.793  0.00  0.00    +0.000 C 
ATOM     15  C   UNL     1       0.864  10.197  20.736  0.00  0.00    +0.000 C 
ENDBRANCH   1  12
BRANCH   5  16
ATOM     16  C   UNL     1       3.812   4.883  18.249  0.00  0.00    +0.000 A 
ATOM     17  C   UNL     1       3.493   4.278  17.046  0.00  0.00    +0.000 A 
ATOM     18  C   UNL     1       4.691   4.015  16.353  0.00  0.00    +0.000 A 
ATOM     19  C   UNL     1       5.722   4.475  17.137  0.00  0.00    +0.000 A 
ATOM     20  C   UNL     1       7.136   4.476  16.958  0.00  0.00    +0.000 A 
ATOM     21  C   UNL     1       7.929   4.986  17.914  0.00  0.00    +0.000 A 
ATOM     22  C   UNL     1       7.376   5.521  19.145  0.00  0.00    +0.000 A 
ATOM     23  C   UNL     1       6.043   5.523  19.320  0.00  0.00    +0.000 A 
ATOM     24  N   UNL     1       5.195   5.023  18.316  0.00  0.00    +0.000 N 
ENDBRANCH   5  16
TORSDOF 2
ENDMDL
MODEL 7
REMARK VINA RESULT:      -6.7      1.633      6.559
REMARK  Name = 
REMARK  3 active torsions:
REMARK  status: ('A' for Active; 'I' for Inactive)
REMARK    1  A    between atoms: C_1  and  N_2
REMARK    2  A    between atoms: C_7  and  C_9
REMARK    3  A    between atoms: N_13  and  C_14
REMARK                            x       y       z     vdW  Elec       q    Type
REMARK                         _______ _______ _______ _____ _____    ______ ____
ROOT
ATOM      1  C   UNL     1       2.877   5.928  19.368  0.00  0.00    +0.000 A 
ATOM      2  C   UNL     1       1.974   5.385  20.268  0.00  0.00    +0.000 A 
ATOM      3  C   UNL     1       2.540   4.173  20.681  0.00  0.00    +0.000 A 
ATOM      4  N   UNL     1       3.700   3.925  20.078  0.00  0.00    +0.000 NA
ATOM      5  N   UNL     1       3.934   5.017  19.308  0.00  0.00    +0.000 N 
ENDROOT
BRANCH   1  12
ATOM      6  C   UNL     1      -0.651  10.835  20.887  0.00  0.00    +0.000 C 
ATOM      7  N   UNL     1       0.769  10.758  20.556  0.00  0.00    +0.000 NA
ATOM      8  C   UNL     1       0.998  11.236  19.192  0.00  0.00    +0.000 C 
ATOM      9  C   UNL     1       2.223  10.676  18.467  0.00  0.00    +0.000 C 
ATOM     10  C   UNL     1       1.952   9.297  17.863  0.00  0.00    +0.000 C 
ATOM     11  N   UNL     1       1.975   8.182  18.818  0.00  0.00    +0.000 N 
ATOM     12  C   UNL     1       2.762   7.060  18.478  0.00  0.00    +0.000 C 
ATOM     13  O   UNL     1       3.379   7.060  17.414  0.00  0.00    +0.000 OA
ATOM     14  C   UNL     1       1.069   8.281  19.967  0.00  0.00    +0.000 C 
ATOM     15  C   UNL     1       1.383   9.467  20.890  0.00  0.00    +0.000 C 
ENDBRANCH   1  12
BRANCH   5  16
ATOM     16  C   UNL     1       5.191   5.127  18.706  0.00  0.00    +0.000 A 
ATOM     17  C   UNL     1       6.337   5.595  19.324  0.00  0.00    +0.000 A 
ATOM     18  C   UNL     1       7.388   5.566  18.387  0.00  0.00    +0.000 A 
ATOM     19  C   UNL     1       6.871   5.069  17.214  0.00  0.00    +0.000 A 
ATOM     20  C   UNL     1       7.455   4.824  15.937  0.00  0.00    +0.000 A 
ATOM     21  C   UNL     1       6.696   4.340  14.939  0.00  0.00    +0.000 A 
ATOM     22  C   UNL     1       5.281   4.081  15.126  0.00  0.00    +0.000 A 
ATOM     23  C   UNL     1       4.724   4.311  16.329  0.00  0.00    +0.000 A 
ATOM     24  N   UNL     1       5.509   4.786  17.394  0.00  0.00    +0.000 N 
ENDBRANCH   5  16
TORSDOF 2
ENDMDL
MODEL 8
REMARK VINA RESULT:      -6.7      2.333      6.042
REMARK  Name = 
REMARK  3 active torsions:
REMARK  status: ('A' for Active; 'I' for Inactive)
REMARK    1  A    between atoms: C_1  and  N_2
REMARK    2  A    between atoms: C_7  and  C_9
REMARK    3  A    between atoms: N_13  and  C_14
REMARK                            x       y       z     vdW  Elec       q    Type
REMARK                         _______ _______ _______ _____ _____    ______ ____
ROOT
ATOM      1  C   UNL     1       5.249   5.221  16.014  0.00  0.00    +0.000 A 
ATOM      2  C   UNL     1       5.151   4.493  14.839  0.00  0.00    +0.000 A 
ATOM      3  C   UNL     1       6.469   4.175  14.485  0.00  0.00    +0.000 A 
ATOM      4  N   UNL     1       7.357   4.680  15.337  0.00  0.00    +0.000 NA
ATOM      5  N   UNL     1       6.614   5.281  16.300  0.00  0.00    +0.000 N 
ENDROOT
BRANCH   1  12
ATOM      6  C   UNL     1       1.637   2.436  20.261  0.00  0.00    +0.000 C 
ATOM      7  N   UNL     1       2.546   3.571  20.392  0.00  0.00    +0.000 NA
ATOM      8  C   UNL     1       1.791   4.823  20.444  0.00  0.00    +0.000 C 
ATOM      9  C   UNL     1       2.515   6.080  19.961  0.00  0.00    +0.000 C 
ATOM     10  C   UNL     1       2.487   6.209  18.437  0.00  0.00    +0.000 C 
ATOM     11  N   UNL     1       3.441   5.353  17.720  0.00  0.00    +0.000 N 
ATOM     12  C   UNL     1       4.256   5.971  16.747  0.00  0.00    +0.000 C 
ATOM     13  O   UNL     1       4.132   7.177  16.540  0.00  0.00    +0.000 OA
ATOM     14  C   UNL     1       3.358   3.912  17.984  0.00  0.00    +0.000 C 
ATOM     15  C   UNL     1       3.665   3.542  19.442  0.00  0.00    +0.000 C 
ENDBRANCH   1  12
BRANCH   5  16
ATOM     16  C   UNL     1       7.280   5.731  17.445  0.00  0.00    +0.000 A 
ATOM     17  C   UNL     1       7.646   4.941  18.520  0.00  0.00    +0.000 A 
ATOM     18  C   UNL     1       8.280   5.761  19.475  0.00  0.00    +0.000 A 
ATOM     19  C   UNL     1       8.302   7.037  18.962  0.00  0.00    +0.000 A 
ATOM     20  C   UNL     1       8.803   8.268  19.476  0.00  0.00    +0.000 A 
ATOM     21  C   UNL     1       8.673   9.394  18.755  0.00  0.00    +0.000 A 
ATOM     22  C   UNL     1       8.009   9.389  17.465  0.00  0.00    +0.000 A 
ATOM     23  C   UNL     1       7.534   8.231  16.974  0.00  0.00    +0.000 A 
ATOM     24  N   UNL     1       7.690   7.037  17.700  0.00  0.00    +0.000 N 
ENDBRANCH   5  16
TORSDOF 2
ENDMDL
MODEL 9
REMARK VINA RESULT:      -6.6      1.789      6.568
REMARK  Name = 
REMARK  3 active torsions:
REMARK  status: ('A' for Active; 'I' for Inactive)
REMARK    1  A    between atoms: C_1  and  N_2
REMARK    2  A    between atoms: C_7  and  C_9
REMARK    3  A    between atoms: N_13  and  C_14
REMARK                            x       y       z     vdW  Elec       q    Type
REMARK                         _______ _______ _______ _____ _____    ______ ____
ROOT
ATOM      1  C   UNL     1       2.314   5.693  19.956  0.00  0.00    +0.000 A 
ATOM      2  C   UNL     1       1.758   5.277  21.155  0.00  0.00    +0.000 A 
ATOM      3  C   UNL     1       2.122   3.931  21.290  0.00  0.00    +0.000 A 
ATOM      4  N   UNL     1       2.828   3.492  20.251  0.00  0.00    +0.000 NA
ATOM      5  N   UNL     1       2.988   4.578  19.454  0.00  0.00    +0.000 N 
ENDROOT
BRANCH   1  12
ATOM      6  C   UNL     1      -0.546  10.621  22.479  0.00  0.00    +0.000 C 
ATOM      7  N   UNL     1       0.788  10.498  21.898  0.00  0.00    +0.000 NA
ATOM      8  C   UNL     1       0.814  11.089  20.560  0.00  0.00    +0.000 C 
ATOM      9  C   UNL     1       1.854  10.534  19.587  0.00  0.00    +0.000 C 
ATOM     10  C   UNL     1       1.388   9.236  18.926  0.00  0.00    +0.000 C 
ATOM     11  N   UNL     1       1.494   8.035  19.765  0.00  0.00    +0.000 N 
ATOM     12  C   UNL     1       2.130   6.909  19.199  0.00  0.00    +0.000 C 
ATOM     13  O   UNL     1       2.556   6.976  18.047  0.00  0.00    +0.000 OA
ATOM     14  C   UNL     1       0.806   8.075  21.060  0.00  0.00    +0.000 C 
ATOM     15  C   UNL     1       1.356   9.149  22.009  0.00  0.00    +0.000 C 
ENDBRANCH   1  12
BRANCH   5  16
ATOM     16  C   UNL     1       3.870   4.464  18.374  0.00  0.00    +0.000 A 
ATOM     17  C   UNL     1       3.552   3.938  17.134  0.00  0.00    +0.000 A 
ATOM     18  C   UNL     1       4.706   3.984  16.326  0.00  0.00    +0.000 A 
ATOM     19  C   UNL     1       5.707   4.549  17.081  0.00  0.00    +0.000 A 
ATOM     20  C   UNL     1       7.073   4.839  16.799  0.00  0.00    +0.000 A 
ATOM     21  C   UNL     1       7.848   5.389  17.749  0.00  0.00    +0.000 A 
ATOM     22  C   UNL     1       7.328   5.675  19.073  0.00  0.00    +0.000 A 
ATOM     23  C   UNL     1       6.039   5.403  19.346  0.00  0.00    +0.000 A 
ATOM     24  N   UNL     1       5.205   4.858  18.354  0.00  0.00    +0.000 N 
ENDBRANCH   5  16
TORSDOF 2
ENDMDL
