MODEL 1
REMARK VINA RESULT:      -8.6      0.000      0.000
REMARK  Name = 
REMARK  5 active torsions:
REMARK  status: ('A' for Active; 'I' for Inactive)
REMARK    1  A    between atoms: C_2  and  C_3
REMARK    2  A    between atoms: C_3  and  C_20
REMARK    3  A    between atoms: C_4  and  C_5
REMARK    4  A    between atoms: C_6  and  C_7
REMARK    5  A    between atoms: N_22  and  C_23
REMARK                            x       y       z     vdW  Elec       q    Type
REMARK                         _______ _______ _______ _____ _____    ______ ____
ROOT
ATOM      1  C   UNL     1       3.448   5.425  18.064  0.00  0.00    +0.000 A 
ATOM      2  C   UNL     1       4.778   5.088  18.295  0.00  0.00    +0.000 A 
ATOM      3  N   UNL     1       4.765   3.758  18.668  0.00  0.00    +0.000 N 
ATOM      4  C   UNL     1       3.485   3.246  18.673  0.00  0.00    +0.000 A 
ATOM      5  C   UNL     1       3.027   1.968  19.014  0.00  0.00    +0.000 A 
ATOM      6  C   UNL     1       1.653   1.724  18.915  0.00  0.00    +0.000 A 
ATOM      7  C   UNL     1       0.779   2.721  18.489  0.00  0.00    +0.000 A 
ATOM      8  C   UNL     1       1.255   3.997  18.162  0.00  0.00    +0.000 A 
ATOM      9  C   UNL     1       2.636   4.268  18.258  0.00  0.00    +0.000 A 
ATOM     10  H   UNL     1       5.583   3.223  18.919  0.00  0.00    +0.000 HD
ENDROOT
BRANCH   2  11
ATOM     11  C   UNL     1       6.015   5.890  18.241  0.00  0.00    +0.000 A 
ATOM     12  C   UNL     1       7.066   5.677  19.145  0.00  0.00    +0.000 A 
ATOM     13  C   UNL     1       8.200   6.498  19.131  0.00  0.00    +0.000 A 
ATOM     14  C   UNL     1       8.296   7.545  18.217  0.00  0.00    +0.000 A 
ATOM     15  C   UNL     1       7.274   7.754  17.296  0.00  0.00    +0.000 A 
ATOM     16  C   UNL     1       6.156   6.918  17.298  0.00  0.00    +0.000 A 
ENDBRANCH   2  11
BRANCH   1  18
ATOM     17  C   UNL     1       2.329   7.533  18.649  0.00  0.00    +0.000 C 
ATOM     18  C   UNL     1       2.980   6.747  17.770  0.00  0.00    +0.000 C 
BRANCH  17  19
ATOM     19  C   UNL     1       1.946   8.920  18.269  0.00  0.00    +0.000 C 
ATOM     20  O   UNL     1       2.254   9.336  17.156  0.00  0.00    +0.000 OA
ATOM     21  N   UNL     1       1.274   9.643  19.245  0.00  0.00    +0.000 N 
ATOM     22  H   UNL     1       1.138   9.232  20.160  0.00  0.00    +0.000 HD
BRANCH  21  23
ATOM     23  C   UNL     1       0.801  10.971  19.118  0.00  0.00    +0.000 A 
ATOM     24  C   UNL     1      -0.516  11.291  18.779  0.00  0.00    +0.000 A 
ATOM     25  C   UNL     1      -0.916  12.622  18.637  0.00  0.00    +0.000 A 
ATOM     26  C   UNL     1       0.001  13.647  18.840  0.00  0.00    +0.000 A 
ATOM     27 CL   UNL     1      -0.493  15.282  18.639  0.00  0.00    +0.000 Cl
ATOM     28  C   UNL     1       1.311  13.349  19.204  0.00  0.00    +0.000 A 
ATOM     29  C   UNL     1       1.710  12.016  19.350  0.00  0.00    +0.000 A 
ENDBRANCH  21  23
ENDBRANCH  17  19
BRANCH  17  31
ATOM     30  N   UNL     1       1.638   6.512  21.143  0.00  0.00    +0.000 NA
ATOM     31  C   UNL     1       1.951   6.975  20.012  0.00  0.00    +0.000 C 
ENDBRANCH  17  31
ENDBRANCH   1  18
TORSDOF 5
ENDMDL
MODEL 2
REMARK VINA RESULT:      -8.6      5.050      6.376
REMARK  Name = 
REMARK  5 active torsions:
REMARK  status: ('A' for Active; 'I' for Inactive)
REMARK    1  A    between atoms: C_2  and  C_3
REMARK    2  A    between atoms: C_3  and  C_20
REMARK    3  A    between atoms: C_4  and  C_5
REMARK    4  A    between atoms: C_6  and  C_7
REMARK    5  A    between atoms: N_22  and  C_23
REMARK                            x       y       z     vdW  Elec       q    Type
REMARK                         _______ _______ _______ _____ _____    ______ ____
ROOT
ATOM      1  C   UNL     1       5.443   5.421  17.137  0.00  0.00    +0.000 A 
ATOM      2  C   UNL     1       5.600   4.481  16.124  0.00  0.00    +0.000 A 
ATOM      3  N   UNL     1       4.950   3.345  16.569  0.00  0.00    +0.000 N 
ATOM      4  C   UNL     1       4.388   3.538  17.812  0.00  0.00    +0.000 A 
ATOM      5  C   UNL     1       3.678   2.649  18.627  0.00  0.00    +0.000 A 
ATOM      6  C   UNL     1       3.210   3.127  19.855  0.00  0.00    +0.000 A 
ATOM      7  C   UNL     1       3.445   4.444  20.245  0.00  0.00    +0.000 A 
ATOM      8  C   UNL     1       4.166   5.316  19.421  0.00  0.00    +0.000 A 
ATOM      9  C   UNL     1       4.652   4.854  18.180  0.00  0.00    +0.000 A 
ATOM     10  H   UNL     1       4.899   2.476  16.059  0.00  0.00    +0.000 HD
ENDROOT
BRANCH   2  11
ATOM     11  C   UNL     1       6.318   4.537  14.837  0.00  0.00    +0.000 A 
ATOM     12  C   UNL     1       7.430   5.372  14.653  0.00  0.00    +0.000 A 
ATOM     13  C   UNL     1       8.052   5.471  13.403  0.00  0.00    +0.000 A 
ATOM     14  C   UNL     1       7.568   4.743  12.319  0.00  0.00    +0.000 A 
ATOM     15  C   UNL     1       6.482   3.890  12.490  0.00  0.00    +0.000 A 
ATOM     16  C   UNL     1       5.880   3.776  13.744  0.00  0.00    +0.000 A 
ENDBRANCH   2  11
BRANCH   1  18
ATOM     17  C   UNL     1       7.141   7.028  17.897  0.00  0.00    +0.000 C 
ATOM     18  C   UNL     1       6.063   6.714  17.153  0.00  0.00    +0.000 C 
BRANCH  17  19
ATOM     19  C   UNL     1       7.753   8.381  17.790  0.00  0.00    +0.000 C 
ATOM     20  O   UNL     1       7.497   9.071  16.808  0.00  0.00    +0.000 OA
ATOM     21  N   UNL     1       8.599   8.738  18.831  0.00  0.00    +0.000 N 
ATOM     22  H   UNL     1       8.804   8.061  19.556  0.00  0.00    +0.000 HD
BRANCH  21  23
ATOM     23  C   UNL     1       9.287   9.968  18.959  0.00  0.00    +0.000 A 
ATOM     24  C   UNL     1       9.818  10.671  17.875  0.00  0.00    +0.000 A 
ATOM     25  C   UNL     1      10.516  11.866  18.070  0.00  0.00    +0.000 A 
ATOM     26  C   UNL     1      10.684  12.370  19.353  0.00  0.00    +0.000 A 
ATOM     27 CL   UNL     1      11.567  13.827  19.586  0.00  0.00    +0.000 Cl
ATOM     28  C   UNL     1      10.141  11.697  20.444  0.00  0.00    +0.000 A 
ATOM     29  C   UNL     1       9.438  10.503  20.249  0.00  0.00    +0.000 A 
ENDBRANCH  21  23
ENDBRANCH  17  19
BRANCH  17  31
ATOM     30  N   UNL     1       8.156   5.158  19.689  0.00  0.00    +0.000 NA
ATOM     31  C   UNL     1       7.695   6.006  18.877  0.00  0.00    +0.000 C 
ENDBRANCH  17  31
ENDBRANCH   1  18
TORSDOF 5
ENDMDL
MODEL 3
REMARK VINA RESULT:      -8.3      5.022      6.355
REMARK  Name = 
REMARK  5 active torsions:
REMARK  status: ('A' for Active; 'I' for Inactive)
REMARK    1  A    between atoms: C_2  and  C_3
REMARK    2  A    between atoms: C_3  and  C_20
REMARK    3  A    between atoms: C_4  and  C_5
REMARK    4  A    between atoms: C_6  and  C_7
REMARK    5  A    between atoms: N_22  and  C_23
REMARK                            x       y       z     vdW  Elec       q    Type
REMARK                         _______ _______ _______ _____ _____    ______ ____
ROOT
ATOM      1  C   UNL     1       5.374   5.459  17.177  0.00  0.00    +0.000 A 
ATOM      2  C   UNL     1       5.498   4.540  16.140  0.00  0.00    +0.000 A 
ATOM      3  N   UNL     1       4.858   3.397  16.579  0.00  0.00    +0.000 N 
ATOM      4  C   UNL     1       4.332   3.565  17.842  0.00  0.00    +0.000 A 
ATOM      5  C   UNL     1       3.642   2.661  18.658  0.00  0.00    +0.000 A 
ATOM      6  C   UNL     1       3.211   3.114  19.909  0.00  0.00    +0.000 A 
ATOM      7  C   UNL     1       3.462   4.422  20.320  0.00  0.00    +0.000 A 
ATOM      8  C   UNL     1       4.163   5.309  19.494  0.00  0.00    +0.000 A 
ATOM      9  C   UNL     1       4.611   4.872  18.230  0.00  0.00    +0.000 A 
ATOM     10  H   UNL     1       4.789   2.538  16.053  0.00  0.00    +0.000 HD
ENDROOT
BRANCH   2  11
ATOM     11  C   UNL     1       6.180   4.621  14.835  0.00  0.00    +0.000 A 
ATOM     12  C   UNL     1       5.734   3.884  13.728  0.00  0.00    +0.000 A 
ATOM     13  C   UNL     1       6.439   3.912  12.519  0.00  0.00    +0.000 A 
ATOM     14  C   UNL     1       7.601   4.671  12.401  0.00  0.00    +0.000 A 
ATOM     15  C   UNL     1       8.043   5.429  13.481  0.00  0.00    +0.000 A 
ATOM     16  C   UNL     1       7.324   5.417  14.678  0.00  0.00    +0.000 A 
ENDBRANCH   2  11
BRANCH   1  18
ATOM     17  C   UNL     1       7.104   7.042  17.914  0.00  0.00    +0.000 C 
ATOM     18  C   UNL     1       5.998   6.749  17.203  0.00  0.00    +0.000 C 
BRANCH  17  19
ATOM     19  C   UNL     1       7.717   8.395  17.818  0.00  0.00    +0.000 C 
ATOM     20  O   UNL     1       7.452   9.098  16.848  0.00  0.00    +0.000 OA
ATOM     21  N   UNL     1       8.573   8.738  18.856  0.00  0.00    +0.000 N 
ATOM     22  H   UNL     1       8.784   8.052  19.570  0.00  0.00    +0.000 HD
BRANCH  21  23
ATOM     23  C   UNL     1       9.264   9.966  18.993  0.00  0.00    +0.000 A 
ATOM     24  C   UNL     1       9.478  10.596  20.220  0.00  0.00    +0.000 A 
ATOM     25  C   UNL     1      10.140  11.825  20.288  0.00  0.00    +0.000 A 
ATOM     26  C   UNL     1      10.598  12.431  19.125  0.00  0.00    +0.000 A 
ATOM     27 CL   UNL     1      11.388  13.956  19.215  0.00  0.00    +0.000 Cl
ATOM     28  C   UNL     1      10.416  11.806  17.894  0.00  0.00    +0.000 A 
ATOM     29  C   UNL     1       9.758  10.574  17.827  0.00  0.00    +0.000 A 
ENDBRANCH  21  23
ENDBRANCH  17  19
BRANCH  17  31
ATOM     30  N   UNL     1       8.176   5.125  19.621  0.00  0.00    +0.000 NA
ATOM     31  C   UNL     1       7.691   5.994  18.847  0.00  0.00    +0.000 C 
ENDBRANCH  17  31
ENDBRANCH   1  18
TORSDOF 5
ENDMDL
MODEL 4
REMARK VINA RESULT:      -8.1      0.196      1.263
REMARK  Name = 
REMARK  5 active torsions:
REMARK  status: ('A' for Active; 'I' for Inactive)
REMARK    1  A    between atoms: C_2  and  C_3
REMARK    2  A    between atoms: C_3  and  C_20
REMARK    3  A    between atoms: C_4  and  C_5
REMARK    4  A    between atoms: C_6  and  C_7
REMARK    5  A    between atoms: N_22  and  C_23
REMARK                            x       y       z     vdW  Elec       q    Type
REMARK                         _______ _______ _______ _____ _____    ______ ____
ROOT
ATOM      1  C   UNL     1       3.428   5.395  18.086  0.00  0.00    +0.000 A 
ATOM      2  C   UNL     1       4.750   5.073  18.374  0.00  0.00    +0.000 A 
ATOM      3  N   UNL     1       4.737   3.741  18.741  0.00  0.00    +0.000 N 
ATOM      4  C   UNL     1       3.464   3.214  18.687  0.00  0.00    +0.000 A 
ATOM      5  C   UNL     1       3.007   1.930  19.003  0.00  0.00    +0.000 A 
ATOM      6  C   UNL     1       1.643   1.669  18.843  0.00  0.00    +0.000 A 
ATOM      7  C   UNL     1       0.776   2.658  18.383  0.00  0.00    +0.000 A 
ATOM      8  C   UNL     1       1.250   3.941  18.082  0.00  0.00    +0.000 A 
ATOM      9  C   UNL     1       2.622   4.228  18.240  0.00  0.00    +0.000 A 
ATOM     10  H   UNL     1       5.550   3.215  19.025  0.00  0.00    +0.000 HD
ENDROOT
BRANCH   2  11
ATOM     11  C   UNL     1       5.979   5.890  18.378  0.00  0.00    +0.000 A 
ATOM     12  C   UNL     1       6.208   6.875  17.407  0.00  0.00    +0.000 A 
ATOM     13  C   UNL     1       7.413   7.586  17.379  0.00  0.00    +0.000 A 
ATOM     14  C   UNL     1       8.408   7.318  18.316  0.00  0.00    +0.000 A 
ATOM     15  C   UNL     1       8.187   6.361  19.303  0.00  0.00    +0.000 A 
ATOM     16  C   UNL     1       6.974   5.672  19.342  0.00  0.00    +0.000 A 
ENDBRANCH   2  11
BRANCH   1  18
ATOM     17  C   UNL     1       2.325   7.517  18.655  0.00  0.00    +0.000 C 
ATOM     18  C   UNL     1       2.957   6.713  17.777  0.00  0.00    +0.000 C 
BRANCH  17  19
ATOM     19  C   UNL     1       1.937   8.898  18.256  0.00  0.00    +0.000 C 
ATOM     20  O   UNL     1       2.118   9.252  17.096  0.00  0.00    +0.000 OA
ATOM     21  N   UNL     1       1.412   9.686  19.270  0.00  0.00    +0.000 N 
ATOM     22  H   UNL     1       1.377   9.320  20.214  0.00  0.00    +0.000 HD
BRANCH  21  23
ATOM     23  C   UNL     1       0.964  11.022  19.138  0.00  0.00    +0.000 A 
ATOM     24  C   UNL     1       1.823  12.111  18.981  0.00  0.00    +0.000 A 
ATOM     25  C   UNL     1       1.322  13.412  18.888  0.00  0.00    +0.000 A 
ATOM     26  C   UNL     1      -0.049  13.633  18.945  0.00  0.00    +0.000 A 
ATOM     27 CL   UNL     1      -0.657  15.239  18.856  0.00  0.00    +0.000 Cl
ATOM     28  C   UNL     1      -0.924  12.558  19.076  0.00  0.00    +0.000 A 
ATOM     29  C   UNL     1      -0.421  11.255  19.165  0.00  0.00    +0.000 A 
ENDBRANCH  21  23
ENDBRANCH  17  19
BRANCH  17  31
ATOM     30  N   UNL     1       1.680   6.543  21.179  0.00  0.00    +0.000 NA
ATOM     31  C   UNL     1       1.972   6.984  20.034  0.00  0.00    +0.000 C 
ENDBRANCH  17  31
ENDBRANCH   1  18
TORSDOF 5
ENDMDL
MODEL 5
REMARK VINA RESULT:      -7.9      3.657      9.372
REMARK  Name = 
REMARK  5 active torsions:
REMARK  status: ('A' for Active; 'I' for Inactive)
REMARK    1  A    between atoms: C_2  and  C_3
REMARK    2  A    between atoms: C_3  and  C_20
REMARK    3  A    between atoms: C_4  and  C_5
REMARK    4  A    between atoms: C_6  and  C_7
REMARK    5  A    between atoms: N_22  and  C_23
REMARK                            x       y       z     vdW  Elec       q    Type
REMARK                         _______ _______ _______ _____ _____    ______ ____
ROOT
ATOM      1  C   UNL     1       0.581  12.107  18.962  0.00  0.00    +0.000 A 
ATOM      2  C   UNL     1      -0.695  12.447  18.524  0.00  0.00    +0.000 A 
ATOM      3  N   UNL     1      -0.699  13.825  18.426  0.00  0.00    +0.000 N 
ATOM      4  C   UNL     1       0.522  14.361  18.775  0.00  0.00    +0.000 A 
ATOM      5  C   UNL     1       0.934  15.697  18.843  0.00  0.00    +0.000 A 
ATOM      6  C   UNL     1       2.254  15.950  19.226  0.00  0.00    +0.000 A 
ATOM      7  C   UNL     1       3.124  14.904  19.526  0.00  0.00    +0.000 A 
ATOM      8  C   UNL     1       2.692  13.574  19.463  0.00  0.00    +0.000 A 
ATOM      9  C   UNL     1       1.362  13.294  19.083  0.00  0.00    +0.000 A 
ATOM     10  H   UNL     1      -1.494  14.379  18.145  0.00  0.00    +0.000 HD
ENDROOT
BRANCH   2  11
ATOM     11  C   UNL     1      -1.886  11.624  18.242  0.00  0.00    +0.000 A 
ATOM     12  C   UNL     1      -1.822  10.506  17.397  0.00  0.00    +0.000 A 
ATOM     13  C   UNL     1      -2.977   9.783  17.077  0.00  0.00    +0.000 A 
ATOM     14  C   UNL     1      -4.212  10.170  17.593  0.00  0.00    +0.000 A 
ATOM     15  C   UNL     1      -4.290  11.260  18.453  0.00  0.00    +0.000 A 
ATOM     16  C   UNL     1      -3.132  11.964  18.789  0.00  0.00    +0.000 A 
ENDBRANCH   2  11
BRANCH   1  18
ATOM     17  C   UNL     1       0.783  10.219  20.524  0.00  0.00    +0.000 C 
ATOM     18  C   UNL     1       0.995  10.782  19.318  0.00  0.00    +0.000 C 
BRANCH  17  19
ATOM     19  C   UNL     1       1.190   8.809  20.771  0.00  0.00    +0.000 C 
ATOM     20  O   UNL     1       0.996   8.322  21.880  0.00  0.00    +0.000 OA
ATOM     21  N   UNL     1       1.789   8.164  19.698  0.00  0.00    +0.000 N 
ATOM     22  H   UNL     1       1.973   8.683  18.848  0.00  0.00    +0.000 HD
BRANCH  21  23
ATOM     23  C   UNL     1       2.251   6.826  19.685  0.00  0.00    +0.000 A 
ATOM     24  C   UNL     1       1.793   5.844  20.565  0.00  0.00    +0.000 A 
ATOM     25  C   UNL     1       2.311   4.546  20.524  0.00  0.00    +0.000 A 
ATOM     26  C   UNL     1       3.291   4.221  19.594  0.00  0.00    +0.000 A 
ATOM     27 CL   UNL     1       3.943   2.630  19.567  0.00  0.00    +0.000 Cl
ATOM     28  C   UNL     1       3.743   5.180  18.692  0.00  0.00    +0.000 A 
ATOM     29  C   UNL     1       3.221   6.477  18.731  0.00  0.00    +0.000 A 
ENDBRANCH  21  23
ENDBRANCH  17  19
BRANCH  17  31
ATOM     30  N   UNL     1      -0.344  11.743  22.560  0.00  0.00    +0.000 NA
ATOM     31  C   UNL     1       0.167  11.051  21.637  0.00  0.00    +0.000 C 
ENDBRANCH  17  31
ENDBRANCH   1  18
TORSDOF 5
ENDMDL
MODEL 6
REMARK VINA RESULT:      -7.8      3.770      9.389
REMARK  Name = 
REMARK  5 active torsions:
REMARK  status: ('A' for Active; 'I' for Inactive)
REMARK    1  A    between atoms: C_2  and  C_3
REMARK    2  A    between atoms: C_3  and  C_20
REMARK    3  A    between atoms: C_4  and  C_5
REMARK    4  A    between atoms: C_6  and  C_7
REMARK    5  A    between atoms: N_22  and  C_23
REMARK                            x       y       z     vdW  Elec       q    Type
REMARK                         _______ _______ _______ _____ _____    ______ ____
ROOT
ATOM      1  C   UNL     1      -1.441  11.400  20.027  0.00  0.00    +0.000 A 
ATOM      2  C   UNL     1      -2.382  11.818  19.092  0.00  0.00    +0.000 A 
ATOM      3  N   UNL     1      -3.006  12.914  19.658  0.00  0.00    +0.000 N 
ATOM      4  C   UNL     1      -2.491  13.202  20.903  0.00  0.00    +0.000 A 
ATOM      5  C   UNL     1      -2.853  14.196  21.820  0.00  0.00    +0.000 A 
ATOM      6  C   UNL     1      -2.140  14.261  23.021  0.00  0.00    +0.000 A 
ATOM      7  C   UNL     1      -1.107  13.366  23.288  0.00  0.00    +0.000 A 
ATOM      8  C   UNL     1      -0.765  12.371  22.363  0.00  0.00    +0.000 A 
ATOM      9  C   UNL     1      -1.474  12.283  21.146  0.00  0.00    +0.000 A 
ATOM     10  H   UNL     1      -3.755  13.436  19.226  0.00  0.00    +0.000 HD
ENDROOT
BRANCH   2  11
ATOM     11  C   UNL     1      -2.765  11.274  17.775  0.00  0.00    +0.000 A 
ATOM     12  C   UNL     1      -3.992  11.596  17.178  0.00  0.00    +0.000 A 
ATOM     13  C   UNL     1      -4.374  11.009  15.966  0.00  0.00    +0.000 A 
ATOM     14  C   UNL     1      -3.539  10.088  15.338  0.00  0.00    +0.000 A 
ATOM     15  C   UNL     1      -2.306   9.776  15.904  0.00  0.00    +0.000 A 
ATOM     16  C   UNL     1      -1.919  10.382  17.100  0.00  0.00    +0.000 A 
ENDBRANCH   2  11
BRANCH   1  18
ATOM     17  C   UNL     1       0.644  10.206  19.509  0.00  0.00    +0.000 C 
ATOM     18  C   UNL     1      -0.643  10.215  19.907  0.00  0.00    +0.000 C 
BRANCH  17  19
ATOM     19  C   UNL     1       1.409   8.929  19.485  0.00  0.00    +0.000 C 
ATOM     20  O   UNL     1       1.565   8.313  20.534  0.00  0.00    +0.000 OA
ATOM     21  N   UNL     1       1.906   8.554  18.245  0.00  0.00    +0.000 N 
ATOM     22  H   UNL     1       1.786   9.176  17.455  0.00  0.00    +0.000 HD
BRANCH  21  23
ATOM     23  C   UNL     1       2.652   7.384  17.967  0.00  0.00    +0.000 A 
ATOM     24  C   UNL     1       3.955   7.401  17.464  0.00  0.00    +0.000 A 
ATOM     25  C   UNL     1       4.628   6.210  17.179  0.00  0.00    +0.000 A 
ATOM     26  C   UNL     1       4.003   4.990  17.402  0.00  0.00    +0.000 A 
ATOM     27 CL   UNL     1       4.829   3.529  17.024  0.00  0.00    +0.000 Cl
ATOM     28  C   UNL     1       2.714   4.951  17.926  0.00  0.00    +0.000 A 
ATOM     29  C   UNL     1       2.041   6.143  18.215  0.00  0.00    +0.000 A 
ENDBRANCH  21  23
ENDBRANCH  17  19
BRANCH  17  31
ATOM     30  N   UNL     1       1.827  12.574  18.654  0.00  0.00    +0.000 NA
ATOM     31  C   UNL     1       1.290  11.501  19.042  0.00  0.00    +0.000 C 
ENDBRANCH  17  31
ENDBRANCH   1  18
TORSDOF 5
ENDMDL
MODEL 7
REMARK VINA RESULT:      -7.8      3.766      9.359
REMARK  Name = 
REMARK  5 active torsions:
REMARK  status: ('A' for Active; 'I' for Inactive)
REMARK    1  A    between atoms: C_2  and  C_3
REMARK    2  A    between atoms: C_3  and  C_20
REMARK    3  A    between atoms: C_4  and  C_5
REMARK    4  A    between atoms: C_6  and  C_7
REMARK    5  A    between atoms: N_22  and  C_23
REMARK                            x       y       z     vdW  Elec       q    Type
REMARK                         _______ _______ _______ _____ _____    ______ ____
ROOT
ATOM      1  C   UNL     1      -1.462  11.423  20.062  0.00  0.00    +0.000 A 
ATOM      2  C   UNL     1      -2.420  11.816  19.134  0.00  0.00    +0.000 A 
ATOM      3  N   UNL     1      -3.039  12.922  19.686  0.00  0.00    +0.000 N 
ATOM      4  C   UNL     1      -2.504  13.240  20.915  0.00  0.00    +0.000 A 
ATOM      5  C   UNL     1      -2.854  14.254  21.815  0.00  0.00    +0.000 A 
ATOM      6  C   UNL     1      -2.121  14.349  23.002  0.00  0.00    +0.000 A 
ATOM      7  C   UNL     1      -1.079  13.464  23.271  0.00  0.00    +0.000 A 
ATOM      8  C   UNL     1      -0.749  12.450  22.363  0.00  0.00    +0.000 A 
ATOM      9  C   UNL     1      -1.478  12.332  21.161  0.00  0.00    +0.000 A 
ATOM     10  H   UNL     1      -3.797  13.430  19.255  0.00  0.00    +0.000 HD
ENDROOT
BRANCH   2  11
ATOM     11  C   UNL     1      -2.824  11.240  17.837  0.00  0.00    +0.000 A 
ATOM     12  C   UNL     1      -1.986  10.364  17.131  0.00  0.00    +0.000 A 
ATOM     13  C   UNL     1      -2.351   9.889  15.866  0.00  0.00    +0.000 A 
ATOM     14  C   UNL     1      -3.554  10.287  15.287  0.00  0.00    +0.000 A 
ATOM     15  C   UNL     1      -4.409  11.135  15.985  0.00  0.00    +0.000 A 
ATOM     16  C   UNL     1      -4.052  11.587  17.256  0.00  0.00    +0.000 A 
ENDBRANCH   2  11
BRANCH   1  18
ATOM     17  C   UNL     1       0.609  10.222  19.503  0.00  0.00    +0.000 C 
ATOM     18  C   UNL     1      -0.660  10.240  19.955  0.00  0.00    +0.000 C 
BRANCH  17  19
ATOM     19  C   UNL     1       1.382   8.950  19.497  0.00  0.00    +0.000 C 
ATOM     20  O   UNL     1       1.562   8.362  20.558  0.00  0.00    +0.000 OA
ATOM     21  N   UNL     1       1.858   8.546  18.257  0.00  0.00    +0.000 N 
ATOM     22  H   UNL     1       1.718   9.146  17.454  0.00  0.00    +0.000 HD
BRANCH  21  23
ATOM     23  C   UNL     1       2.606   7.373  17.995  0.00  0.00    +0.000 A 
ATOM     24  C   UNL     1       2.152   6.087  18.293  0.00  0.00    +0.000 A 
ATOM     25  C   UNL     1       2.952   4.969  18.040  0.00  0.00    +0.000 A 
ATOM     26  C   UNL     1       4.213   5.131  17.480  0.00  0.00    +0.000 A 
ATOM     27 CL   UNL     1       5.201   3.752  17.196  0.00  0.00    +0.000 Cl
ATOM     28  C   UNL     1       4.674   6.403  17.154  0.00  0.00    +0.000 A 
ATOM     29  C   UNL     1       3.871   7.522  17.403  0.00  0.00    +0.000 A 
ENDBRANCH  21  23
ENDBRANCH  17  19
BRANCH  17  31
ATOM     30  N   UNL     1       1.736  12.561  18.503  0.00  0.00    +0.000 NA
ATOM     31  C   UNL     1       1.224  11.501  18.957  0.00  0.00    +0.000 C 
ENDBRANCH  17  31
ENDBRANCH   1  18
TORSDOF 5
ENDMDL
MODEL 8
REMARK VINA RESULT:      -7.7      1.053      1.391
REMARK  Name = 
REMARK  5 active torsions:
REMARK  status: ('A' for Active; 'I' for Inactive)
REMARK    1  A    between atoms: C_2  and  C_3
REMARK    2  A    between atoms: C_3  and  C_20
REMARK    3  A    between atoms: C_4  and  C_5
REMARK    4  A    between atoms: C_6  and  C_7
REMARK    5  A    between atoms: N_22  and  C_23
REMARK                            x       y       z     vdW  Elec       q    Type
REMARK                         _______ _______ _______ _____ _____    ______ ____
ROOT
ATOM      1  C   UNL     1       3.532   5.316  18.259  0.00  0.00    +0.000 A 
ATOM      2  C   UNL     1       4.889   5.060  18.091  0.00  0.00    +0.000 A 
ATOM      3  N   UNL     1       4.998   3.685  17.997  0.00  0.00    +0.000 N 
ATOM      4  C   UNL     1       3.767   3.073  18.090  0.00  0.00    +0.000 A 
ATOM      5  C   UNL     1       3.434   1.713  18.074  0.00  0.00    +0.000 A 
ATOM      6  C   UNL     1       2.081   1.375  18.180  0.00  0.00    +0.000 A 
ATOM      7  C   UNL     1       1.106   2.363  18.294  0.00  0.00    +0.000 A 
ATOM      8  C   UNL     1       1.458   3.718  18.319  0.00  0.00    +0.000 A 
ATOM      9  C   UNL     1       2.818   4.082  18.219  0.00  0.00    +0.000 A 
ATOM     10  H   UNL     1       5.867   3.184  17.885  0.00  0.00    +0.000 HD
ENDROOT
BRANCH   2  11
ATOM     11  C   UNL     1       6.059   5.957  18.057  0.00  0.00    +0.000 A 
ATOM     12  C   UNL     1       7.134   5.794  18.943  0.00  0.00    +0.000 A 
ATOM     13  C   UNL     1       8.200   6.702  18.950  0.00  0.00    +0.000 A 
ATOM     14  C   UNL     1       8.204   7.786  18.076  0.00  0.00    +0.000 A 
ATOM     15  C   UNL     1       7.158   7.948  17.172  0.00  0.00    +0.000 A 
ATOM     16  C   UNL     1       6.109   7.028  17.153  0.00  0.00    +0.000 A 
ENDBRANCH   2  11
BRANCH   1  18
ATOM     17  C   UNL     1       2.327   6.939  19.657  0.00  0.00    +0.000 C 
ATOM     18  C   UNL     1       2.972   6.609  18.521  0.00  0.00    +0.000 C 
BRANCH  17  19
ATOM     19  C   UNL     1       1.843   8.332  19.862  0.00  0.00    +0.000 C 
ATOM     20  O   UNL     1       1.640   8.726  21.006  0.00  0.00    +0.000 OA
ATOM     21  N   UNL     1       1.641   9.070  18.704  0.00  0.00    +0.000 N 
ATOM     22  H   UNL     1       1.766   8.623  17.804  0.00  0.00    +0.000 HD
BRANCH  21  23
ATOM     23  C   UNL     1       1.197  10.413  18.641  0.00  0.00    +0.000 A 
ATOM     24  C   UNL     1       2.060  11.508  18.567  0.00  0.00    +0.000 A 
ATOM     25  C   UNL     1       1.560  12.813  18.539  0.00  0.00    +0.000 A 
ATOM     26  C   UNL     1       0.189  13.032  18.579  0.00  0.00    +0.000 A 
ATOM     27 CL   UNL     1      -0.416  14.641  18.571  0.00  0.00    +0.000 Cl
ATOM     28  C   UNL     1      -0.689  11.952  18.628  0.00  0.00    +0.000 A 
ATOM     29  C   UNL     1      -0.189  10.646  18.651  0.00  0.00    +0.000 A 
ENDBRANCH  21  23
ENDBRANCH  17  19
BRANCH  17  31
ATOM     30  N   UNL     1       1.837   4.980  21.569  0.00  0.00    +0.000 NA
ATOM     31  C   UNL     1       2.059   5.868  20.701  0.00  0.00    +0.000 C 
ENDBRANCH  17  31
ENDBRANCH   1  18
TORSDOF 5
ENDMDL
MODEL 9
REMARK VINA RESULT:      -7.7      4.434      6.908
REMARK  Name = 
REMARK  5 active torsions:
REMARK  status: ('A' for Active; 'I' for Inactive)
REMARK    1  A    between atoms: C_2  and  C_3
REMARK    2  A    between atoms: C_3  and  C_20
REMARK    3  A    between atoms: C_4  and  C_5
REMARK    4  A    between atoms: C_6  and  C_7
REMARK    5  A    between atoms: N_22  and  C_23
REMARK                            x       y       z     vdW  Elec       q    Type
REMARK                         _______ _______ _______ _____ _____    ______ ____
ROOT
ATOM      1  C   UNL     1       5.989   5.913  15.995  0.00  0.00    +0.000 A 
ATOM      2  C   UNL     1       4.997   5.154  16.607  0.00  0.00    +0.000 A 
ATOM      3  N   UNL     1       4.806   4.060  15.784  0.00  0.00    +0.000 N 
ATOM      4  C   UNL     1       5.642   4.099  14.688  0.00  0.00    +0.000 A 
ATOM      5  C   UNL     1       5.751   3.217  13.607  0.00  0.00    +0.000 A 
ATOM      6  C   UNL     1       6.707   3.506  12.628  0.00  0.00    +0.000 A 
ATOM      7  C   UNL     1       7.519   4.633  12.734  0.00  0.00    +0.000 A 
ATOM      8  C   UNL     1       7.388   5.510  13.818  0.00  0.00    +0.000 A 
ATOM      9  C   UNL     1       6.427   5.241  14.815  0.00  0.00    +0.000 A 
ATOM     10  H   UNL     1       4.134   3.326  15.950  0.00  0.00    +0.000 HD
ENDROOT
BRANCH   2  11
ATOM     11  C   UNL     1       4.207   5.377  17.832  0.00  0.00    +0.000 A 
ATOM     12  C   UNL     1       4.226   4.462  18.894  0.00  0.00    +0.000 A 
ATOM     13  C   UNL     1       3.410   4.650  20.016  0.00  0.00    +0.000 A 
ATOM     14  C   UNL     1       2.560   5.752  20.089  0.00  0.00    +0.000 A 
ATOM     15  C   UNL     1       2.549   6.684  19.056  0.00  0.00    +0.000 A 
ATOM     16  C   UNL     1       3.382   6.505  17.950  0.00  0.00    +0.000 A 
ENDBRANCH   2  11
BRANCH   1  18
ATOM     17  C   UNL     1       7.240   7.406  17.495  0.00  0.00    +0.000 C 
ATOM     18  C   UNL     1       6.422   7.203  16.443  0.00  0.00    +0.000 C 
BRANCH  17  19
ATOM     19  C   UNL     1       7.688   8.783  17.837  0.00  0.00    +0.000 C 
ATOM     20  O   UNL     1       7.109   9.738  17.329  0.00  0.00    +0.000 OA
ATOM     21  N   UNL     1       8.765   8.860  18.709  0.00  0.00    +0.000 N 
ATOM     22  H   UNL     1       9.221   8.007  19.010  0.00  0.00    +0.000 HD
BRANCH  21  23
ATOM     23  C   UNL     1       9.363  10.050  19.189  0.00  0.00    +0.000 A 
ATOM     24  C   UNL     1       9.235  10.502  20.503  0.00  0.00    +0.000 A 
ATOM     25  C   UNL     1       9.823  11.703  20.909  0.00  0.00    +0.000 A 
ATOM     26  C   UNL     1      10.551  12.460  20.000  0.00  0.00    +0.000 A 
ATOM     27 CL   UNL     1      11.250  13.950  20.500  0.00  0.00    +0.000 Cl
ATOM     28  C   UNL     1      10.712  12.015  18.691  0.00  0.00    +0.000 A 
ATOM     29  C   UNL     1      10.127  10.810  18.286  0.00  0.00    +0.000 A 
ENDBRANCH  21  23
ENDBRANCH  17  19
BRANCH  17  31
ATOM     30  N   UNL     1       8.009   5.241  19.062  0.00  0.00    +0.000 NA
ATOM     31  C   UNL     1       7.660   6.222  18.351  0.00  0.00    +0.000 C 
ENDBRANCH  17  31
ENDBRANCH   1  18
TORSDOF 5
ENDMDL
