MODEL 1
REMARK VINA RESULT:      -8.8      0.000      0.000
REMARK  Name = 
REMARK  10 active torsions:
REMARK  status: ('A' for Active; 'I' for Inactive)
REMARK    1  A    between atoms: C_2  and  C_4
REMARK    2  A    between atoms: C_8  and  C_9
REMARK    3  A    between atoms: N_16  and  C_17
REMARK    4  A    between atoms: C_17  and  C_18
REMARK    5  A    between atoms: C_18  and  N_19
REMARK    6  A    between atoms: N_19  and  C_20
REMARK    7  A    between atoms: C_20  and  C_21
REMARK    8  A    between atoms: C_27  and  O_28
REMARK    9  A    between atoms: C_32  and  C_34
REMARK   10  A    between atoms: C_34  and  O_35
REMARK                            x       y       z     vdW  Elec       q    Type
REMARK                         _______ _______ _______ _____ _____    ______ ____
ROOT
ATOM      1  C   UNL     1       1.717   9.483  18.511  0.00  0.00    +0.000 C 
ENDROOT
BRANCH   1   9
ATOM      2  C   UNL     1       0.164  11.591  21.372  0.00  0.00    +0.000 C 
ATOM      3  C   UNL     1       1.132  12.082  20.273  0.00  0.00    +0.000 C 
ATOM      4  C   UNL     1       0.751  11.732  18.817  0.00  0.00    +0.000 C 
ATOM      5  C   UNL     1      -0.603  12.298  18.405  0.00  0.00    +0.000 C 
ATOM      6  C   UNL     1      -1.595  11.181  18.735  0.00  0.00    +0.000 C 
ATOM      7  C   UNL     1      -0.728  10.078  19.396  0.00  0.00    +0.000 C 
ATOM      8  C   UNL     1      -0.705  10.386  20.920  0.00  0.00    +0.000 C 
ATOM      9  N   UNL     1       0.493  10.293  18.623  0.00  0.00    +0.000 NA
BRANCH   2  14
ATOM     10  C   UNL     1      -2.686  13.187  23.425  0.00  0.00    +0.000 A 
ATOM     11  C   UNL     1      -2.223  14.479  23.664  0.00  0.00    +0.000 A 
ATOM     12  C   UNL     1      -0.965  14.858  23.185  0.00  0.00    +0.000 A 
ATOM     13  C   UNL     1      -0.178  13.950  22.448  0.00  0.00    +0.000 A 
ATOM     14  C   UNL     1      -0.623  12.648  22.171  0.00  0.00    +0.000 A 
ATOM     15  C   UNL     1      -1.883  12.287  22.700  0.00  0.00    +0.000 A 
BRANCH  10  17
ATOM     16  N   UNL     1      -4.230  12.799  25.296  0.00  0.00    +0.000 N 
ATOM     17  C   UNL     1      -3.997  12.704  23.949  0.00  0.00    +0.000 C 
ATOM     18  O   UNL     1      -4.864  12.272  23.203  0.00  0.00    +0.000 OA
ATOM     19  H   UNL     1      -5.167  12.566  25.598  0.00  0.00    +0.000 HD
ATOM     20  H   UNL     1      -3.648  13.328  25.924  0.00  0.00    +0.000 HD
ENDBRANCH  10  17
ENDBRANCH   2  14
ENDBRANCH   1   9
BRANCH   1  21
ATOM     21  C   UNL     1       1.885   8.082  17.743  0.00  0.00    +0.000 C 
BRANCH  21  22
ATOM     22  N   UNL     1       3.149   7.326  18.188  0.00  0.00    +0.000 N 
ATOM     23  C   UNL     1       4.150   7.218  17.203  0.00  0.00    +0.000 C 
ATOM     24  O   UNL     1       4.033   7.717  16.076  0.00  0.00    +0.000 OA
BRANCH  22  25
ATOM     25  C   UNL     1       3.279   6.498  19.446  0.00  0.00    +0.000 C 
BRANCH  25  26
ATOM     26  C   UNL     1       2.791   5.023  19.495  0.00  0.00    +0.000 C 
ATOM     27  C   UNL     1       1.722   4.809  20.595  0.00  0.00    +0.000 C 
ATOM     28  C   UNL     1       1.411   3.308  20.754  0.00  0.00    +0.000 C 
ATOM     29  C   UNL     1       0.784   2.772  19.457  0.00  0.00    +0.000 C 
ATOM     30  C   UNL     1       1.734   3.021  18.273  0.00  0.00    +0.000 C 
ATOM     31  C   UNL     1       3.011   2.202  18.520  0.00  0.00    +0.000 C 
ATOM     32  C   UNL     1       3.668   2.667  19.819  0.00  0.00    +0.000 C 
ATOM     33  C   UNL     1       2.719   2.543  21.023  0.00  0.00    +0.000 C 
ATOM     34  C   UNL     1       4.020   4.131  19.667  0.00  0.00    +0.000 C 
ATOM     35  C   UNL     1       2.092   4.536  18.175  0.00  0.00    +0.000 C 
BRANCH  32  36
ATOM     36  O   UNL     1       4.859   1.928  20.051  0.00  0.00    +0.000 OA
ATOM     37  H   UNL     1       5.082   1.996  20.995  0.00  0.00    +0.000 HD
ENDBRANCH  32  36
ENDBRANCH  25  26
ENDBRANCH  22  25
BRANCH  23  38
ATOM     38  C   UNL     1       5.443   6.445  17.521  0.00  0.00    +0.000 C 
BRANCH  38  39
ATOM     39  O   UNL     1       6.305   6.355  16.389  0.00  0.00    +0.000 OA
ATOM     40  H   UNL     1       6.753   7.224  16.328  0.00  0.00    +0.000 HD
ENDBRANCH  38  39
ENDBRANCH  23  38
ENDBRANCH  21  22
ENDBRANCH   1  21
TORSDOF 10
ENDMDL
MODEL 2
REMARK VINA RESULT:      -8.7      3.142      3.884
REMARK  Name = 
REMARK  10 active torsions:
REMARK  status: ('A' for Active; 'I' for Inactive)
REMARK    1  A    between atoms: C_2  and  C_4
REMARK    2  A    between atoms: C_8  and  C_9
REMARK    3  A    between atoms: N_16  and  C_17
REMARK    4  A    between atoms: C_17  and  C_18
REMARK    5  A    between atoms: C_18  and  N_19
REMARK    6  A    between atoms: N_19  and  C_20
REMARK    7  A    between atoms: C_20  and  C_21
REMARK    8  A    between atoms: C_27  and  O_28
REMARK    9  A    between atoms: C_32  and  C_34
REMARK   10  A    between atoms: C_34  and  O_35
REMARK                            x       y       z     vdW  Elec       q    Type
REMARK                         _______ _______ _______ _____ _____    ______ ____
ROOT
ATOM      1  C   UNL     1       2.210   8.085  18.890  0.00  0.00    +0.000 C 
ENDROOT
BRANCH   1   9
ATOM      2  C   UNL     1       1.796  11.929  19.187  0.00  0.00    +0.000 C 
ATOM      3  C   UNL     1       1.766  11.087  17.893  0.00  0.00    +0.000 C 
ATOM      4  C   UNL     1       0.822   9.864  17.893  0.00  0.00    +0.000 C 
ATOM      5  C   UNL     1      -0.637  10.240  18.131  0.00  0.00    +0.000 C 
ATOM      6  C   UNL     1      -0.809  10.137  19.647  0.00  0.00    +0.000 C 
ATOM      7  C   UNL     1       0.606   9.785  20.175  0.00  0.00    +0.000 C 
ATOM      8  C   UNL     1       1.330  11.136  20.439  0.00  0.00    +0.000 C 
ATOM      9  N   UNL     1       1.043   8.969  19.044  0.00  0.00    +0.000 NA
BRANCH   2  14
ATOM     10  C   UNL     1       1.702  15.748  18.650  0.00  0.00    +0.000 A 
ATOM     11  C   UNL     1       0.391  16.085  18.980  0.00  0.00    +0.000 A 
ATOM     12  C   UNL     1      -0.501  15.079  19.364  0.00  0.00    +0.000 A 
ATOM     13  C   UNL     1      -0.076  13.737  19.437  0.00  0.00    +0.000 A 
ATOM     14  C   UNL     1       1.242  13.366  19.131  0.00  0.00    +0.000 A 
ATOM     15  C   UNL     1       2.107  14.402  18.713  0.00  0.00    +0.000 A 
BRANCH  10  17
ATOM     16  N   UNL     1       3.964  16.706  18.686  0.00  0.00    +0.000 N 
ATOM     17  C   UNL     1       2.690  16.766  18.186  0.00  0.00    +0.000 C 
ATOM     18  O   UNL     1       2.394  17.610  17.353  0.00  0.00    +0.000 OA
ATOM     19  H   UNL     1       4.631  17.341  18.266  0.00  0.00    +0.000 HD
ATOM     20  H   UNL     1       4.320  15.922  19.207  0.00  0.00    +0.000 HD
ENDBRANCH  10  17
ENDBRANCH   2  14
ENDBRANCH   1   9
BRANCH   1  21
ATOM     21  C   UNL     1       3.032   7.792  17.542  0.00  0.00    +0.000 C 
BRANCH  21  22
ATOM     22  N   UNL     1       4.227   6.855  17.785  0.00  0.00    +0.000 N 
ATOM     23  C   UNL     1       5.027   6.610  16.652  0.00  0.00    +0.000 C 
ATOM     24  O   UNL     1       4.802   7.132  15.552  0.00  0.00    +0.000 OA
BRANCH  22  25
ATOM     25  C   UNL     1       4.439   6.004  19.017  0.00  0.00    +0.000 C 
BRANCH  25  26
ATOM     26  C   UNL     1       3.652   4.680  19.227  0.00  0.00    +0.000 C 
ATOM     27  C   UNL     1       2.661   4.785  20.413  0.00  0.00    +0.000 C 
ATOM     28  C   UNL     1       2.051   3.404  20.723  0.00  0.00    +0.000 C 
ATOM     29  C   UNL     1       1.214   2.929  19.523  0.00  0.00    +0.000 C 
ATOM     30  C   UNL     1       2.090   2.879  18.260  0.00  0.00    +0.000 C 
ATOM     31  C   UNL     1       3.178   1.818  18.490  0.00  0.00    +0.000 C 
ATOM     32  C   UNL     1       4.030   2.218  19.695  0.00  0.00    +0.000 C 
ATOM     33  C   UNL     1       3.182   2.390  20.968  0.00  0.00    +0.000 C 
ATOM     34  C   UNL     1       4.672   3.553  19.392  0.00  0.00    +0.000 C 
ATOM     35  C   UNL     1       2.755   4.267  18.006  0.00  0.00    +0.000 C 
BRANCH  32  36
ATOM     36  O   UNL     1       5.050   1.252  19.909  0.00  0.00    +0.000 OA
ATOM     37  H   UNL     1       4.804   0.714  20.680  0.00  0.00    +0.000 HD
ENDBRANCH  32  36
ENDBRANCH  25  26
ENDBRANCH  22  25
BRANCH  23  38
ATOM     38  C   UNL     1       6.228   5.653  16.765  0.00  0.00    +0.000 C 
BRANCH  38  39
ATOM     39  O   UNL     1       7.451   6.282  16.385  0.00  0.00    +0.000 OA
ATOM     40  H   UNL     1       7.892   6.529  17.223  0.00  0.00    +0.000 HD
ENDBRANCH  38  39
ENDBRANCH  23  38
ENDBRANCH  21  22
ENDBRANCH   1  21
TORSDOF 10
ENDMDL
MODEL 3
REMARK VINA RESULT:      -8.6      2.098      2.859
REMARK  Name = 
REMARK  10 active torsions:
REMARK  status: ('A' for Active; 'I' for Inactive)
REMARK    1  A    between atoms: C_2  and  C_4
REMARK    2  A    between atoms: C_8  and  C_9
REMARK    3  A    between atoms: N_16  and  C_17
REMARK    4  A    between atoms: C_17  and  C_18
REMARK    5  A    between atoms: C_18  and  N_19
REMARK    6  A    between atoms: N_19  and  C_20
REMARK    7  A    between atoms: C_20  and  C_21
REMARK    8  A    between atoms: C_27  and  O_28
REMARK    9  A    between atoms: C_32  and  C_34
REMARK   10  A    between atoms: C_34  and  O_35
REMARK                            x       y       z     vdW  Elec       q    Type
REMARK                         _______ _______ _______ _____ _____    ______ ____
ROOT
ATOM      1  C   UNL     1       1.944   9.658  17.930  0.00  0.00    +0.000 C 
ENDROOT
BRANCH   1   9
ATOM      2  C   UNL     1      -1.384  11.530  18.607  0.00  0.00    +0.000 C 
ATOM      3  C   UNL     1      -1.092  10.033  18.848  0.00  0.00    +0.000 C 
ATOM      4  C   UNL     1       0.182   9.704  19.657  0.00  0.00    +0.000 C 
ATOM      5  C   UNL     1       0.174  10.315  21.054  0.00  0.00    +0.000 C 
ATOM      6  C   UNL     1       0.862  11.669  20.877  0.00  0.00    +0.000 C 
ATOM      7  C   UNL     1       1.141  11.765  19.354  0.00  0.00    +0.000 C 
ATOM      8  C   UNL     1      -0.115  12.420  18.713  0.00  0.00    +0.000 C 
ATOM      9  N   UNL     1       1.391  10.347  19.108  0.00  0.00    +0.000 NA
BRANCH   2  14
ATOM     10  C   UNL     1      -5.084  12.386  19.282  0.00  0.00    +0.000 A 
ATOM     11  C   UNL     1      -5.022  13.212  20.403  0.00  0.00    +0.000 A 
ATOM     12  C   UNL     1      -3.780  13.494  20.981  0.00  0.00    +0.000 A 
ATOM     13  C   UNL     1      -2.598  12.965  20.426  0.00  0.00    +0.000 A 
ATOM     14  C   UNL     1      -2.623  12.148  19.285  0.00  0.00    +0.000 A 
ATOM     15  C   UNL     1      -3.896  11.855  18.748  0.00  0.00    +0.000 A 
BRANCH  10  17
ATOM     16  N   UNL     1      -6.345  11.293  17.479  0.00  0.00    +0.000 N 
ATOM     17  C   UNL     1      -6.380  12.008  18.647  0.00  0.00    +0.000 C 
ATOM     18  O   UNL     1      -7.452  12.286  19.166  0.00  0.00    +0.000 OA
ATOM     19  H   UNL     1      -7.238  10.961  17.139  0.00  0.00    +0.000 HD
ATOM     20  H   UNL     1      -5.510  10.861  17.117  0.00  0.00    +0.000 HD
ENDBRANCH  10  17
ENDBRANCH   2  14
ENDBRANCH   1   9
BRANCH   1  21
ATOM     21  C   UNL     1       1.871   8.087  17.604  0.00  0.00    +0.000 C 
BRANCH  21  22
ATOM     22  N   UNL     1       3.086   7.323  18.157  0.00  0.00    +0.000 N 
ATOM     23  C   UNL     1       4.141   7.149  17.241  0.00  0.00    +0.000 C 
ATOM     24  O   UNL     1       4.105   7.600  16.088  0.00  0.00    +0.000 OA
BRANCH  22  25
ATOM     25  C   UNL     1       3.120   6.549  19.455  0.00  0.00    +0.000 C 
BRANCH  25  26
ATOM     26  C   UNL     1       2.666   5.064  19.521  0.00  0.00    +0.000 C 
ATOM     27  C   UNL     1       1.611   4.836  20.631  0.00  0.00    +0.000 C 
ATOM     28  C   UNL     1       1.335   3.329  20.806  0.00  0.00    +0.000 C 
ATOM     29  C   UNL     1       0.710   2.768  19.518  0.00  0.00    +0.000 C 
ATOM     30  C   UNL     1       1.645   3.028  18.325  0.00  0.00    +0.000 C 
ATOM     31  C   UNL     1       2.942   2.240  18.569  0.00  0.00    +0.000 C 
ATOM     32  C   UNL     1       3.599   2.732  19.858  0.00  0.00    +0.000 C 
ATOM     33  C   UNL     1       2.662   2.596  21.071  0.00  0.00    +0.000 C 
ATOM     34  C   UNL     1       3.916   4.201  19.691  0.00  0.00    +0.000 C 
ATOM     35  C   UNL     1       1.968   4.549  18.210  0.00  0.00    +0.000 C 
BRANCH  32  36
ATOM     36  O   UNL     1       4.808   2.021  20.087  0.00  0.00    +0.000 OA
ATOM     37  H   UNL     1       4.583   1.134  20.415  0.00  0.00    +0.000 HD
ENDBRANCH  32  36
ENDBRANCH  25  26
ENDBRANCH  22  25
BRANCH  23  38
ATOM     38  C   UNL     1       5.394   6.362  17.670  0.00  0.00    +0.000 C 
BRANCH  38  39
ATOM     39  O   UNL     1       5.745   5.356  16.722  0.00  0.00    +0.000 OA
ATOM     40  H   UNL     1       5.548   5.741  15.844  0.00  0.00    +0.000 HD
ENDBRANCH  38  39
ENDBRANCH  23  38
ENDBRANCH  21  22
ENDBRANCH   1  21
TORSDOF 10
ENDMDL
MODEL 4
REMARK VINA RESULT:      -8.5      3.398      5.315
REMARK  Name = 
REMARK  10 active torsions:
REMARK  status: ('A' for Active; 'I' for Inactive)
REMARK    1  A    between atoms: C_2  and  C_4
REMARK    2  A    between atoms: C_8  and  C_9
REMARK    3  A    between atoms: N_16  and  C_17
REMARK    4  A    between atoms: C_17  and  C_18
REMARK    5  A    between atoms: C_18  and  N_19
REMARK    6  A    between atoms: N_19  and  C_20
REMARK    7  A    between atoms: C_20  and  C_21
REMARK    8  A    between atoms: C_27  and  O_28
REMARK    9  A    between atoms: C_32  and  C_34
REMARK   10  A    between atoms: C_34  and  O_35
REMARK                            x       y       z     vdW  Elec       q    Type
REMARK                         _______ _______ _______ _____ _____    ______ ____
ROOT
ATOM      1  C   UNL     1       1.954   7.916  19.645  0.00  0.00    +0.000 C 
ENDROOT
BRANCH   1   9
ATOM      2  C   UNL     1       1.739  11.787  19.577  0.00  0.00    +0.000 C 
ATOM      3  C   UNL     1       1.942  10.844  18.370  0.00  0.00    +0.000 C 
ATOM      4  C   UNL     1       0.942   9.674  18.240  0.00  0.00    +0.000 C 
ATOM      5  C   UNL     1      -0.505  10.138  18.116  0.00  0.00    +0.000 C 
ATOM      6  C   UNL     1      -1.016  10.169  19.557  0.00  0.00    +0.000 C 
ATOM      7  C   UNL     1       0.221   9.792  20.414  0.00  0.00    +0.000 C 
ATOM      8  C   UNL     1       0.956  11.123  20.741  0.00  0.00    +0.000 C 
ATOM      9  N   UNL     1       0.843   8.866  19.470  0.00  0.00    +0.000 NA
BRANCH   2  14
ATOM     10  C   UNL     1       1.932  15.448  18.375  0.00  0.00    +0.000 A 
ATOM     11  C   UNL     1       0.684  15.963  18.716  0.00  0.00    +0.000 A 
ATOM     12  C   UNL     1      -0.261  15.129  19.324  0.00  0.00    +0.000 A 
ATOM     13  C   UNL     1       0.052  13.785  19.610  0.00  0.00    +0.000 A 
ATOM     14  C   UNL     1       1.308  13.241  19.299  0.00  0.00    +0.000 A 
ATOM     15  C   UNL     1       2.225  14.100  18.653  0.00  0.00    +0.000 A 
BRANCH  10  17
ATOM     16  N   UNL     1       4.034  15.625  17.115  0.00  0.00    +0.000 N 
ATOM     17  C   UNL     1       2.966  16.270  17.681  0.00  0.00    +0.000 C 
ATOM     18  O   UNL     1       2.854  17.483  17.577  0.00  0.00    +0.000 OA
ATOM     19  H   UNL     1       4.654  16.202  16.560  0.00  0.00    +0.000 HD
ATOM     20  H   UNL     1       4.076  14.627  16.987  0.00  0.00    +0.000 HD
ENDBRANCH  10  17
ENDBRANCH   2  14
ENDBRANCH   1   9
BRANCH   1  21
ATOM     21  C   UNL     1       1.934   6.547  20.485  0.00  0.00    +0.000 C 
BRANCH  21  22
ATOM     22  N   UNL     1       2.081   5.311  19.580  0.00  0.00    +0.000 N 
ATOM     23  C   UNL     1       2.052   4.076  20.257  0.00  0.00    +0.000 C 
ATOM     24  O   UNL     1       1.892   3.991  21.482  0.00  0.00    +0.000 OA
BRANCH  22  25
ATOM     25  C   UNL     1       2.505   5.331  18.129  0.00  0.00    +0.000 C 
BRANCH  25  26
ATOM     26  C   UNL     1       4.000   5.478  17.728  0.00  0.00    +0.000 C 
ATOM     27  C   UNL     1       4.258   6.790  16.946  0.00  0.00    +0.000 C 
ATOM     28  C   UNL     1       5.695   6.807  16.390  0.00  0.00    +0.000 C 
ATOM     29  C   UNL     1       6.698   6.815  17.555  0.00  0.00    +0.000 C 
ATOM     30  C   UNL     1       6.465   5.590  18.456  0.00  0.00    +0.000 C 
ATOM     31  C   UNL     1       6.764   4.334  17.620  0.00  0.00    +0.000 C 
ATOM     32  C   UNL     1       5.816   4.284  16.423  0.00  0.00    +0.000 C 
ATOM     33  C   UNL     1       5.929   5.543  15.544  0.00  0.00    +0.000 C 
ATOM     34  C   UNL     1       4.399   4.224  16.950  0.00  0.00    +0.000 C 
ATOM     35  C   UNL     1       4.986   5.553  18.949  0.00  0.00    +0.000 C 
BRANCH  32  36
ATOM     36  O   UNL     1       6.071   3.119  15.651  0.00  0.00    +0.000 OA
ATOM     37  H   UNL     1       6.930   3.229  15.208  0.00  0.00    +0.000 HD
ENDBRANCH  32  36
ENDBRANCH  25  26
ENDBRANCH  22  25
BRANCH  23  38
ATOM     38  C   UNL     1       2.231   2.772  19.458  0.00  0.00    +0.000 C 
BRANCH  38  39
ATOM     39  O   UNL     1       0.992   2.276  18.956  0.00  0.00    +0.000 OA
ATOM     40  H   UNL     1       1.143   2.101  18.005  0.00  0.00    +0.000 HD
ENDBRANCH  38  39
ENDBRANCH  23  38
ENDBRANCH  21  22
ENDBRANCH   1  21
TORSDOF 10
ENDMDL
MODEL 5
REMARK VINA RESULT:      -8.4      0.764      1.032
REMARK  Name = 
REMARK  10 active torsions:
REMARK  status: ('A' for Active; 'I' for Inactive)
REMARK    1  A    between atoms: C_2  and  C_4
REMARK    2  A    between atoms: C_8  and  C_9
REMARK    3  A    between atoms: N_16  and  C_17
REMARK    4  A    between atoms: C_17  and  C_18
REMARK    5  A    between atoms: C_18  and  N_19
REMARK    6  A    between atoms: N_19  and  C_20
REMARK    7  A    between atoms: C_20  and  C_21
REMARK    8  A    between atoms: C_27  and  O_28
REMARK    9  A    between atoms: C_32  and  C_34
REMARK   10  A    between atoms: C_34  and  O_35
REMARK                            x       y       z     vdW  Elec       q    Type
REMARK                         _______ _______ _______ _____ _____    ______ ____
ROOT
ATOM      1  C   UNL     1       1.268   9.042  19.090  0.00  0.00    +0.000 C 
ENDROOT
BRANCH   1   9
ATOM      2  C   UNL     1      -0.876  11.153  21.537  0.00  0.00    +0.000 C 
ATOM      3  C   UNL     1       0.627  10.820  21.665  0.00  0.00    +0.000 C 
ATOM      4  C   UNL     1       1.500  11.105  20.423  0.00  0.00    +0.000 C 
ATOM      5  C   UNL     1       1.474  12.571  20.003  0.00  0.00    +0.000 C 
ATOM      6  C   UNL     1       0.334  12.650  18.987  0.00  0.00    +0.000 C 
ATOM      7  C   UNL     1      -0.267  11.220  18.966  0.00  0.00    +0.000 C 
ATOM      8  C   UNL     1      -1.367  11.185  20.064  0.00  0.00    +0.000 C 
ATOM      9  N   UNL     1       0.972  10.481  19.196  0.00  0.00    +0.000 NA
BRANCH   2  14
ATOM     10  C   UNL     1      -3.389  13.208  23.621  0.00  0.00    +0.000 A 
ATOM     11  C   UNL     1      -2.656  14.336  23.985  0.00  0.00    +0.000 A 
ATOM     12  C   UNL     1      -1.322  14.448  23.581  0.00  0.00    +0.000 A 
ATOM     13  C   UNL     1      -0.726  13.440  22.797  0.00  0.00    +0.000 A 
ATOM     14  C   UNL     1      -1.442  12.301  22.396  0.00  0.00    +0.000 A 
ATOM     15  C   UNL     1      -2.776  12.203  22.850  0.00  0.00    +0.000 A 
BRANCH  10  17
ATOM     16  N   UNL     1      -5.061  12.010  24.965  0.00  0.00    +0.000 N 
ATOM     17  C   UNL     1      -4.801  13.005  24.059  0.00  0.00    +0.000 C 
ATOM     18  O   UNL     1      -5.704  13.726  23.660  0.00  0.00    +0.000 OA
ATOM     19  H   UNL     1      -6.008  11.976  25.320  0.00  0.00    +0.000 HD
ATOM     20  H   UNL     1      -4.345  11.527  25.481  0.00  0.00    +0.000 HD
ENDBRANCH  10  17
ENDBRANCH   2  14
ENDBRANCH   1   9
BRANCH   1  21
ATOM     21  C   UNL     1       1.912   8.275  17.834  0.00  0.00    +0.000 C 
BRANCH  21  22
ATOM     22  N   UNL     1       3.096   7.384  18.245  0.00  0.00    +0.000 N 
ATOM     23  C   UNL     1       4.063   7.186  17.242  0.00  0.00    +0.000 C 
ATOM     24  O   UNL     1       3.982   7.712  16.124  0.00  0.00    +0.000 OA
BRANCH  22  25
ATOM     25  C   UNL     1       3.158   6.527  19.490  0.00  0.00    +0.000 C 
BRANCH  25  26
ATOM     26  C   UNL     1       2.666   5.053  19.479  0.00  0.00    +0.000 C 
ATOM     27  C   UNL     1       1.585   4.801  20.558  0.00  0.00    +0.000 C 
ATOM     28  C   UNL     1       1.270   3.295  20.659  0.00  0.00    +0.000 C 
ATOM     29  C   UNL     1       0.656   2.809  19.335  0.00  0.00    +0.000 C 
ATOM     30  C   UNL     1       1.620   3.099  18.172  0.00  0.00    +0.000 C 
ATOM     31  C   UNL     1       2.892   2.268  18.403  0.00  0.00    +0.000 C 
ATOM     32  C   UNL     1       3.536   2.684  19.725  0.00  0.00    +0.000 C 
ATOM     33  C   UNL     1       2.572   2.518  20.914  0.00  0.00    +0.000 C 
ATOM     34  C   UNL     1       3.892   4.151  19.632  0.00  0.00    +0.000 C 
ATOM     35  C   UNL     1       1.982   4.616  18.134  0.00  0.00    +0.000 C 
BRANCH  32  36
ATOM     36  O   UNL     1       4.723   1.934  19.944  0.00  0.00    +0.000 OA
ATOM     37  H   UNL     1       4.503   0.989  19.876  0.00  0.00    +0.000 HD
ENDBRANCH  32  36
ENDBRANCH  25  26
ENDBRANCH  22  25
BRANCH  23  38
ATOM     38  C   UNL     1       5.273   6.277  17.526  0.00  0.00    +0.000 C 
BRANCH  38  39
ATOM     39  O   UNL     1       5.268   5.108  16.708  0.00  0.00    +0.000 OA
ATOM     40  H   UNL     1       6.160   5.062  16.308  0.00  0.00    +0.000 HD
ENDBRANCH  38  39
ENDBRANCH  23  38
ENDBRANCH  21  22
ENDBRANCH   1  21
TORSDOF 10
ENDMDL
MODEL 6
REMARK VINA RESULT:      -8.4      1.567      2.526
REMARK  Name = 
REMARK  10 active torsions:
REMARK  status: ('A' for Active; 'I' for Inactive)
REMARK    1  A    between atoms: C_2  and  C_4
REMARK    2  A    between atoms: C_8  and  C_9
REMARK    3  A    between atoms: N_16  and  C_17
REMARK    4  A    between atoms: C_17  and  C_18
REMARK    5  A    between atoms: C_18  and  N_19
REMARK    6  A    between atoms: N_19  and  C_20
REMARK    7  A    between atoms: C_20  and  C_21
REMARK    8  A    between atoms: C_27  and  O_28
REMARK    9  A    between atoms: C_32  and  C_34
REMARK   10  A    between atoms: C_34  and  O_35
REMARK                            x       y       z     vdW  Elec       q    Type
REMARK                         _______ _______ _______ _____ _____    ______ ____
ROOT
ATOM      1  C   UNL     1       2.113   9.572  18.055  0.00  0.00    +0.000 C 
ENDROOT
BRANCH   1   9
ATOM      2  C   UNL     1      -1.300  11.372  18.443  0.00  0.00    +0.000 C 
ATOM      3  C   UNL     1      -1.009   9.871  18.659  0.00  0.00    +0.000 C 
ATOM      4  C   UNL     1       0.179   9.530  19.586  0.00  0.00    +0.000 C 
ATOM      5  C   UNL     1       0.013  10.087  20.995  0.00  0.00    +0.000 C 
ATOM      6  C   UNL     1       0.692  11.457  20.941  0.00  0.00    +0.000 C 
ATOM      7  C   UNL     1       1.128  11.614  19.460  0.00  0.00    +0.000 C 
ATOM      8  C   UNL     1      -0.065  12.275  18.714  0.00  0.00    +0.000 C 
ATOM      9  N   UNL     1       1.427  10.209  19.191  0.00  0.00    +0.000 NA
BRANCH   2  14
ATOM     10  C   UNL     1      -3.681  13.411  20.690  0.00  0.00    +0.000 A 
ATOM     11  C   UNL     1      -4.942  13.098  20.187  0.00  0.00    +0.000 A 
ATOM     12  C   UNL     1      -5.050  12.234  19.092  0.00  0.00    +0.000 A 
ATOM     13  C   UNL     1      -3.897  11.669  18.512  0.00  0.00    +0.000 A 
ATOM     14  C   UNL     1      -2.614  11.947  19.008  0.00  0.00    +0.000 A 
ATOM     15  C   UNL     1      -2.539  12.850  20.092  0.00  0.00    +0.000 A 
BRANCH  10  17
ATOM     16  N   UNL     1      -4.349  15.428  21.924  0.00  0.00    +0.000 N 
ATOM     17  C   UNL     1      -3.495  14.362  21.825  0.00  0.00    +0.000 C 
ATOM     18  O   UNL     1      -2.633  14.183  22.673  0.00  0.00    +0.000 OA
ATOM     19  H   UNL     1      -4.262  15.986  22.764  0.00  0.00    +0.000 HD
ATOM     20  H   UNL     1      -5.195  15.513  21.385  0.00  0.00    +0.000 HD
ENDBRANCH  10  17
ENDBRANCH   2  14
ENDBRANCH   1   9
BRANCH   1  21
ATOM     21  C   UNL     1       2.049   8.025  17.628  0.00  0.00    +0.000 C 
BRANCH  21  22
ATOM     22  N   UNL     1       3.296   7.247  18.081  0.00  0.00    +0.000 N 
ATOM     23  C   UNL     1       4.285   7.087  17.092  0.00  0.00    +0.000 C 
ATOM     24  O   UNL     1       4.172   7.560  15.953  0.00  0.00    +0.000 OA
BRANCH  22  25
ATOM     25  C   UNL     1       3.416   6.448  19.360  0.00  0.00    +0.000 C 
BRANCH  25  26
ATOM     26  C   UNL     1       2.872   4.996  19.457  0.00  0.00    +0.000 C 
ATOM     27  C   UNL     1       1.874   4.834  20.630  0.00  0.00    +0.000 C 
ATOM     28  C   UNL     1       1.513   3.348  20.825  0.00  0.00    +0.000 C 
ATOM     29  C   UNL     1       0.776   2.830  19.579  0.00  0.00    +0.000 C 
ATOM     30  C   UNL     1       1.651   3.031  18.330  0.00  0.00    +0.000 C 
ATOM     31  C   UNL     1       2.907   2.161  18.497  0.00  0.00    +0.000 C 
ATOM     32  C   UNL     1       3.672   2.607  19.742  0.00  0.00    +0.000 C 
ATOM     33  C   UNL     1       2.804   2.531  21.011  0.00  0.00    +0.000 C 
ATOM     34  C   UNL     1       4.072   4.053  19.552  0.00  0.00    +0.000 C 
ATOM     35  C   UNL     1       2.064   4.529  18.192  0.00  0.00    +0.000 C 
BRANCH  32  36
ATOM     36  O   UNL     1       4.844   1.820  19.899  0.00  0.00    +0.000 OA
ATOM     37  H   UNL     1       5.600   2.326  19.554  0.00  0.00    +0.000 HD
ENDBRANCH  32  36
ENDBRANCH  25  26
ENDBRANCH  22  25
BRANCH  23  38
ATOM     38  C   UNL     1       5.561   6.288  17.419  0.00  0.00    +0.000 C 
BRANCH  38  39
ATOM     39  O   UNL     1       6.733   6.920  16.908  0.00  0.00    +0.000 OA
ATOM     40  H   UNL     1       6.584   7.881  17.018  0.00  0.00    +0.000 HD
ENDBRANCH  38  39
ENDBRANCH  23  38
ENDBRANCH  21  22
ENDBRANCH   1  21
TORSDOF 10
ENDMDL
MODEL 7
REMARK VINA RESULT:      -8.3      1.850      2.345
REMARK  Name = 
REMARK  10 active torsions:
REMARK  status: ('A' for Active; 'I' for Inactive)
REMARK    1  A    between atoms: C_2  and  C_4
REMARK    2  A    between atoms: C_8  and  C_9
REMARK    3  A    between atoms: N_16  and  C_17
REMARK    4  A    between atoms: C_17  and  C_18
REMARK    5  A    between atoms: C_18  and  N_19
REMARK    6  A    between atoms: N_19  and  C_20
REMARK    7  A    between atoms: C_20  and  C_21
REMARK    8  A    between atoms: C_27  and  O_28
REMARK    9  A    between atoms: C_32  and  C_34
REMARK   10  A    between atoms: C_34  and  O_35
REMARK                            x       y       z     vdW  Elec       q    Type
REMARK                         _______ _______ _______ _____ _____    ______ ____
ROOT
ATOM      1  C   UNL     1       2.268   8.206  18.888  0.00  0.00    +0.000 C 
ENDROOT
BRANCH   1   9
ATOM      2  C   UNL     1       1.600  11.984  19.453  0.00  0.00    +0.000 C 
ATOM      3  C   UNL     1       1.718  11.252  18.098  0.00  0.00    +0.000 C 
ATOM      4  C   UNL     1       0.853   9.984  17.928  0.00  0.00    +0.000 C 
ATOM      5  C   UNL     1      -0.640  10.258  18.078  0.00  0.00    +0.000 C 
ATOM      6  C   UNL     1      -0.918  10.020  19.563  0.00  0.00    +0.000 C 
ATOM      7  C   UNL     1       0.473   9.704  20.172  0.00  0.00    +0.000 C 
ATOM      8  C   UNL     1       1.091  11.065  20.597  0.00  0.00    +0.000 C 
ATOM      9  N   UNL     1       1.042   9.010  19.019  0.00  0.00    +0.000 NA
BRANCH   2  14
ATOM     10  C   UNL     1      -0.883  14.820  20.273  0.00  0.00    +0.000 A 
ATOM     11  C   UNL     1      -0.353  15.915  19.596  0.00  0.00    +0.000 A 
ATOM     12  C   UNL     1       0.835  15.767  18.873  0.00  0.00    +0.000 A 
ATOM     13  C   UNL     1       1.483  14.517  18.813  0.00  0.00    +0.000 A 
ATOM     14  C   UNL     1       0.965  13.389  19.467  0.00  0.00    +0.000 A 
ATOM     15  C   UNL     1      -0.217  13.582  20.216  0.00  0.00    +0.000 A 
BRANCH  10  17
ATOM     16  N   UNL     1      -2.087  15.709  22.222  0.00  0.00    +0.000 N 
ATOM     17  C   UNL     1      -2.121  14.922  21.101  0.00  0.00    +0.000 C 
ATOM     18  O   UNL     1      -3.156  14.358  20.775  0.00  0.00    +0.000 OA
ATOM     19  H   UNL     1      -2.972  15.841  22.694  0.00  0.00    +0.000 HD
ATOM     20  H   UNL     1      -1.341  16.353  22.426  0.00  0.00    +0.000 HD
ENDBRANCH  10  17
ENDBRANCH   2  14
ENDBRANCH   1   9
BRANCH   1  21
ATOM     21  C   UNL     1       3.034   7.821  17.530  0.00  0.00    +0.000 C 
BRANCH  21  22
ATOM     22  N   UNL     1       4.225   6.881  17.784  0.00  0.00    +0.000 N 
ATOM     23  C   UNL     1       5.036   6.637  16.659  0.00  0.00    +0.000 C 
ATOM     24  O   UNL     1       4.824   7.162  15.558  0.00  0.00    +0.000 OA
BRANCH  22  25
ATOM     25  C   UNL     1       4.422   6.027  19.016  0.00  0.00    +0.000 C 
BRANCH  25  26
ATOM     26  C   UNL     1       3.639   4.699  19.211  0.00  0.00    +0.000 C 
ATOM     27  C   UNL     1       2.613   4.802  20.366  0.00  0.00    +0.000 C 
ATOM     28  C   UNL     1       2.003   3.418  20.666  0.00  0.00    +0.000 C 
ATOM     29  C   UNL     1       1.205   2.932  19.445  0.00  0.00    +0.000 C 
ATOM     30  C   UNL     1       2.118   2.882  18.208  0.00  0.00    +0.000 C 
ATOM     31  C   UNL     1       3.206   1.830  18.475  0.00  0.00    +0.000 C 
ATOM     32  C   UNL     1       4.019   2.241  19.702  0.00  0.00    +0.000 C 
ATOM     33  C   UNL     1       3.134   2.414  20.949  0.00  0.00    +0.000 C 
ATOM     34  C   UNL     1       4.661   3.580  19.411  0.00  0.00    +0.000 C 
ATOM     35  C   UNL     1       2.780   4.273  17.966  0.00  0.00    +0.000 C 
BRANCH  32  36
ATOM     36  O   UNL     1       5.040   1.284  19.950  0.00  0.00    +0.000 OA
ATOM     37  H   UNL     1       4.761   0.435  19.568  0.00  0.00    +0.000 HD
ENDBRANCH  32  36
ENDBRANCH  25  26
ENDBRANCH  22  25
BRANCH  23  38
ATOM     38  C   UNL     1       6.235   5.678  16.783  0.00  0.00    +0.000 C 
BRANCH  38  39
ATOM     39  O   UNL     1       7.443   6.267  16.309  0.00  0.00    +0.000 OA
ATOM     40  H   UNL     1       8.166   5.723  16.682  0.00  0.00    +0.000 HD
ENDBRANCH  38  39
ENDBRANCH  23  38
ENDBRANCH  21  22
ENDBRANCH   1  21
TORSDOF 10
ENDMDL
MODEL 8
REMARK VINA RESULT:      -8.2      1.045      1.435
REMARK  Name = 
REMARK  10 active torsions:
REMARK  status: ('A' for Active; 'I' for Inactive)
REMARK    1  A    between atoms: C_2  and  C_4
REMARK    2  A    between atoms: C_8  and  C_9
REMARK    3  A    between atoms: N_16  and  C_17
REMARK    4  A    between atoms: C_17  and  C_18
REMARK    5  A    between atoms: C_18  and  N_19
REMARK    6  A    between atoms: N_19  and  C_20
REMARK    7  A    between atoms: C_20  and  C_21
REMARK    8  A    between atoms: C_27  and  O_28
REMARK    9  A    between atoms: C_32  and  C_34
REMARK   10  A    between atoms: C_34  and  O_35
REMARK                            x       y       z     vdW  Elec       q    Type
REMARK                         _______ _______ _______ _____ _____    ______ ____
ROOT
ATOM      1  C   UNL     1       1.435   9.046  19.068  0.00  0.00    +0.000 C 
ENDROOT
BRANCH   1   9
ATOM      2  C   UNL     1      -1.396  11.308  20.451  0.00  0.00    +0.000 C 
ATOM      3  C   UNL     1      -0.172  10.768  21.225  0.00  0.00    +0.000 C 
ATOM      4  C   UNL     1       1.207  10.991  20.568  0.00  0.00    +0.000 C 
ATOM      5  C   UNL     1       1.526  12.465  20.342  0.00  0.00    +0.000 C 
ATOM      6  C   UNL     1       1.016  12.749  18.929  0.00  0.00    +0.000 C 
ATOM      7  C   UNL     1       0.362  11.416  18.479  0.00  0.00    +0.000 C 
ATOM      8  C   UNL     1      -1.125  11.478  18.931  0.00  0.00    +0.000 C 
ATOM      9  N   UNL     1       1.265  10.505  19.177  0.00  0.00    +0.000 NA
BRANCH   2  14
ATOM     10  C   UNL     1      -3.465  13.322  23.008  0.00  0.00    +0.000 A 
ATOM     11  C   UNL     1      -3.684  14.535  22.358  0.00  0.00    +0.000 A 
ATOM     12  C   UNL     1      -3.148  14.737  21.083  0.00  0.00    +0.000 A 
ATOM     13  C   UNL     1      -2.408  13.719  20.449  0.00  0.00    +0.000 A 
ATOM     14  C   UNL     1      -2.186  12.479  21.067  0.00  0.00    +0.000 A 
ATOM     15  C   UNL     1      -2.712  12.320  22.369  0.00  0.00    +0.000 A 
BRANCH  10  17
ATOM     16  N   UNL     1      -3.793  14.032  25.337  0.00  0.00    +0.000 N 
ATOM     17  C   UNL     1      -3.969  13.060  24.388  0.00  0.00    +0.000 C 
ATOM     18  O   UNL     1      -4.561  12.027  24.667  0.00  0.00    +0.000 OA
ATOM     19  H   UNL     1      -4.244  13.864  26.228  0.00  0.00    +0.000 HD
ATOM     20  H   UNL     1      -3.505  14.972  25.123  0.00  0.00    +0.000 HD
ENDBRANCH  10  17
ENDBRANCH   2  14
ENDBRANCH   1   9
BRANCH   1  21
ATOM     21  C   UNL     1       2.007   8.229  17.809  0.00  0.00    +0.000 C 
BRANCH  21  22
ATOM     22  N   UNL     1       3.197   7.334  18.192  0.00  0.00    +0.000 N 
ATOM     23  C   UNL     1       4.134   7.122  17.163  0.00  0.00    +0.000 C 
ATOM     24  O   UNL     1       4.023   7.640  16.043  0.00  0.00    +0.000 OA
BRANCH  22  25
ATOM     25  C   UNL     1       3.291   6.486  19.441  0.00  0.00    +0.000 C 
BRANCH  25  26
ATOM     26  C   UNL     1       2.766   5.023  19.464  0.00  0.00    +0.000 C 
ATOM     27  C   UNL     1       1.678   4.821  20.547  0.00  0.00    +0.000 C 
ATOM     28  C   UNL     1       1.329   3.326  20.682  0.00  0.00    +0.000 C 
ATOM     29  C   UNL     1       0.706   2.822  19.369  0.00  0.00    +0.000 C 
ATOM     30  C   UNL     1       1.677   3.064  18.202  0.00  0.00    +0.000 C 
ATOM     31  C   UNL     1       2.930   2.210  18.455  0.00  0.00    +0.000 C 
ATOM     32  C   UNL     1       3.582   2.642  19.768  0.00  0.00    +0.000 C 
ATOM     33  C   UNL     1       2.613   2.526  20.958  0.00  0.00    +0.000 C 
ATOM     34  C   UNL     1       3.971   4.098  19.640  0.00  0.00    +0.000 C 
ATOM     35  C   UNL     1       2.074   4.570  18.128  0.00  0.00    +0.000 C 
BRANCH  32  36
ATOM     36  O   UNL     1       4.751   1.871  20.006  0.00  0.00    +0.000 OA
ATOM     37  H   UNL     1       5.504   2.321  19.587  0.00  0.00    +0.000 HD
ENDBRANCH  32  36
ENDBRANCH  25  26
ENDBRANCH  22  25
BRANCH  23  38
ATOM     38  C   UNL     1       5.347   6.207  17.419  0.00  0.00    +0.000 C 
BRANCH  38  39
ATOM     39  O   UNL     1       6.499   6.946  17.818  0.00  0.00    +0.000 OA
ATOM     40  H   UNL     1       7.131   6.282  18.163  0.00  0.00    +0.000 HD
ENDBRANCH  38  39
ENDBRANCH  23  38
ENDBRANCH  21  22
ENDBRANCH   1  21
TORSDOF 10
ENDMDL
MODEL 9
REMARK VINA RESULT:      -8.2      3.402      5.137
REMARK  Name = 
REMARK  10 active torsions:
REMARK  status: ('A' for Active; 'I' for Inactive)
REMARK    1  A    between atoms: C_2  and  C_4
REMARK    2  A    between atoms: C_8  and  C_9
REMARK    3  A    between atoms: N_16  and  C_17
REMARK    4  A    between atoms: C_17  and  C_18
REMARK    5  A    between atoms: C_18  and  N_19
REMARK    6  A    between atoms: N_19  and  C_20
REMARK    7  A    between atoms: C_20  and  C_21
REMARK    8  A    between atoms: C_27  and  O_28
REMARK    9  A    between atoms: C_32  and  C_34
REMARK   10  A    between atoms: C_34  and  O_35
REMARK                            x       y       z     vdW  Elec       q    Type
REMARK                         _______ _______ _______ _____ _____    ______ ____
ROOT
ATOM      1  C   UNL     1       2.005   8.108  19.488  0.00  0.00    +0.000 C 
ENDROOT
BRANCH   1   9
ATOM      2  C   UNL     1       1.722  11.976  19.415  0.00  0.00    +0.000 C 
ATOM      3  C   UNL     1       1.839  11.027  18.201  0.00  0.00    +0.000 C 
ATOM      4  C   UNL     1       0.851   9.840  18.162  0.00  0.00    +0.000 C 
ATOM      5  C   UNL     1      -0.608  10.280  18.155  0.00  0.00    +0.000 C 
ATOM      6  C   UNL     1      -0.998  10.313  19.634  0.00  0.00    +0.000 C 
ATOM      7  C   UNL     1       0.311   9.962  20.387  0.00  0.00    +0.000 C 
ATOM      8  C   UNL     1       1.049  11.307  20.645  0.00  0.00    +0.000 C 
ATOM      9  N   UNL     1       0.868   9.040  19.401  0.00  0.00    +0.000 NA
BRANCH   2  14
ATOM     10  C   UNL     1       1.884  15.776  18.776  0.00  0.00    +0.000 A 
ATOM     11  C   UNL     1       0.543  16.147  18.706  0.00  0.00    +0.000 A 
ATOM     12  C   UNL     1      -0.448  15.169  18.843  0.00  0.00    +0.000 A 
ATOM     13  C   UNL     1      -0.097  13.823  19.069  0.00  0.00    +0.000 A 
ATOM     14  C   UNL     1       1.244  13.420  19.165  0.00  0.00    +0.000 A 
ATOM     15  C   UNL     1       2.219  14.426  18.987  0.00  0.00    +0.000 A 
BRANCH  10  17
ATOM     16  N   UNL     1       3.718  17.132  19.688  0.00  0.00    +0.000 N 
ATOM     17  C   UNL     1       2.989  16.761  18.590  0.00  0.00    +0.000 C 
ATOM     18  O   UNL     1       3.273  17.202  17.485  0.00  0.00    +0.000 OA
ATOM     19  H   UNL     1       4.526  17.714  19.505  0.00  0.00    +0.000 HD
ATOM     20  H   UNL     1       3.670  16.655  20.574  0.00  0.00    +0.000 HD
ENDBRANCH  10  17
ENDBRANCH   2  14
ENDBRANCH   1   9
BRANCH   1  21
ATOM     21  C   UNL     1       2.094   6.767  20.366  0.00  0.00    +0.000 C 
BRANCH  21  22
ATOM     22  N   UNL     1       2.208   5.508  19.491  0.00  0.00    +0.000 N 
ATOM     23  C   UNL     1       2.151   4.290  20.196  0.00  0.00    +0.000 C 
ATOM     24  O   UNL     1       1.993   4.237  21.423  0.00  0.00    +0.000 OA
BRANCH  22  25
ATOM     25  C   UNL     1       2.628   5.484  18.039  0.00  0.00    +0.000 C 
BRANCH  25  26
ATOM     26  C   UNL     1       4.129   5.511  17.633  0.00  0.00    +0.000 C 
ATOM     27  C   UNL     1       4.495   4.323  16.709  0.00  0.00    +0.000 C 
ATOM     28  C   UNL     1       6.020   4.263  16.494  0.00  0.00    +0.000 C 
ATOM     29  C   UNL     1       6.485   5.525  15.749  0.00  0.00    +0.000 C 
ATOM     30  C   UNL     1       6.084   6.780  16.544  0.00  0.00    +0.000 C 
ATOM     31  C   UNL     1       6.844   6.747  17.880  0.00  0.00    +0.000 C 
ATOM     32  C   UNL     1       6.447   5.493  18.658  0.00  0.00    +0.000 C 
ATOM     33  C   UNL     1       6.725   4.207  17.860  0.00  0.00    +0.000 C 
ATOM     34  C   UNL     1       4.958   5.554  18.916  0.00  0.00    +0.000 C 
ATOM     35  C   UNL     1       4.548   6.784  16.813  0.00  0.00    +0.000 C 
BRANCH  32  36
ATOM     36  O   UNL     1       7.131   5.458  19.903  0.00  0.00    +0.000 OA
ATOM     37  H   UNL     1       7.355   6.371  20.153  0.00  0.00    +0.000 HD
ENDBRANCH  32  36
ENDBRANCH  25  26
ENDBRANCH  22  25
BRANCH  23  38
ATOM     38  C   UNL     1       2.297   2.963  19.427  0.00  0.00    +0.000 C 
BRANCH  38  39
ATOM     39  O   UNL     1       3.392   2.185  19.906  0.00  0.00    +0.000 OA
ATOM     40  H   UNL     1       3.165   1.256  19.698  0.00  0.00    +0.000 HD
ENDBRANCH  38  39
ENDBRANCH  23  38
ENDBRANCH  21  22
ENDBRANCH   1  21
TORSDOF 10
ENDMDL
