MODEL 1
REMARK VINA RESULT:      -8.3      0.000      0.000
REMARK  Name = 
REMARK  2 active torsions:
REMARK  status: ('A' for Active; 'I' for Inactive)
REMARK    1  A    between atoms: C_2  and  C_3
REMARK    2  A    between atoms: C_15  and  N_16
REMARK                            x       y       z     vdW  Elec       q    Type
REMARK                         _______ _______ _______ _____ _____    ______ ____
ROOT
ATOM      1  O   UNL     1       1.874   7.061  20.676  0.00  0.00    +0.000 OA
ATOM      2  C   UNL     1       2.107   7.469  19.539  0.00  0.00    +0.000 C 
ATOM      3  N   UNL     1       1.597   8.666  19.096  0.00  0.00    +0.000 N 
ATOM      4  C   UNL     1       0.852   9.688  19.824  0.00  0.00    +0.000 C 
ATOM      5  C   UNL     1       0.753  10.395  18.444  0.00  0.00    +0.000 C 
ATOM      6  C   UNL     1       2.036   9.617  18.079  0.00  0.00    +0.000 C 
ENDROOT
BRANCH   2   7
ATOM      7  C   UNL     1       2.893   6.738  18.557  0.00  0.00    +0.000 A 
ATOM      8  C   UNL     1       3.789   7.227  17.629  0.00  0.00    +0.000 A 
ATOM      9  C   UNL     1       4.490   6.204  16.921  0.00  0.00    +0.000 A 
ATOM     10  C   UNL     1       5.549   6.301  15.990  0.00  0.00    +0.000 A 
ATOM     11  C   UNL     1       6.069   5.143  15.419  0.00  0.00    +0.000 A 
ATOM     12  F   UNL     1       7.081   5.244  14.548  0.00  0.00    +0.000 F 
ATOM     13  C   UNL     1       5.562   3.894  15.737  0.00  0.00    +0.000 A 
ATOM     14  C   UNL     1       4.518   3.772  16.656  0.00  0.00    +0.000 A 
ATOM     15  C   UNL     1       3.997   4.939  17.251  0.00  0.00    +0.000 A 
ATOM     16  S   UNL     1       2.742   5.044  18.428  0.00  0.00    +0.000 S 
ENDBRANCH   2   7
BRANCH   5  17
ATOM     17  N   UNL     1      -0.384   9.937  17.655  0.00  0.00    +0.000 N 
ATOM     18  C   UNL     1      -1.672  10.470  17.889  0.00  0.00    +0.000 A 
ATOM     19  C   UNL     1      -2.750   9.955  17.180  0.00  0.00    +0.000 A 
ATOM     20  C   UNL     1      -4.016  10.492  17.389  0.00  0.00    +0.000 A 
ATOM     21  C   UNL     1      -4.139  11.529  18.289  0.00  0.00    +0.000 A 
ATOM     22  N   UNL     1      -3.087  12.028  18.960  0.00  0.00    +0.000 NA
ATOM     23  N   UNL     1      -1.844  11.495  18.748  0.00  0.00    +0.000 NA
ATOM     24  H   UNL     1      -0.450   8.921  17.683  0.00  0.00    +0.000 HD
ENDBRANCH   5  17
TORSDOF 2
ENDMDL
MODEL 2
REMARK VINA RESULT:      -8.0      4.135      8.080
REMARK  Name = 
REMARK  2 active torsions:
REMARK  status: ('A' for Active; 'I' for Inactive)
REMARK    1  A    between atoms: C_2  and  C_3
REMARK    2  A    between atoms: C_15  and  N_16
REMARK                            x       y       z     vdW  Elec       q    Type
REMARK                         _______ _______ _______ _____ _____    ______ ____
ROOT
ATOM      1  O   UNL     1       0.826  11.990  21.198  0.00  0.00    +0.000 OA
ATOM      2  C   UNL     1       0.263  11.022  20.691  0.00  0.00    +0.000 C 
ATOM      3  N   UNL     1       0.598   9.738  21.049  0.00  0.00    +0.000 N 
ATOM      4  C   UNL     1       1.504   9.267  22.092  0.00  0.00    +0.000 C 
ATOM      5  C   UNL     1       1.180   7.854  21.536  0.00  0.00    +0.000 C 
ATOM      6  C   UNL     1      -0.138   8.477  21.028  0.00  0.00    +0.000 C 
ENDROOT
BRANCH   2   7
ATOM      7  C   UNL     1      -0.762  11.122  19.663  0.00  0.00    +0.000 A 
ATOM      8  C   UNL     1      -0.750  10.619  18.378  0.00  0.00    +0.000 A 
ATOM      9  C   UNL     1      -1.992  10.782  17.692  0.00  0.00    +0.000 A 
ATOM     10  C   UNL     1      -2.404  10.308  16.426  0.00  0.00    +0.000 A 
ATOM     11  C   UNL     1      -3.680  10.609  15.962  0.00  0.00    +0.000 A 
ATOM     12  F   UNL     1      -4.066  10.144  14.767  0.00  0.00    +0.000 F 
ATOM     13  C   UNL     1      -4.556  11.376  16.712  0.00  0.00    +0.000 A 
ATOM     14  C   UNL     1      -4.173  11.855  17.967  0.00  0.00    +0.000 A 
ATOM     15  C   UNL     1      -2.888  11.539  18.451  0.00  0.00    +0.000 A 
ATOM     16  S   UNL     1      -2.203  11.981  19.970  0.00  0.00    +0.000 S 
ENDBRANCH   2   7
BRANCH   5  17
ATOM     17  N   UNL     1       2.045   7.472  20.426  0.00  0.00    +0.000 N 
ATOM     18  C   UNL     1       2.225   6.109  20.100  0.00  0.00    +0.000 A 
ATOM     19  C   UNL     1       3.120   5.772  19.092  0.00  0.00    +0.000 A 
ATOM     20  C   UNL     1       3.283   4.433  18.752  0.00  0.00    +0.000 A 
ATOM     21  C   UNL     1       2.531   3.497  19.429  0.00  0.00    +0.000 A 
ATOM     22  N   UNL     1       1.659   3.835  20.394  0.00  0.00    +0.000 NA
ATOM     23  N   UNL     1       1.504   5.155  20.722  0.00  0.00    +0.000 NA
ATOM     24  H   UNL     1       2.965   7.899  20.530  0.00  0.00    +0.000 HD
ENDBRANCH   5  17
TORSDOF 2
ENDMDL
MODEL 3
REMARK VINA RESULT:      -7.6      3.560      4.992
REMARK  Name = 
REMARK  2 active torsions:
REMARK  status: ('A' for Active; 'I' for Inactive)
REMARK    1  A    between atoms: C_2  and  C_3
REMARK    2  A    between atoms: C_15  and  N_16
REMARK                            x       y       z     vdW  Elec       q    Type
REMARK                         _______ _______ _______ _____ _____    ______ ____
ROOT
ATOM      1  O   UNL     1       1.430  12.782  18.768  0.00  0.00    +0.000 OA
ATOM      2  C   UNL     1       0.689  11.852  19.083  0.00  0.00    +0.000 C 
ATOM      3  N   UNL     1      -0.602  12.081  19.496  0.00  0.00    +0.000 N 
ATOM      4  C   UNL     1      -1.363  13.326  19.530  0.00  0.00    +0.000 C 
ATOM      5  C   UNL     1      -2.474  12.461  20.187  0.00  0.00    +0.000 C 
ATOM      6  C   UNL     1      -1.812  11.265  19.468  0.00  0.00    +0.000 C 
ENDROOT
BRANCH   2   7
ATOM      7  C   UNL     1       1.095  10.454  19.089  0.00  0.00    +0.000 A 
ATOM      8  C   UNL     1       1.623   9.703  18.059  0.00  0.00    +0.000 A 
ATOM      9  C   UNL     1       2.042   8.399  18.464  0.00  0.00    +0.000 A 
ATOM     10  C   UNL     1       2.722   7.394  17.740  0.00  0.00    +0.000 A 
ATOM     11  C   UNL     1       3.017   6.183  18.358  0.00  0.00    +0.000 A 
ATOM     12  F   UNL     1       3.674   5.242  17.668  0.00  0.00    +0.000 F 
ATOM     13  C   UNL     1       2.647   5.936  19.670  0.00  0.00    +0.000 A 
ATOM     14  C   UNL     1       1.976   6.914  20.407  0.00  0.00    +0.000 A 
ATOM     15  C   UNL     1       1.689   8.150  19.792  0.00  0.00    +0.000 A 
ATOM     16  S   UNL     1       0.907   9.514  20.499  0.00  0.00    +0.000 S 
ENDBRANCH   2   7
BRANCH   5  17
ATOM     17  N   UNL     1      -2.326  12.355  21.633  0.00  0.00    +0.000 N 
ATOM     18  C   UNL     1      -3.458  12.461  22.473  0.00  0.00    +0.000 A 
ATOM     19  C   UNL     1      -3.276  12.440  23.850  0.00  0.00    +0.000 A 
ATOM     20  C   UNL     1      -4.388  12.520  24.681  0.00  0.00    +0.000 A 
ATOM     21  C   UNL     1      -5.632  12.604  24.092  0.00  0.00    +0.000 A 
ATOM     22  N   UNL     1      -5.798  12.611  22.758  0.00  0.00    +0.000 NA
ATOM     23  N   UNL     1      -4.697  12.531  21.948  0.00  0.00    +0.000 NA
ATOM     24  H   UNL     1      -1.619  13.008  21.967  0.00  0.00    +0.000 HD
ENDBRANCH   5  17
TORSDOF 2
ENDMDL
MODEL 4
REMARK VINA RESULT:      -7.4      2.684      3.388
REMARK  Name = 
REMARK  2 active torsions:
REMARK  status: ('A' for Active; 'I' for Inactive)
REMARK    1  A    between atoms: C_2  and  C_3
REMARK    2  A    between atoms: C_15  and  N_16
REMARK                            x       y       z     vdW  Elec       q    Type
REMARK                         _______ _______ _______ _____ _____    ______ ____
ROOT
ATOM      1  O   UNL     1       1.754   8.877  22.151  0.00  0.00    +0.000 OA
ATOM      2  C   UNL     1       1.475   8.586  20.989  0.00  0.00    +0.000 C 
ATOM      3  N   UNL     1       0.870   9.497  20.155  0.00  0.00    +0.000 N 
ATOM      4  C   UNL     1       0.568  10.907  20.377  0.00  0.00    +0.000 C 
ATOM      5  C   UNL     1      -0.103  10.835  18.978  0.00  0.00    +0.000 C 
ATOM      6  C   UNL     1       0.851   9.653  18.704  0.00  0.00    +0.000 C 
ENDROOT
BRANCH   2   7
ATOM      7  C   UNL     1       1.712   7.278  20.397  0.00  0.00    +0.000 A 
ATOM      8  C   UNL     1       1.338   6.036  20.867  0.00  0.00    +0.000 A 
ATOM      9  C   UNL     1       1.612   4.976  19.951  0.00  0.00    +0.000 A 
ATOM     10  C   UNL     1       1.280   3.603  20.018  0.00  0.00    +0.000 A 
ATOM     11  C   UNL     1       1.671   2.752  18.990  0.00  0.00    +0.000 A 
ATOM     12  F   UNL     1       1.340   1.456  19.055  0.00  0.00    +0.000 F 
ATOM     13  C   UNL     1       2.391   3.219  17.903  0.00  0.00    +0.000 A 
ATOM     14  C   UNL     1       2.729   4.571  17.812  0.00  0.00    +0.000 A 
ATOM     15  C   UNL     1       2.322   5.443  18.842  0.00  0.00    +0.000 A 
ATOM     16  S   UNL     1       2.587   7.144  18.940  0.00  0.00    +0.000 S 
ENDBRANCH   2   7
BRANCH   5  17
ATOM     17  N   UNL     1      -1.490  10.391  19.039  0.00  0.00    +0.000 N 
ATOM     18  C   UNL     1      -2.355  10.605  17.942  0.00  0.00    +0.000 A 
ATOM     19  C   UNL     1      -3.692  10.246  18.061  0.00  0.00    +0.000 A 
ATOM     20  C   UNL     1      -4.542  10.433  16.977  0.00  0.00    +0.000 A 
ATOM     21  C   UNL     1      -4.009  10.959  15.819  0.00  0.00    +0.000 A 
ATOM     22  N   UNL     1      -2.711  11.291  15.710  0.00  0.00    +0.000 NA
ATOM     23  N   UNL     1      -1.881  11.103  16.783  0.00  0.00    +0.000 NA
ATOM     24  H   UNL     1      -1.943  10.753  19.877  0.00  0.00    +0.000 HD
ENDBRANCH   5  17
TORSDOF 2
ENDMDL
MODEL 5
REMARK VINA RESULT:      -7.4      3.168      4.274
REMARK  Name = 
REMARK  2 active torsions:
REMARK  status: ('A' for Active; 'I' for Inactive)
REMARK    1  A    between atoms: C_2  and  C_3
REMARK    2  A    between atoms: C_15  and  N_16
REMARK                            x       y       z     vdW  Elec       q    Type
REMARK                         _______ _______ _______ _____ _____    ______ ____
ROOT
ATOM      1  O   UNL     1       2.268  11.545  18.191  0.00  0.00    +0.000 OA
ATOM      2  C   UNL     1       1.415  10.757  18.596  0.00  0.00    +0.000 C 
ATOM      3  N   UNL     1       0.155  11.187  18.935  0.00  0.00    +0.000 N 
ATOM      4  C   UNL     1      -0.451  12.507  18.788  0.00  0.00    +0.000 C 
ATOM      5  C   UNL     1      -1.669  11.871  19.511  0.00  0.00    +0.000 C 
ATOM      6  C   UNL     1      -1.145  10.523  18.971  0.00  0.00    +0.000 C 
ENDROOT
BRANCH   2   7
ATOM      7  C   UNL     1       1.648   9.334  18.790  0.00  0.00    +0.000 A 
ATOM      8  C   UNL     1       2.072   8.394  17.873  0.00  0.00    +0.000 A 
ATOM      9  C   UNL     1       2.334   7.114  18.451  0.00  0.00    +0.000 A 
ATOM     10  C   UNL     1       2.879   5.946  17.871  0.00  0.00    +0.000 A 
ATOM     11  C   UNL     1       3.032   4.802  18.647  0.00  0.00    +0.000 A 
ATOM     12  F   UNL     1       3.563   3.705  18.092  0.00  0.00    +0.000 F 
ATOM     13  C   UNL     1       2.648   4.778  19.977  0.00  0.00    +0.000 A 
ATOM     14  C   UNL     1       2.108   5.920  20.573  0.00  0.00    +0.000 A 
ATOM     15  C   UNL     1       1.967   7.088  19.798  0.00  0.00    +0.000 A 
ATOM     16  S   UNL     1       1.363   8.619  20.312  0.00  0.00    +0.000 S 
ENDBRANCH   2   7
BRANCH   5  17
ATOM     17  N   UNL     1      -1.560  11.935  20.964  0.00  0.00    +0.000 N 
ATOM     18  C   UNL     1      -2.670  12.333  21.743  0.00  0.00    +0.000 A 
ATOM     19  C   UNL     1      -2.512  12.465  23.117  0.00  0.00    +0.000 A 
ATOM     20  C   UNL     1      -3.607  12.833  23.892  0.00  0.00    +0.000 A 
ATOM     21  C   UNL     1      -4.812  13.038  23.254  0.00  0.00    +0.000 A 
ATOM     22  N   UNL     1      -4.957  12.895  21.926  0.00  0.00    +0.000 NA
ATOM     23  N   UNL     1      -3.874  12.532  21.170  0.00  0.00    +0.000 NA
ATOM     24  H   UNL     1      -0.760  12.504  21.235  0.00  0.00    +0.000 HD
ENDBRANCH   5  17
TORSDOF 2
ENDMDL
MODEL 6
REMARK VINA RESULT:      -7.2      1.316      1.503
REMARK  Name = 
REMARK  2 active torsions:
REMARK  status: ('A' for Active; 'I' for Inactive)
REMARK    1  A    between atoms: C_2  and  C_3
REMARK    2  A    between atoms: C_15  and  N_16
REMARK                            x       y       z     vdW  Elec       q    Type
REMARK                         _______ _______ _______ _____ _____    ______ ____
ROOT
ATOM      1  O   UNL     1       2.033   5.832  20.731  0.00  0.00    +0.000 OA
ATOM      2  C   UNL     1       2.475   6.404  19.737  0.00  0.00    +0.000 C 
ATOM      3  N   UNL     1       2.054   7.669  19.399  0.00  0.00    +0.000 N 
ATOM      4  C   UNL     1       1.182   8.586  20.126  0.00  0.00    +0.000 C 
ATOM      5  C   UNL     1       1.344   9.500  18.880  0.00  0.00    +0.000 C 
ATOM      6  C   UNL     1       2.675   8.753  18.644  0.00  0.00    +0.000 C 
ENDROOT
BRANCH   2   7
ATOM      7  C   UNL     1       3.435   5.813  18.817  0.00  0.00    +0.000 A 
ATOM      8  C   UNL     1       3.220   5.306  17.552  0.00  0.00    +0.000 A 
ATOM      9  C   UNL     1       4.423   4.937  16.876  0.00  0.00    +0.000 A 
ATOM     10  C   UNL     1       4.624   4.493  15.549  0.00  0.00    +0.000 A 
ATOM     11  C   UNL     1       5.909   4.181  15.117  0.00  0.00    +0.000 A 
ATOM     12  F   UNL     1       6.091   3.774  13.854  0.00  0.00    +0.000 F 
ATOM     13  C   UNL     1       6.999   4.286  15.965  0.00  0.00    +0.000 A 
ATOM     14  C   UNL     1       6.826   4.725  17.280  0.00  0.00    +0.000 A 
ATOM     15  C   UNL     1       5.529   5.059  17.719  0.00  0.00    +0.000 A 
ATOM     16  S   UNL     1       5.070   5.650  19.272  0.00  0.00    +0.000 S 
ENDBRANCH   2   7
BRANCH   5  17
ATOM     17  N   UNL     1       0.378   9.200  17.830  0.00  0.00    +0.000 N 
ATOM     18  C   UNL     1      -0.800   9.971  17.707  0.00  0.00    +0.000 A 
ATOM     19  C   UNL     1      -1.741   9.610  16.750  0.00  0.00    +0.000 A 
ATOM     20  C   UNL     1      -2.891  10.380  16.609  0.00  0.00    +0.000 A 
ATOM     21  C   UNL     1      -3.036  11.482  17.423  0.00  0.00    +0.000 A 
ATOM     22  N   UNL     1      -2.114  11.830  18.336  0.00  0.00    +0.000 NA
ATOM     23  N   UNL     1      -0.984  11.068  18.468  0.00  0.00    +0.000 NA
ATOM     24  H   UNL     1       0.113   8.217  17.862  0.00  0.00    +0.000 HD
ENDBRANCH   5  17
TORSDOF 2
ENDMDL
MODEL 7
REMARK VINA RESULT:      -7.2      3.621      4.942
REMARK  Name = 
REMARK  2 active torsions:
REMARK  status: ('A' for Active; 'I' for Inactive)
REMARK    1  A    between atoms: C_2  and  C_3
REMARK    2  A    between atoms: C_15  and  N_16
REMARK                            x       y       z     vdW  Elec       q    Type
REMARK                         _______ _______ _______ _____ _____    ______ ____
ROOT
ATOM      1  O   UNL     1       2.015  12.018  18.529  0.00  0.00    +0.000 OA
ATOM      2  C   UNL     1       1.216  11.172  18.927  0.00  0.00    +0.000 C 
ATOM      3  N   UNL     1      -0.070  11.517  19.270  0.00  0.00    +0.000 N 
ATOM      4  C   UNL     1      -0.760  12.796  19.136  0.00  0.00    +0.000 C 
ATOM      5  C   UNL     1      -1.934  12.074  19.854  0.00  0.00    +0.000 C 
ATOM      6  C   UNL     1      -1.324  10.769  19.300  0.00  0.00    +0.000 C 
ENDROOT
BRANCH   2   7
ATOM      7  C   UNL     1       1.541   9.765  19.108  0.00  0.00    +0.000 A 
ATOM      8  C   UNL     1       1.441   8.995  20.247  0.00  0.00    +0.000 A 
ATOM      9  C   UNL     1       1.710   7.610  20.022  0.00  0.00    +0.000 A 
ATOM     10  C   UNL     1       1.603   6.506  20.898  0.00  0.00    +0.000 A 
ATOM     11  C   UNL     1       1.935   5.234  20.443  0.00  0.00    +0.000 A 
ATOM     12  F   UNL     1       1.817   4.192  21.276  0.00  0.00    +0.000 F 
ATOM     13  C   UNL     1       2.382   5.027  19.149  0.00  0.00    +0.000 A 
ATOM     14  C   UNL     1       2.495   6.102  18.264  0.00  0.00    +0.000 A 
ATOM     15  C   UNL     1       2.144   7.390  18.713  0.00  0.00    +0.000 A 
ATOM     16  S   UNL     1       2.166   8.857  17.807  0.00  0.00    +0.000 S 
ENDBRANCH   2   7
BRANCH   5  17
ATOM     17  N   UNL     1      -1.828  12.132  21.307  0.00  0.00    +0.000 N 
ATOM     18  C   UNL     1      -2.971  12.403  22.093  0.00  0.00    +0.000 A 
ATOM     19  C   UNL     1      -2.823  12.535  23.468  0.00  0.00    +0.000 A 
ATOM     20  C   UNL     1      -3.948  12.778  24.249  0.00  0.00    +0.000 A 
ATOM     21  C   UNL     1      -5.170  12.866  23.616  0.00  0.00    +0.000 A 
ATOM     22  N   UNL     1      -5.303  12.725  22.286  0.00  0.00    +0.000 NA
ATOM     23  N   UNL     1      -4.190  12.484  21.525  0.00  0.00    +0.000 NA
ATOM     24  H   UNL     1      -1.090  12.777  21.584  0.00  0.00    +0.000 HD
ENDBRANCH   5  17
TORSDOF 2
ENDMDL
MODEL 8
REMARK VINA RESULT:      -7.2      4.647      8.215
REMARK  Name = 
REMARK  2 active torsions:
REMARK  status: ('A' for Active; 'I' for Inactive)
REMARK    1  A    between atoms: C_2  and  C_3
REMARK    2  A    between atoms: C_15  and  N_16
REMARK                            x       y       z     vdW  Elec       q    Type
REMARK                         _______ _______ _______ _____ _____    ______ ____
ROOT
ATOM      1  O   UNL     1       2.398   4.549  21.569  0.00  0.00    +0.000 OA
ATOM      2  C   UNL     1       2.470   5.016  20.434  0.00  0.00    +0.000 C 
ATOM      3  N   UNL     1       2.982   4.277  19.393  0.00  0.00    +0.000 N 
ATOM      4  C   UNL     1       3.394   2.877  19.358  0.00  0.00    +0.000 C 
ATOM      5  C   UNL     1       3.827   3.191  17.899  0.00  0.00    +0.000 C 
ATOM      6  C   UNL     1       2.776   4.322  17.949  0.00  0.00    +0.000 C 
ENDROOT
BRANCH   2   7
ATOM      7  C   UNL     1       2.068   6.369  20.083  0.00  0.00    +0.000 A 
ATOM      8  C   UNL     1       1.327   7.270  20.820  0.00  0.00    +0.000 A 
ATOM      9  C   UNL     1       1.248   8.565  20.223  0.00  0.00    +0.000 A 
ATOM     10  C   UNL     1       0.685   9.764  20.716  0.00  0.00    +0.000 A 
ATOM     11  C   UNL     1       0.722  10.912  19.932  0.00  0.00    +0.000 A 
ATOM     12  F   UNL     1       0.200  12.047  20.414  0.00  0.00    +0.000 F 
ATOM     13  C   UNL     1       1.290  10.904  18.669  0.00  0.00    +0.000 A 
ATOM     14  C   UNL     1       1.854   9.732  18.160  0.00  0.00    +0.000 A 
ATOM     15  C   UNL     1       1.835   8.569  18.956  0.00  0.00    +0.000 A 
ATOM     16  S   UNL     1       2.491   7.022  18.566  0.00  0.00    +0.000 S 
ENDBRANCH   2   7
BRANCH   5  17
ATOM     17  N   UNL     1       5.178   3.730  17.815  0.00  0.00    +0.000 N 
ATOM     18  C   UNL     1       5.729   4.074  16.559  0.00  0.00    +0.000 A 
ATOM     19  C   UNL     1       7.049   4.506  16.501  0.00  0.00    +0.000 A 
ATOM     20  C   UNL     1       7.589   4.868  15.272  0.00  0.00    +0.000 A 
ATOM     21  C   UNL     1       6.777   4.792  14.161  0.00  0.00    +0.000 A 
ATOM     22  N   UNL     1       5.498   4.384  14.230  0.00  0.00    +0.000 NA
ATOM     23  N   UNL     1       4.974   4.031  15.444  0.00  0.00    +0.000 NA
ATOM     24  H   UNL     1       5.836   3.117  18.294  0.00  0.00    +0.000 HD
ENDBRANCH   5  17
TORSDOF 2
ENDMDL
MODEL 9
REMARK VINA RESULT:      -7.1      4.396      8.402
REMARK  Name = 
REMARK  2 active torsions:
REMARK  status: ('A' for Active; 'I' for Inactive)
REMARK    1  A    between atoms: C_2  and  C_3
REMARK    2  A    between atoms: C_15  and  N_16
REMARK                            x       y       z     vdW  Elec       q    Type
REMARK                         _______ _______ _______ _____ _____    ______ ____
ROOT
ATOM      1  O   UNL     1       0.707  11.923  21.218  0.00  0.00    +0.000 OA
ATOM      2  C   UNL     1       0.165  10.925  20.748  0.00  0.00    +0.000 C 
ATOM      3  N   UNL     1       0.559   9.661  21.121  0.00  0.00    +0.000 N 
ATOM      4  C   UNL     1       1.513   9.246  22.144  0.00  0.00    +0.000 C 
ATOM      5  C   UNL     1       1.226   7.810  21.626  0.00  0.00    +0.000 C 
ATOM      6  C   UNL     1      -0.130   8.374  21.148  0.00  0.00    +0.000 C 
ENDROOT
BRANCH   2   7
ATOM      7  C   UNL     1      -0.894  10.966  19.751  0.00  0.00    +0.000 A 
ATOM      8  C   UNL     1      -2.184  11.438  19.880  0.00  0.00    +0.000 A 
ATOM      9  C   UNL     1      -2.908  11.457  18.649  0.00  0.00    +0.000 A 
ATOM     10  C   UNL     1      -4.193  11.966  18.353  0.00  0.00    +0.000 A 
ATOM     11  C   UNL     1      -4.694  11.857  17.060  0.00  0.00    +0.000 A 
ATOM     12  F   UNL     1      -5.906  12.355  16.787  0.00  0.00    +0.000 F 
ATOM     13  C   UNL     1      -3.963  11.248  16.054  0.00  0.00    +0.000 A 
ATOM     14  C   UNL     1      -2.689  10.739  16.320  0.00  0.00    +0.000 A 
ATOM     15  C   UNL     1      -2.169  10.861  17.624  0.00  0.00    +0.000 A 
ATOM     16  S   UNL     1      -0.622  10.345  18.187  0.00  0.00    +0.000 S 
ENDBRANCH   2   7
BRANCH   5  17
ATOM     17  N   UNL     1       2.069   7.438  20.497  0.00  0.00    +0.000 N 
ATOM     18  C   UNL     1       2.317   6.075  20.213  0.00  0.00    +0.000 A 
ATOM     19  C   UNL     1       3.192   5.753  19.183  0.00  0.00    +0.000 A 
ATOM     20  C   UNL     1       3.421   4.414  18.885  0.00  0.00    +0.000 A 
ATOM     21  C   UNL     1       2.752   3.462  19.624  0.00  0.00    +0.000 A 
ATOM     22  N   UNL     1       1.899   3.785  20.611  0.00  0.00    +0.000 NA
ATOM     23  N   UNL     1       1.678   5.106  20.897  0.00  0.00    +0.000 NA
ATOM     24  H   UNL     1       2.965   7.920  20.548  0.00  0.00    +0.000 HD
ENDBRANCH   5  17
TORSDOF 2
ENDMDL
