MODEL 1
REMARK VINA RESULT:      -9.0      0.000      0.000
REMARK  Name = 
REMARK  8 active torsions:
REMARK  status: ('A' for Active; 'I' for Inactive)
REMARK    1  A    between atoms: C_1  and  C_2
REMARK    2  A    between atoms: N_4  and  C_5
REMARK    3  A    between atoms: C_8  and  N_9
REMARK    4  A    between atoms: C_18  and  N_19
REMARK    5  A    between atoms: N_19  and  C_20
REMARK    6  A    between atoms: C_23  and  O_24
REMARK    7  A    between atoms: O_24  and  C_25
REMARK    8  A    between atoms: C_25  and  C_26
REMARK                            x       y       z     vdW  Elec       q    Type
REMARK                         _______ _______ _______ _____ _____    ______ ____
ROOT
ATOM      1  C   UNL     1       1.498   9.119  17.562  0.00  0.00    +0.000 C 
ATOM      2  C   UNL     1       1.168   9.093  19.024  0.00  0.00    +0.000 A 
ATOM      3  C   UNL     1       1.786   7.998  19.896  0.00  0.00    +0.000 A 
ATOM      4  N   UNL     1       2.622   7.043  19.341  0.00  0.00    +0.000 N 
ATOM      5  N   UNL     1       1.557   7.906  21.187  0.00  0.00    +0.000 NA
ATOM      6  C   UNL     1       0.749   8.827  21.770  0.00  0.00    +0.000 A 
ATOM      7  C   UNL     1       0.314   8.969  23.068  0.00  0.00    +0.000 A 
ATOM      8  C   UNL     1      -0.491  10.110  23.060  0.00  0.00    +0.000 A 
ATOM      9  N   UNL     1      -0.577  10.678  21.853  0.00  0.00    +0.000 NA
ATOM     10  N   UNL     1       0.178   9.866  21.044  0.00  0.00    +0.000 N 
ATOM     11  C   UNL     1       0.370   9.997  19.647  0.00  0.00    +0.000 A 
ATOM     12  H   UNL     1       2.750   7.039  18.339  0.00  0.00    +0.000 HD
ENDROOT
BRANCH   4  13
ATOM     13  C   UNL     1       2.878   5.759  19.996  0.00  0.00    +0.000 C 
ATOM     14  C   UNL     1       1.747   4.777  19.658  0.00  0.00    +0.000 C 
ATOM     15  C   UNL     1       1.843   4.224  18.236  0.00  0.00    +0.000 C 
ATOM     16  C   UNL     1       3.202   3.582  17.949  0.00  0.00    +0.000 C 
ATOM     17  C   UNL     1       4.323   4.596  18.207  0.00  0.00    +0.000 C 
ATOM     18  C   UNL     1       4.264   5.225  19.603  0.00  0.00    +0.000 C 
BRANCH  16  19
ATOM     19  N   UNL     1       3.375   2.369  18.749  0.00  0.00    +0.000 NA
ATOM     20  H   UNL     1       4.350   2.074  18.773  0.00  0.00    +0.000 HD
ATOM     21  H   UNL     1       2.859   1.597  18.330  0.00  0.00    +0.000 HD
ENDBRANCH  16  19
ENDBRANCH   4  13
BRANCH  11  22
ATOM     22  N   UNL     1      -0.259  11.094  19.046  0.00  0.00    +0.000 N 
ATOM     23  H   UNL     1       0.015  11.964  19.523  0.00  0.00    +0.000 HD
BRANCH  22  24
ATOM     24  C   UNL     1      -1.609  11.194  18.619  0.00  0.00    +0.000 A 
ATOM     25  C   UNL     1      -2.512  12.116  19.146  0.00  0.00    +0.000 A 
ATOM     26  C   UNL     1      -3.844  12.146  18.734  0.00  0.00    +0.000 A 
ATOM     27  C   UNL     1      -4.286  11.302  17.717  0.00  0.00    +0.000 A 
ATOM     28  C   UNL     1      -3.412  10.347  17.205  0.00  0.00    +0.000 A 
ATOM     29  C   UNL     1      -2.085  10.291  17.658  0.00  0.00    +0.000 A 
BRANCH  27  30
ATOM     30  O   UNL     1      -5.535  11.358  17.155  0.00  0.00    +0.000 OA
BRANCH  30  31
ATOM     31  C   UNL     1      -6.523  11.988  17.979  0.00  0.00    +0.000 C 
BRANCH  31  32
ATOM     32  C   UNL     1      -6.983  11.046  19.061  0.00  0.00    +0.000 A 
ATOM     33  C   UNL     1      -6.874   9.659  18.903  0.00  0.00    +0.000 A 
ATOM     34  C   UNL     1      -7.276   8.802  19.926  0.00  0.00    +0.000 A 
ATOM     35  C   UNL     1      -7.792   9.320  21.112  0.00  0.00    +0.000 A 
ATOM     36  C   UNL     1      -7.911  10.698  21.277  0.00  0.00    +0.000 A 
ATOM     37  C   UNL     1      -7.511  11.559  20.256  0.00  0.00    +0.000 A 
ENDBRANCH  31  32
ENDBRANCH  30  31
ENDBRANCH  27  30
ENDBRANCH  22  24
ENDBRANCH  11  22
TORSDOF 7
ENDMDL
MODEL 2
REMARK VINA RESULT:      -8.5      3.510     10.209
REMARK  Name = 
REMARK  8 active torsions:
REMARK  status: ('A' for Active; 'I' for Inactive)
REMARK    1  A    between atoms: C_1  and  C_2
REMARK    2  A    between atoms: N_4  and  C_5
REMARK    3  A    between atoms: C_8  and  N_9
REMARK    4  A    between atoms: C_18  and  N_19
REMARK    5  A    between atoms: N_19  and  C_20
REMARK    6  A    between atoms: C_23  and  O_24
REMARK    7  A    between atoms: O_24  and  C_25
REMARK    8  A    between atoms: C_25  and  C_26
REMARK                            x       y       z     vdW  Elec       q    Type
REMARK                         _______ _______ _______ _____ _____    ______ ____
ROOT
ATOM      1  C   UNL     1      -0.050  12.306  21.091  0.00  0.00    +0.000 C 
ATOM      2  C   UNL     1      -1.061  11.901  20.062  0.00  0.00    +0.000 A 
ATOM      3  C   UNL     1      -2.522  12.304  20.271  0.00  0.00    +0.000 A 
ATOM      4  N   UNL     1      -2.902  13.016  21.397  0.00  0.00    +0.000 N 
ATOM      5  N   UNL     1      -3.472  11.997  19.416  0.00  0.00    +0.000 NA
ATOM      6  C   UNL     1      -3.139  11.305  18.298  0.00  0.00    +0.000 A 
ATOM      7  C   UNL     1      -3.903  10.830  17.256  0.00  0.00    +0.000 A 
ATOM      8  C   UNL     1      -2.999  10.204  16.396  0.00  0.00    +0.000 A 
ATOM      9  N   UNL     1      -1.738  10.265  16.832  0.00  0.00    +0.000 NA
ATOM     10  N   UNL     1      -1.827  10.932  18.028  0.00  0.00    +0.000 N 
ATOM     11  C   UNL     1      -0.769  11.214  18.928  0.00  0.00    +0.000 A 
ATOM     12  H   UNL     1      -2.210  13.194  22.111  0.00  0.00    +0.000 HD
ENDROOT
BRANCH   4  13
ATOM     13  C   UNL     1      -4.288  13.045  21.867  0.00  0.00    +0.000 C 
ATOM     14  C   UNL     1      -4.323  12.771  23.378  0.00  0.00    +0.000 C 
ATOM     15  C   UNL     1      -3.873  13.973  24.210  0.00  0.00    +0.000 C 
ATOM     16  C   UNL     1      -4.668  15.239  23.885  0.00  0.00    +0.000 C 
ATOM     17  C   UNL     1      -4.559  15.554  22.389  0.00  0.00    +0.000 C 
ATOM     18  C   UNL     1      -4.954  14.377  21.491  0.00  0.00    +0.000 C 
BRANCH  16  19
ATOM     19  N   UNL     1      -6.061  15.093  24.307  0.00  0.00    +0.000 NA
ATOM     20  H   UNL     1      -6.648  14.760  23.545  0.00  0.00    +0.000 HD
ATOM     21  H   UNL     1      -6.441  15.999  24.579  0.00  0.00    +0.000 HD
ENDBRANCH  16  19
ENDBRANCH   4  13
BRANCH  11  22
ATOM     22  N   UNL     1       0.502  10.787  18.526  0.00  0.00    +0.000 N 
ATOM     23  H   UNL     1       0.659  11.026  17.538  0.00  0.00    +0.000 HD
BRANCH  22  24
ATOM     24  C   UNL     1       1.135   9.552  18.821  0.00  0.00    +0.000 A 
ATOM     25  C   UNL     1       1.060   8.931  20.067  0.00  0.00    +0.000 A 
ATOM     26  C   UNL     1       1.741   7.742  20.329  0.00  0.00    +0.000 A 
ATOM     27  C   UNL     1       2.450   7.098  19.317  0.00  0.00    +0.000 A 
ATOM     28  C   UNL     1       2.571   7.720  18.077  0.00  0.00    +0.000 A 
ATOM     29  C   UNL     1       1.922   8.941  17.834  0.00  0.00    +0.000 A 
BRANCH  27  30
ATOM     30  O   UNL     1       3.031   5.863  19.445  0.00  0.00    +0.000 OA
BRANCH  30  31
ATOM     31  C   UNL     1       3.216   5.170  18.206  0.00  0.00    +0.000 C 
BRANCH  31  32
ATOM     32  C   UNL     1       4.684   4.994  17.918  0.00  0.00    +0.000 A 
ATOM     33  C   UNL     1       5.119   4.435  16.711  0.00  0.00    +0.000 A 
ATOM     34  C   UNL     1       6.482   4.306  16.446  0.00  0.00    +0.000 A 
ATOM     35  C   UNL     1       7.421   4.732  17.384  0.00  0.00    +0.000 A 
ATOM     36  C   UNL     1       6.999   5.284  18.592  0.00  0.00    +0.000 A 
ATOM     37  C   UNL     1       5.636   5.413  18.860  0.00  0.00    +0.000 A 
ENDBRANCH  31  32
ENDBRANCH  30  31
ENDBRANCH  27  30
ENDBRANCH  22  24
ENDBRANCH  11  22
TORSDOF 7
ENDMDL
MODEL 3
REMARK VINA RESULT:      -8.5      3.592     10.173
REMARK  Name = 
REMARK  8 active torsions:
REMARK  status: ('A' for Active; 'I' for Inactive)
REMARK    1  A    between atoms: C_1  and  C_2
REMARK    2  A    between atoms: N_4  and  C_5
REMARK    3  A    between atoms: C_8  and  N_9
REMARK    4  A    between atoms: C_18  and  N_19
REMARK    5  A    between atoms: N_19  and  C_20
REMARK    6  A    between atoms: C_23  and  O_24
REMARK    7  A    between atoms: O_24  and  C_25
REMARK    8  A    between atoms: C_25  and  C_26
REMARK                            x       y       z     vdW  Elec       q    Type
REMARK                         _______ _______ _______ _____ _____    ______ ____
ROOT
ATOM      1  C   UNL     1       0.484  12.128  20.790  0.00  0.00    +0.000 C 
ATOM      2  C   UNL     1      -0.625  11.725  19.867  0.00  0.00    +0.000 A 
ATOM      3  C   UNL     1      -2.045  12.210  20.169  0.00  0.00    +0.000 A 
ATOM      4  N   UNL     1      -2.298  12.994  21.283  0.00  0.00    +0.000 N 
ATOM      5  N   UNL     1      -3.074  11.911  19.409  0.00  0.00    +0.000 NA
ATOM      6  C   UNL     1      -2.866  11.151  18.305  0.00  0.00    +0.000 A 
ATOM      7  C   UNL     1      -3.734  10.665  17.354  0.00  0.00    +0.000 A 
ATOM      8  C   UNL     1      -2.933   9.955  16.457  0.00  0.00    +0.000 A 
ATOM      9  N   UNL     1      -1.638   9.974  16.789  0.00  0.00    +0.000 NA
ATOM     10  N   UNL     1      -1.599  10.701  17.952  0.00  0.00    +0.000 N 
ATOM     11  C   UNL     1      -0.459  10.972  18.749  0.00  0.00    +0.000 A 
ATOM     12  H   UNL     1      -1.543  13.171  21.930  0.00  0.00    +0.000 HD
ENDROOT
BRANCH   4  13
ATOM     13  C   UNL     1      -3.638  13.114  21.860  0.00  0.00    +0.000 C 
ATOM     14  C   UNL     1      -3.574  12.838  23.370  0.00  0.00    +0.000 C 
ATOM     15  C   UNL     1      -2.981  14.004  24.162  0.00  0.00    +0.000 C 
ATOM     16  C   UNL     1      -3.711  15.322  23.898  0.00  0.00    +0.000 C 
ATOM     17  C   UNL     1      -3.698  15.634  22.397  0.00  0.00    +0.000 C 
ATOM     18  C   UNL     1      -4.240  14.490  21.534  0.00  0.00    +0.000 C 
BRANCH  16  19
ATOM     19  N   UNL     1      -5.074  15.269  24.427  0.00  0.00    +0.000 NA
ATOM     20  H   UNL     1      -5.754  15.093  23.689  0.00  0.00    +0.000 HD
ATOM     21  H   UNL     1      -5.327  16.168  24.834  0.00  0.00    +0.000 HD
ENDBRANCH  16  19
ENDBRANCH   4  13
BRANCH  11  22
ATOM     22  N   UNL     1       0.754  10.462  18.271  0.00  0.00    +0.000 N 
ATOM     23  H   UNL     1       0.812  10.588  17.251  0.00  0.00    +0.000 HD
BRANCH  22  24
ATOM     24  C   UNL     1       1.388   9.246  18.635  0.00  0.00    +0.000 A 
ATOM     25  C   UNL     1       1.275   8.673  19.901  0.00  0.00    +0.000 A 
ATOM     26  C   UNL     1       1.957   7.502  20.232  0.00  0.00    +0.000 A 
ATOM     27  C   UNL     1       2.708   6.828  19.271  0.00  0.00    +0.000 A 
ATOM     28  C   UNL     1       2.867   7.404  18.013  0.00  0.00    +0.000 A 
ATOM     29  C   UNL     1       2.216   8.607  17.701  0.00  0.00    +0.000 A 
BRANCH  27  30
ATOM     30  O   UNL     1       3.296   5.606  19.467  0.00  0.00    +0.000 OA
BRANCH  30  31
ATOM     31  C   UNL     1       3.314   4.770  18.305  0.00  0.00    +0.000 C 
BRANCH  31  32
ATOM     32  C   UNL     1       4.704   4.701  17.729  0.00  0.00    +0.000 A 
ATOM     33  C   UNL     1       5.827   4.952  18.526  0.00  0.00    +0.000 A 
ATOM     34  C   UNL     1       7.108   4.854  17.985  0.00  0.00    +0.000 A 
ATOM     35  C   UNL     1       7.279   4.507  16.646  0.00  0.00    +0.000 A 
ATOM     36  C   UNL     1       6.168   4.261  15.842  0.00  0.00    +0.000 A 
ATOM     37  C   UNL     1       4.885   4.359  16.379  0.00  0.00    +0.000 A 
ENDBRANCH  31  32
ENDBRANCH  30  31
ENDBRANCH  27  30
ENDBRANCH  22  24
ENDBRANCH  11  22
TORSDOF 7
ENDMDL
MODEL 4
REMARK VINA RESULT:      -8.5      3.535      9.804
REMARK  Name = 
REMARK  8 active torsions:
REMARK  status: ('A' for Active; 'I' for Inactive)
REMARK    1  A    between atoms: C_1  and  C_2
REMARK    2  A    between atoms: N_4  and  C_5
REMARK    3  A    between atoms: C_8  and  N_9
REMARK    4  A    between atoms: C_18  and  N_19
REMARK    5  A    between atoms: N_19  and  C_20
REMARK    6  A    between atoms: C_23  and  O_24
REMARK    7  A    between atoms: O_24  and  C_25
REMARK    8  A    between atoms: C_25  and  C_26
REMARK                            x       y       z     vdW  Elec       q    Type
REMARK                         _______ _______ _______ _____ _____    ______ ____
ROOT
ATOM      1  C   UNL     1      -0.264  12.597  20.999  0.00  0.00    +0.000 C 
ATOM      2  C   UNL     1      -1.255  12.146  19.970  0.00  0.00    +0.000 A 
ATOM      3  C   UNL     1      -2.731  12.500  20.168  0.00  0.00    +0.000 A 
ATOM      4  N   UNL     1      -3.140  13.211  21.284  0.00  0.00    +0.000 N 
ATOM      5  N   UNL     1      -3.665  12.151  19.312  0.00  0.00    +0.000 NA
ATOM      6  C   UNL     1      -3.303  11.459  18.203  0.00  0.00    +0.000 A 
ATOM      7  C   UNL     1      -4.045  10.947  17.163  0.00  0.00    +0.000 A 
ATOM      8  C   UNL     1      -3.116  10.344  16.314  0.00  0.00    +0.000 A 
ATOM      9  N   UNL     1      -1.859  10.454  16.755  0.00  0.00    +0.000 NA
ATOM     10  N   UNL     1      -1.977  11.130  17.943  0.00  0.00    +0.000 N 
ATOM     11  C   UNL     1      -0.934  11.458  18.844  0.00  0.00    +0.000 A 
ATOM     12  H   UNL     1      -2.459  13.420  21.999  0.00  0.00    +0.000 HD
ENDROOT
BRANCH   4  13
ATOM     13  C   UNL     1      -4.529  13.197  21.748  0.00  0.00    +0.000 C 
ATOM     14  C   UNL     1      -4.565  12.865  23.248  0.00  0.00    +0.000 C 
ATOM     15  C   UNL     1      -4.142  14.042  24.127  0.00  0.00    +0.000 C 
ATOM     16  C   UNL     1      -4.958  15.306  23.846  0.00  0.00    +0.000 C 
ATOM     17  C   UNL     1      -4.849  15.678  22.363  0.00  0.00    +0.000 C 
ATOM     18  C   UNL     1      -5.217  14.530  21.419  0.00  0.00    +0.000 C 
BRANCH  16  19
ATOM     19  N   UNL     1      -6.350  15.118  24.255  0.00  0.00    +0.000 NA
ATOM     20  H   UNL     1      -6.617  15.779  24.983  0.00  0.00    +0.000 HD
ATOM     21  H   UNL     1      -6.474  14.191  24.659  0.00  0.00    +0.000 HD
ENDBRANCH  16  19
ENDBRANCH   4  13
BRANCH  11  22
ATOM     22  N   UNL     1       0.352  11.070  18.453  0.00  0.00    +0.000 N 
ATOM     23  H   UNL     1       0.512  11.317  17.467  0.00  0.00    +0.000 HD
BRANCH  22  24
ATOM     24  C   UNL     1       1.021   9.855  18.750  0.00  0.00    +0.000 A 
ATOM     25  C   UNL     1       1.729   9.119  17.801  0.00  0.00    +0.000 A 
ATOM     26  C   UNL     1       2.329   7.901  18.125  0.00  0.00    +0.000 A 
ATOM     27  C   UNL     1       2.304   7.430  19.436  0.00  0.00    +0.000 A 
ATOM     28  C   UNL     1       1.569   8.128  20.390  0.00  0.00    +0.000 A 
ATOM     29  C   UNL     1       0.927   9.329  20.047  0.00  0.00    +0.000 A 
BRANCH  27  30
ATOM     30  O   UNL     1       2.980   6.320  19.871  0.00  0.00    +0.000 OA
BRANCH  30  31
ATOM     31  C   UNL     1       2.135   5.238  20.275  0.00  0.00    +0.000 C 
BRANCH  31  32
ATOM     32  C   UNL     1       2.541   3.965  19.580  0.00  0.00    +0.000 A 
ATOM     33  C   UNL     1       1.825   3.487  18.476  0.00  0.00    +0.000 A 
ATOM     34  C   UNL     1       2.232   2.324  17.824  0.00  0.00    +0.000 A 
ATOM     35  C   UNL     1       3.355   1.628  18.269  0.00  0.00    +0.000 A 
ATOM     36  C   UNL     1       4.072   2.092  19.370  0.00  0.00    +0.000 A 
ATOM     37  C   UNL     1       3.667   3.255  20.025  0.00  0.00    +0.000 A 
ENDBRANCH  31  32
ENDBRANCH  30  31
ENDBRANCH  27  30
ENDBRANCH  22  24
ENDBRANCH  11  22
TORSDOF 7
ENDMDL
MODEL 5
REMARK VINA RESULT:      -8.4      3.622     10.119
REMARK  Name = 
REMARK  8 active torsions:
REMARK  status: ('A' for Active; 'I' for Inactive)
REMARK    1  A    between atoms: C_1  and  C_2
REMARK    2  A    between atoms: N_4  and  C_5
REMARK    3  A    between atoms: C_8  and  N_9
REMARK    4  A    between atoms: C_18  and  N_19
REMARK    5  A    between atoms: N_19  and  C_20
REMARK    6  A    between atoms: C_23  and  O_24
REMARK    7  A    between atoms: O_24  and  C_25
REMARK    8  A    between atoms: C_25  and  C_26
REMARK                            x       y       z     vdW  Elec       q    Type
REMARK                         _______ _______ _______ _____ _____    ______ ____
ROOT
ATOM      1  C   UNL     1       0.637  12.194  20.597  0.00  0.00    +0.000 C 
ATOM      2  C   UNL     1      -0.513  11.750  19.746  0.00  0.00    +0.000 A 
ATOM      3  C   UNL     1      -1.920  12.231  20.105  0.00  0.00    +0.000 A 
ATOM      4  N   UNL     1      -2.126  13.048  21.205  0.00  0.00    +0.000 N 
ATOM      5  N   UNL     1      -2.984  11.897  19.408  0.00  0.00    +0.000 NA
ATOM      6  C   UNL     1      -2.823  11.103  18.320  0.00  0.00    +0.000 A 
ATOM      7  C   UNL     1      -3.733  10.578  17.430  0.00  0.00    +0.000 A 
ATOM      8  C   UNL     1      -2.970   9.847  16.517  0.00  0.00    +0.000 A 
ATOM      9  N   UNL     1      -1.661   9.890  16.781  0.00  0.00    +0.000 NA
ATOM     10  N   UNL     1      -1.570  10.654  17.917  0.00  0.00    +0.000 N 
ATOM     11  C   UNL     1      -0.395  10.962  18.646  0.00  0.00    +0.000 A 
ATOM     12  H   UNL     1      -1.341  13.253  21.806  0.00  0.00    +0.000 HD
ENDROOT
BRANCH   4  13
ATOM     13  C   UNL     1      -3.437  13.174  21.845  0.00  0.00    +0.000 C 
ATOM     14  C   UNL     1      -3.303  12.886  23.348  0.00  0.00    +0.000 C 
ATOM     15  C   UNL     1      -2.664  14.041  24.120  0.00  0.00    +0.000 C 
ATOM     16  C   UNL     1      -3.396  15.367  23.900  0.00  0.00    +0.000 C 
ATOM     17  C   UNL     1      -3.451  15.690  22.402  0.00  0.00    +0.000 C 
ATOM     18  C   UNL     1      -4.042  14.556  21.558  0.00  0.00    +0.000 C 
BRANCH  16  19
ATOM     19  N   UNL     1      -4.732  15.319  24.493  0.00  0.00    +0.000 NA
ATOM     20  H   UNL     1      -5.247  16.182  24.321  0.00  0.00    +0.000 HD
ATOM     21  H   UNL     1      -4.663  15.232  25.506  0.00  0.00    +0.000 HD
ENDBRANCH  16  19
ENDBRANCH   4  13
BRANCH  11  22
ATOM     22  N   UNL     1       0.798  10.449  18.123  0.00  0.00    +0.000 N 
ATOM     23  H   UNL     1       0.802  10.541  17.097  0.00  0.00    +0.000 HD
BRANCH  22  24
ATOM     24  C   UNL     1       1.465   9.254  18.494  0.00  0.00    +0.000 A 
ATOM     25  C   UNL     1       2.319   8.557  17.640  0.00  0.00    +0.000 A 
ATOM     26  C   UNL     1       2.915   7.357  18.028  0.00  0.00    +0.000 A 
ATOM     27  C   UNL     1       2.734   6.866  19.320  0.00  0.00    +0.000 A 
ATOM     28  C   UNL     1       1.855   7.524  20.175  0.00  0.00    +0.000 A 
ATOM     29  C   UNL     1       1.221   8.707  19.762  0.00  0.00    +0.000 A 
BRANCH  27  30
ATOM     30  O   UNL     1       3.388   5.775  19.830  0.00  0.00    +0.000 OA
BRANCH  30  31
ATOM     31  C   UNL     1       3.411   4.641  18.955  0.00  0.00    +0.000 C 
BRANCH  31  32
ATOM     32  C   UNL     1       4.704   4.600  18.183  0.00  0.00    +0.000 A 
ATOM     33  C   UNL     1       4.726   4.225  16.835  0.00  0.00    +0.000 A 
ATOM     34  C   UNL     1       5.927   4.221  16.126  0.00  0.00    +0.000 A 
ATOM     35  C   UNL     1       7.113   4.589  16.757  0.00  0.00    +0.000 A 
ATOM     36  C   UNL     1       7.104   4.958  18.100  0.00  0.00    +0.000 A 
ATOM     37  C   UNL     1       5.905   4.962  18.812  0.00  0.00    +0.000 A 
ENDBRANCH  31  32
ENDBRANCH  30  31
ENDBRANCH  27  30
ENDBRANCH  22  24
ENDBRANCH  11  22
TORSDOF 7
ENDMDL
MODEL 6
REMARK VINA RESULT:      -8.4      1.455      2.575
REMARK  Name = 
REMARK  8 active torsions:
REMARK  status: ('A' for Active; 'I' for Inactive)
REMARK    1  A    between atoms: C_1  and  C_2
REMARK    2  A    between atoms: N_4  and  C_5
REMARK    3  A    between atoms: C_8  and  N_9
REMARK    4  A    between atoms: C_18  and  N_19
REMARK    5  A    between atoms: N_19  and  C_20
REMARK    6  A    between atoms: C_23  and  O_24
REMARK    7  A    between atoms: O_24  and  C_25
REMARK    8  A    between atoms: C_25  and  C_26
REMARK                            x       y       z     vdW  Elec       q    Type
REMARK                         _______ _______ _______ _____ _____    ______ ____
ROOT
ATOM      1  C   UNL     1       1.399   9.282  17.572  0.00  0.00    +0.000 C 
ATOM      2  C   UNL     1       1.073   9.235  19.034  0.00  0.00    +0.000 A 
ATOM      3  C   UNL     1       1.671   8.113  19.885  0.00  0.00    +0.000 A 
ATOM      4  N   UNL     1       2.486   7.151  19.309  0.00  0.00    +0.000 N 
ATOM      5  N   UNL     1       1.444   8.002  21.174  0.00  0.00    +0.000 NA
ATOM      6  C   UNL     1       0.656   8.927  21.777  0.00  0.00    +0.000 A 
ATOM      7  C   UNL     1       0.229   9.055  23.079  0.00  0.00    +0.000 A 
ATOM      8  C   UNL     1      -0.553  10.212  23.094  0.00  0.00    +0.000 A 
ATOM      9  N   UNL     1      -0.631  10.803  21.899  0.00  0.00    +0.000 NA
ATOM     10  N   UNL     1       0.104   9.991  21.072  0.00  0.00    +0.000 N 
ATOM     11  C   UNL     1       0.295  10.145  19.677  0.00  0.00    +0.000 A 
ATOM     12  H   UNL     1       2.610   7.163  18.307  0.00  0.00    +0.000 HD
ENDROOT
BRANCH   4  13
ATOM     13  C   UNL     1       2.717   5.850  19.939  0.00  0.00    +0.000 C 
ATOM     14  C   UNL     1       1.595   4.880  19.542  0.00  0.00    +0.000 C 
ATOM     15  C   UNL     1       1.736   4.363  18.109  0.00  0.00    +0.000 C 
ATOM     16  C   UNL     1       3.102   3.724  17.851  0.00  0.00    +0.000 C 
ATOM     17  C   UNL     1       4.216   4.727  18.170  0.00  0.00    +0.000 C 
ATOM     18  C   UNL     1       4.114   5.322  19.578  0.00  0.00    +0.000 C 
BRANCH  16  19
ATOM     19  N   UNL     1       3.246   2.491  18.625  0.00  0.00    +0.000 NA
ATOM     20  H   UNL     1       3.392   2.687  19.614  0.00  0.00    +0.000 HD
ATOM     21  H   UNL     1       4.071   1.978  18.316  0.00  0.00    +0.000 HD
ENDBRANCH  16  19
ENDBRANCH   4  13
BRANCH  11  22
ATOM     22  N   UNL     1      -0.314  11.265  19.098  0.00  0.00    +0.000 N 
ATOM     23  H   UNL     1      -0.051  12.116  19.615  0.00  0.00    +0.000 HD
BRANCH  22  24
ATOM     24  C   UNL     1      -1.649  11.385  18.636  0.00  0.00    +0.000 A 
ATOM     25  C   UNL     1      -2.654  12.031  19.355  0.00  0.00    +0.000 A 
ATOM     26  C   UNL     1      -3.967  12.082  18.887  0.00  0.00    +0.000 A 
ATOM     27  C   UNL     1      -4.290  11.554  17.638  0.00  0.00    +0.000 A 
ATOM     28  C   UNL     1      -3.312  10.870  16.921  0.00  0.00    +0.000 A 
ATOM     29  C   UNL     1      -2.003  10.781  17.420  0.00  0.00    +0.000 A 
BRANCH  27  30
ATOM     30  O   UNL     1      -5.516  11.681  17.040  0.00  0.00    +0.000 OA
BRANCH  30  31
ATOM     31  C   UNL     1      -6.553  12.138  17.916  0.00  0.00    +0.000 C 
BRANCH  31  32
ATOM     32  C   UNL     1      -6.766  13.620  17.748  0.00  0.00    +0.000 A 
ATOM     33  C   UNL     1      -6.720  14.483  18.849  0.00  0.00    +0.000 A 
ATOM     34  C   UNL     1      -6.889  15.856  18.673  0.00  0.00    +0.000 A 
ATOM     35  C   UNL     1      -7.108  16.377  17.400  0.00  0.00    +0.000 A 
ATOM     36  C   UNL     1      -7.162  15.526  16.298  0.00  0.00    +0.000 A 
ATOM     37  C   UNL     1      -6.994  14.153  16.470  0.00  0.00    +0.000 A 
ENDBRANCH  31  32
ENDBRANCH  30  31
ENDBRANCH  27  30
ENDBRANCH  22  24
ENDBRANCH  11  22
TORSDOF 7
ENDMDL
MODEL 7
REMARK VINA RESULT:      -8.3      3.449      9.765
REMARK  Name = 
REMARK  8 active torsions:
REMARK  status: ('A' for Active; 'I' for Inactive)
REMARK    1  A    between atoms: C_1  and  C_2
REMARK    2  A    between atoms: N_4  and  C_5
REMARK    3  A    between atoms: C_8  and  N_9
REMARK    4  A    between atoms: C_18  and  N_19
REMARK    5  A    between atoms: N_19  and  C_20
REMARK    6  A    between atoms: C_23  and  O_24
REMARK    7  A    between atoms: O_24  and  C_25
REMARK    8  A    between atoms: C_25  and  C_26
REMARK                            x       y       z     vdW  Elec       q    Type
REMARK                         _______ _______ _______ _____ _____    ______ ____
ROOT
ATOM      1  C   UNL     1      -1.196  12.826  21.255  0.00  0.00    +0.000 C 
ATOM      2  C   UNL     1      -2.023  12.362  20.095  0.00  0.00    +0.000 A 
ATOM      3  C   UNL     1      -3.536  12.591  20.134  0.00  0.00    +0.000 A 
ATOM      4  N   UNL     1      -4.127  13.202  21.228  0.00  0.00    +0.000 N 
ATOM      5  N   UNL     1      -4.335  12.223  19.158  0.00  0.00    +0.000 NA
ATOM      6  C   UNL     1      -3.794  11.626  18.066  0.00  0.00    +0.000 A 
ATOM      7  C   UNL     1      -4.368  11.121  16.923  0.00  0.00    +0.000 A 
ATOM      8  C   UNL     1      -3.302  10.640  16.160  0.00  0.00    +0.000 A 
ATOM      9  N   UNL     1      -2.117  10.819  16.751  0.00  0.00    +0.000 NA
ATOM     10  N   UNL     1      -2.424  11.414  17.949  0.00  0.00    +0.000 N 
ATOM     11  C   UNL     1      -1.521  11.767  18.982  0.00  0.00    +0.000 A 
ATOM     12  H   UNL     1      -3.550  13.420  22.028  0.00  0.00    +0.000 HD
ENDROOT
BRANCH   4  13
ATOM     13  C   UNL     1      -5.553  13.055  21.524  0.00  0.00    +0.000 C 
ATOM     14  C   UNL     1      -5.747  12.862  23.035  0.00  0.00    +0.000 C 
ATOM     15  C   UNL     1      -5.578  14.159  23.827  0.00  0.00    +0.000 C 
ATOM     16  C   UNL     1      -6.489  15.278  23.317  0.00  0.00    +0.000 C 
ATOM     17  C   UNL     1      -6.230  15.523  21.826  0.00  0.00    +0.000 C 
ATOM     18  C   UNL     1      -6.340  14.255  20.974  0.00  0.00    +0.000 C 
BRANCH  16  19
ATOM     19  N   UNL     1      -7.892  14.955  23.577  0.00  0.00    +0.000 NA
ATOM     20  H   UNL     1      -8.202  15.334  24.470  0.00  0.00    +0.000 HD
ATOM     21  H   UNL     1      -8.012  13.945  23.643  0.00  0.00    +0.000 HD
ENDBRANCH  16  19
ENDBRANCH   4  13
BRANCH  11  22
ATOM     22  N   UNL     1      -0.171  11.501  18.727  0.00  0.00    +0.000 N 
ATOM     23  H   UNL     1       0.093  11.869  17.803  0.00  0.00    +0.000 HD
BRANCH  22  24
ATOM     24  C   UNL     1       0.540  10.300  18.979  0.00  0.00    +0.000 A 
ATOM     25  C   UNL     1       1.243   9.605  17.995  0.00  0.00    +0.000 A 
ATOM     26  C   UNL     1       1.887   8.400  18.276  0.00  0.00    +0.000 A 
ATOM     27  C   UNL     1       1.912   7.900  19.576  0.00  0.00    +0.000 A 
ATOM     28  C   UNL     1       1.183   8.556  20.565  0.00  0.00    +0.000 A 
ATOM     29  C   UNL     1       0.498   9.744  20.266  0.00  0.00    +0.000 A 
BRANCH  27  30
ATOM     30  O   UNL     1       2.632   6.802  19.968  0.00  0.00    +0.000 OA
BRANCH  30  31
ATOM     31  C   UNL     1       1.837   5.744  20.516  0.00  0.00    +0.000 C 
BRANCH  31  32
ATOM     32  C   UNL     1       1.930   4.515  19.649  0.00  0.00    +0.000 A 
ATOM     33  C   UNL     1       1.644   3.246  20.166  0.00  0.00    +0.000 A 
ATOM     34  C   UNL     1       1.704   2.122  19.343  0.00  0.00    +0.000 A 
ATOM     35  C   UNL     1       2.052   2.255  18.000  0.00  0.00    +0.000 A 
ATOM     36  C   UNL     1       2.344   3.513  17.477  0.00  0.00    +0.000 A 
ATOM     37  C   UNL     1       2.286   4.639  18.297  0.00  0.00    +0.000 A 
ENDBRANCH  31  32
ENDBRANCH  30  31
ENDBRANCH  27  30
ENDBRANCH  22  24
ENDBRANCH  11  22
TORSDOF 7
ENDMDL
MODEL 8
REMARK VINA RESULT:      -8.3      3.564      9.545
REMARK  Name = 
REMARK  8 active torsions:
REMARK  status: ('A' for Active; 'I' for Inactive)
REMARK    1  A    between atoms: C_1  and  C_2
REMARK    2  A    between atoms: N_4  and  C_5
REMARK    3  A    between atoms: C_8  and  N_9
REMARK    4  A    between atoms: C_18  and  N_19
REMARK    5  A    between atoms: N_19  and  C_20
REMARK    6  A    between atoms: C_23  and  O_24
REMARK    7  A    between atoms: O_24  and  C_25
REMARK    8  A    between atoms: C_25  and  C_26
REMARK                            x       y       z     vdW  Elec       q    Type
REMARK                         _______ _______ _______ _____ _____    ______ ____
ROOT
ATOM      1  C   UNL     1       0.479  13.126  20.223  0.00  0.00    +0.000 C 
ATOM      2  C   UNL     1      -0.694  12.463  19.568  0.00  0.00    +0.000 A 
ATOM      3  C   UNL     1      -2.102  12.950  19.918  0.00  0.00    +0.000 A 
ATOM      4  N   UNL     1      -2.285  13.973  20.834  0.00  0.00    +0.000 N 
ATOM      5  N   UNL     1      -3.185  12.430  19.385  0.00  0.00    +0.000 NA
ATOM      6  C   UNL     1      -3.047  11.430  18.479  0.00  0.00    +0.000 A 
ATOM      7  C   UNL     1      -3.978  10.690  17.786  0.00  0.00    +0.000 A 
ATOM      8  C   UNL     1      -3.233   9.814  16.995  0.00  0.00    +0.000 A 
ATOM      9  N   UNL     1      -1.915   9.967  17.150  0.00  0.00    +0.000 NA
ATOM     10  N   UNL     1      -1.798  10.959  18.090  0.00  0.00    +0.000 N 
ATOM     11  C   UNL     1      -0.600  11.465  18.652  0.00  0.00    +0.000 A 
ATOM     12  H   UNL     1      -1.478  14.334  21.321  0.00  0.00    +0.000 HD
ENDROOT
BRANCH   4  13
ATOM     13  C   UNL     1      -3.560  14.177  21.526  0.00  0.00    +0.000 C 
ATOM     14  C   UNL     1      -3.580  13.347  22.818  0.00  0.00    +0.000 C 
ATOM     15  C   UNL     1      -2.724  13.956  23.929  0.00  0.00    +0.000 C 
ATOM     16  C   UNL     1      -3.102  15.408  24.229  0.00  0.00    +0.000 C 
ATOM     17  C   UNL     1      -2.997  16.249  22.951  0.00  0.00    +0.000 C 
ATOM     18  C   UNL     1      -3.797  15.673  21.778  0.00  0.00    +0.000 C 
BRANCH  16  19
ATOM     19  N   UNL     1      -4.440  15.480  24.815  0.00  0.00    +0.000 NA
ATOM     20  H   UNL     1      -4.714  14.589  25.228  0.00  0.00    +0.000 HD
ATOM     21  H   UNL     1      -5.129  15.677  24.091  0.00  0.00    +0.000 HD
ENDBRANCH  16  19
ENDBRANCH   4  13
BRANCH  11  22
ATOM     22  N   UNL     1       0.586  10.902  18.164  0.00  0.00    +0.000 N 
ATOM     23  H   UNL     1       0.609  10.963  17.137  0.00  0.00    +0.000 HD
BRANCH  22  24
ATOM     24  C   UNL     1       1.212   9.700  18.582  0.00  0.00    +0.000 A 
ATOM     25  C   UNL     1       1.951   8.884  17.725  0.00  0.00    +0.000 A 
ATOM     26  C   UNL     1       2.508   7.683  18.165  0.00  0.00    +0.000 A 
ATOM     27  C   UNL     1       2.408   7.309  19.504  0.00  0.00    +0.000 A 
ATOM     28  C   UNL     1       1.642   8.088  20.367  0.00  0.00    +0.000 A 
ATOM     29  C   UNL     1       1.044   9.272  19.906  0.00  0.00    +0.000 A 
BRANCH  27  30
ATOM     30  O   UNL     1       3.038   6.223  20.052  0.00  0.00    +0.000 OA
BRANCH  30  31
ATOM     31  C   UNL     1       3.728   5.403  19.101  0.00  0.00    +0.000 C 
BRANCH  31  32
ATOM     32  C   UNL     1       2.995   4.102  18.901  0.00  0.00    +0.000 A 
ATOM     33  C   UNL     1       3.614   3.016  18.272  0.00  0.00    +0.000 A 
ATOM     34  C   UNL     1       2.933   1.808  18.122  0.00  0.00    +0.000 A 
ATOM     35  C   UNL     1       1.628   1.677  18.594  0.00  0.00    +0.000 A 
ATOM     36  C   UNL     1       1.000   2.754  19.216  0.00  0.00    +0.000 A 
ATOM     37  C   UNL     1       1.678   3.963  19.367  0.00  0.00    +0.000 A 
ENDBRANCH  31  32
ENDBRANCH  30  31
ENDBRANCH  27  30
ENDBRANCH  22  24
ENDBRANCH  11  22
TORSDOF 7
ENDMDL
MODEL 9
REMARK VINA RESULT:      -8.3      3.592      9.516
REMARK  Name = 
REMARK  8 active torsions:
REMARK  status: ('A' for Active; 'I' for Inactive)
REMARK    1  A    between atoms: C_1  and  C_2
REMARK    2  A    between atoms: N_4  and  C_5
REMARK    3  A    between atoms: C_8  and  N_9
REMARK    4  A    between atoms: C_18  and  N_19
REMARK    5  A    between atoms: N_19  and  C_20
REMARK    6  A    between atoms: C_23  and  O_24
REMARK    7  A    between atoms: O_24  and  C_25
REMARK    8  A    between atoms: C_25  and  C_26
REMARK                            x       y       z     vdW  Elec       q    Type
REMARK                         _______ _______ _______ _____ _____    ______ ____
ROOT
ATOM      1  C   UNL     1       0.202  12.401  20.536  0.00  0.00    +0.000 C 
ATOM      2  C   UNL     1      -0.933  11.983  19.651  0.00  0.00    +0.000 A 
ATOM      3  C   UNL     1      -2.336  12.510  19.960  0.00  0.00    +0.000 A 
ATOM      4  N   UNL     1      -2.552  13.343  21.045  0.00  0.00    +0.000 N 
ATOM      5  N   UNL     1      -3.386  12.201  19.232  0.00  0.00    +0.000 NA
ATOM      6  C   UNL     1      -3.214  11.392  18.157  0.00  0.00    +0.000 A 
ATOM      7  C   UNL     1      -4.110  10.885  17.243  0.00  0.00    +0.000 A 
ATOM      8  C   UNL     1      -3.341  10.122  16.362  0.00  0.00    +0.000 A 
ATOM      9  N   UNL     1      -2.040  10.128  16.668  0.00  0.00    +0.000 NA
ATOM     10  N   UNL     1      -1.963  10.901  17.799  0.00  0.00    +0.000 N 
ATOM     11  C   UNL     1      -0.803  11.181  18.563  0.00  0.00    +0.000 A 
ATOM     12  H   UNL     1      -1.781  13.531  21.670  0.00  0.00    +0.000 HD
ENDROOT
BRANCH   4  13
ATOM     13  C   UNL     1      -3.878  13.515  21.641  0.00  0.00    +0.000 C 
ATOM     14  C   UNL     1      -3.875  12.952  23.070  0.00  0.00    +0.000 C 
ATOM     15  C   UNL     1      -3.160  13.864  24.067  0.00  0.00    +0.000 C 
ATOM     16  C   UNL     1      -3.720  15.288  24.063  0.00  0.00    +0.000 C 
ATOM     17  C   UNL     1      -3.642  15.875  22.649  0.00  0.00    +0.000 C 
ATOM     18  C   UNL     1      -4.303  14.990  21.587  0.00  0.00    +0.000 C 
BRANCH  16  19
ATOM     19  N   UNL     1      -5.089  15.302  24.580  0.00  0.00    +0.000 NA
ATOM     20  H   UNL     1      -5.344  16.222  24.935  0.00  0.00    +0.000 HD
ATOM     21  H   UNL     1      -5.171  14.664  25.370  0.00  0.00    +0.000 HD
ENDBRANCH  16  19
ENDBRANCH   4  13
BRANCH  11  22
ATOM     22  N   UNL     1       0.390  10.628  18.084  0.00  0.00    +0.000 N 
ATOM     23  H   UNL     1       0.373  10.588  17.055  0.00  0.00    +0.000 HD
BRANCH  22  24
ATOM     24  C   UNL     1       1.088   9.501  18.589  0.00  0.00    +0.000 A 
ATOM     25  C   UNL     1       1.008   9.083  19.917  0.00  0.00    +0.000 A 
ATOM     26  C   UNL     1       1.753   8.000  20.385  0.00  0.00    +0.000 A 
ATOM     27  C   UNL     1       2.536   7.253  19.508  0.00  0.00    +0.000 A 
ATOM     28  C   UNL     1       2.662   7.676  18.187  0.00  0.00    +0.000 A 
ATOM     29  C   UNL     1       1.947   8.796  17.734  0.00  0.00    +0.000 A 
BRANCH  27  30
ATOM     30  O   UNL     1       3.188   6.096  19.848  0.00  0.00    +0.000 OA
BRANCH  30  31
ATOM     31  C   UNL     1       2.394   5.174  20.603  0.00  0.00    +0.000 C 
BRANCH  31  32
ATOM     32  C   UNL     1       2.197   3.896  19.830  0.00  0.00    +0.000 A 
ATOM     33  C   UNL     1       0.919   3.352  19.652  0.00  0.00    +0.000 A 
ATOM     34  C   UNL     1       0.750   2.185  18.909  0.00  0.00    +0.000 A 
ATOM     35  C   UNL     1       1.852   1.551  18.340  0.00  0.00    +0.000 A 
ATOM     36  C   UNL     1       3.129   2.080  18.516  0.00  0.00    +0.000 A 
ATOM     37  C   UNL     1       3.302   3.247  19.260  0.00  0.00    +0.000 A 
ENDBRANCH  31  32
ENDBRANCH  30  31
ENDBRANCH  27  30
ENDBRANCH  22  24
ENDBRANCH  11  22
TORSDOF 7
ENDMDL
