MODEL 1
REMARK VINA RESULT:      -8.2      0.000      0.000
REMARK  Name = 
REMARK  12 active torsions:
REMARK  status: ('A' for Active; 'I' for Inactive)
REMARK    1  A    between atoms: C_1  and  C_2
REMARK    2  A    between atoms: C_2  and  C_3
REMARK    3  A    between atoms: C_3  and  C_4
REMARK    4  A    between atoms: C_4  and  C_5
REMARK    5  A    between atoms: C_5  and  N_6
REMARK    6  A    between atoms: N_6  and  C_7
REMARK    7  A    between atoms: C_7  and  C_8
REMARK    8  A    between atoms: C_8  and  C_9
REMARK    9  A    between atoms: C_9  and  C_10
REMARK   10  A    between atoms: C_10  and  C_11
REMARK   11  A    between atoms: C_12  and  C_14
REMARK   12  A    between atoms: C_16  and  C_17
REMARK                            x       y       z     vdW  Elec       q    Type
REMARK                         _______ _______ _______ _____ _____    ______ ____
ROOT
ATOM      1  C   UNL     1       2.662   7.815  18.104  0.00  0.00    +0.000 A 
ATOM      2  N   UNL     1       2.220   6.775  18.828  0.00  0.00    +0.000 NA
ATOM      3  C   UNL     1       2.814   5.577  18.623  0.00  0.00    +0.000 A 
ATOM      4  C   UNL     1       3.821   5.401  17.646  0.00  0.00    +0.000 A 
ATOM      5  C   UNL     1       4.406   4.172  17.226  0.00  0.00    +0.000 A 
ATOM      6  C   UNL     1       5.445   4.135  16.299  0.00  0.00    +0.000 A 
ATOM      7  C   UNL     1       5.900   5.320  15.744  0.00  0.00    +0.000 A 
ATOM      8  C   UNL     1       5.289   6.524  16.102  0.00  0.00    +0.000 A 
ATOM      9  C   UNL     1       4.256   6.579  17.023  0.00  0.00    +0.000 A 
ATOM     10  N   UNL     1       3.698   7.769  17.253  0.00  0.00    +0.000 NA
ENDROOT
BRANCH   3  11
ATOM     11  C   UNL     1       2.302   4.503  19.517  0.00  0.00    +0.000 A 
ATOM     12  C   UNL     1       2.712   4.430  20.862  0.00  0.00    +0.000 A 
ATOM     13  C   UNL     1       2.209   3.454  21.729  0.00  0.00    +0.000 A 
ATOM     14  C   UNL     1       1.274   2.530  21.274  0.00  0.00    +0.000 A 
ATOM     15  C   UNL     1       0.887   2.546  19.939  0.00  0.00    +0.000 A 
ATOM     16  C   UNL     1       1.424   3.498  19.067  0.00  0.00    +0.000 A 
ENDBRANCH   3  11
BRANCH   1  18
ATOM     17  N   UNL     1       1.292   9.465  19.524  0.00  0.00    +0.000 N 
ATOM     18  C   UNL     1       1.928   9.131  18.287  0.00  0.00    +0.000 C 
ATOM     19  O   UNL     1       1.912   9.912  17.330  0.00  0.00    +0.000 OA
BRANCH  17  20
ATOM     20  C   UNL     1       0.426  10.657  19.502  0.00  0.00    +0.000 C 
BRANCH  20  21
ATOM     21  C   UNL     1      -1.015  10.494  19.000  0.00  0.00    +0.000 C 
BRANCH  21  22
ATOM     22  C   UNL     1      -1.848  11.771  18.829  0.00  0.00    +0.000 C 
BRANCH  22  24
ATOM     23  C   UNL     1      -3.171   9.985  17.548  0.00  0.00    +0.000 C 
ATOM     24  C   UNL     1      -3.063  11.448  17.944  0.00  0.00    +0.000 C 
ENDBRANCH  22  24
ENDBRANCH  21  22
ENDBRANCH  20  21
ENDBRANCH  17  20
BRANCH  17  25
ATOM     25  C   UNL     1       1.239   8.499  20.644  0.00  0.00    +0.000 C 
BRANCH  25  26
ATOM     26  C   UNL     1       0.073   8.611  21.618  0.00  0.00    +0.000 C 
BRANCH  26  27
ATOM     27  C   UNL     1       0.322   9.544  22.807  0.00  0.00    +0.000 C 
BRANCH  27  28
ATOM     28  C   UNL     1      -0.992  10.268  23.130  0.00  0.00    +0.000 C 
ATOM     29  C   UNL     1      -0.986  11.740  22.768  0.00  0.00    +0.000 C 
ENDBRANCH  27  28
ENDBRANCH  26  27
ENDBRANCH  25  26
ENDBRANCH  17  25
ENDBRANCH   1  18
TORSDOF 10
ENDMDL
MODEL 2
REMARK VINA RESULT:      -8.1      1.092      3.735
REMARK  Name = 
REMARK  12 active torsions:
REMARK  status: ('A' for Active; 'I' for Inactive)
REMARK    1  A    between atoms: C_1  and  C_2
REMARK    2  A    between atoms: C_2  and  C_3
REMARK    3  A    between atoms: C_3  and  C_4
REMARK    4  A    between atoms: C_4  and  C_5
REMARK    5  A    between atoms: C_5  and  N_6
REMARK    6  A    between atoms: N_6  and  C_7
REMARK    7  A    between atoms: C_7  and  C_8
REMARK    8  A    between atoms: C_8  and  C_9
REMARK    9  A    between atoms: C_9  and  C_10
REMARK   10  A    between atoms: C_10  and  C_11
REMARK   11  A    between atoms: C_12  and  C_14
REMARK   12  A    between atoms: C_16  and  C_17
REMARK                            x       y       z     vdW  Elec       q    Type
REMARK                         _______ _______ _______ _____ _____    ______ ____
ROOT
ATOM      1  C   UNL     1       2.432   7.093  18.860  0.00  0.00    +0.000 A 
ATOM      2  N   UNL     1       3.418   6.773  18.008  0.00  0.00    +0.000 NA
ATOM      3  C   UNL     1       3.970   5.543  18.130  0.00  0.00    +0.000 A 
ATOM      4  C   UNL     1       3.573   4.645  19.146  0.00  0.00    +0.000 A 
ATOM      5  C   UNL     1       4.179   3.398  19.477  0.00  0.00    +0.000 A 
ATOM      6  C   UNL     1       3.649   2.565  20.460  0.00  0.00    +0.000 A 
ATOM      7  C   UNL     1       2.525   2.972  21.159  0.00  0.00    +0.000 A 
ATOM      8  C   UNL     1       1.961   4.220  20.886  0.00  0.00    +0.000 A 
ATOM      9  C   UNL     1       2.474   5.061  19.911  0.00  0.00    +0.000 A 
ATOM     10  N   UNL     1       1.903   6.257  19.767  0.00  0.00    +0.000 NA
ENDROOT
BRANCH   3  11
ATOM     11  C   UNL     1       5.007   5.258  17.102  0.00  0.00    +0.000 A 
ATOM     12  C   UNL     1       6.274   5.869  17.170  0.00  0.00    +0.000 A 
ATOM     13  C   UNL     1       7.277   5.583  16.238  0.00  0.00    +0.000 A 
ATOM     14  C   UNL     1       7.040   4.669  15.216  0.00  0.00    +0.000 A 
ATOM     15  C   UNL     1       5.784   4.086  15.093  0.00  0.00    +0.000 A 
ATOM     16  C   UNL     1       4.773   4.408  16.004  0.00  0.00    +0.000 A 
ENDBRANCH   3  11
BRANCH   1  18
ATOM     17  N   UNL     1       1.363   9.183  19.912  0.00  0.00    +0.000 N 
ATOM     18  C   UNL     1       1.884   8.505  18.764  0.00  0.00    +0.000 C 
ATOM     19  O   UNL     1       1.918   9.056  17.659  0.00  0.00    +0.000 OA
BRANCH  17  20
ATOM     20  C   UNL     1       0.657  10.449  19.646  0.00  0.00    +0.000 C 
BRANCH  20  21
ATOM     21  C   UNL     1      -0.842  10.387  19.325  0.00  0.00    +0.000 C 
BRANCH  21  22
ATOM     22  C   UNL     1      -1.311  11.061  18.028  0.00  0.00    +0.000 C 
BRANCH  22  24
ATOM     23  C   UNL     1      -3.386   9.701  17.379  0.00  0.00    +0.000 C 
ATOM     24  C   UNL     1      -1.919   9.986  17.112  0.00  0.00    +0.000 C 
ENDBRANCH  22  24
ENDBRANCH  21  22
ENDBRANCH  20  21
ENDBRANCH  17  20
BRANCH  17  25
ATOM     25  C   UNL     1       1.246   8.499  21.219  0.00  0.00    +0.000 C 
BRANCH  25  26
ATOM     26  C   UNL     1      -0.051   8.679  21.996  0.00  0.00    +0.000 C 
BRANCH  26  27
ATOM     27  C   UNL     1       0.033   9.679  23.153  0.00  0.00    +0.000 C 
BRANCH  27  28
ATOM     28  C   UNL     1      -1.229  10.552  23.124  0.00  0.00    +0.000 C 
ATOM     29  C   UNL     1      -0.960  12.006  22.788  0.00  0.00    +0.000 C 
ENDBRANCH  27  28
ENDBRANCH  26  27
ENDBRANCH  25  26
ENDBRANCH  17  25
ENDBRANCH   1  18
TORSDOF 10
ENDMDL
MODEL 3
REMARK VINA RESULT:      -8.0      0.529      1.085
REMARK  Name = 
REMARK  12 active torsions:
REMARK  status: ('A' for Active; 'I' for Inactive)
REMARK    1  A    between atoms: C_1  and  C_2
REMARK    2  A    between atoms: C_2  and  C_3
REMARK    3  A    between atoms: C_3  and  C_4
REMARK    4  A    between atoms: C_4  and  C_5
REMARK    5  A    between atoms: C_5  and  N_6
REMARK    6  A    between atoms: N_6  and  C_7
REMARK    7  A    between atoms: C_7  and  C_8
REMARK    8  A    between atoms: C_8  and  C_9
REMARK    9  A    between atoms: C_9  and  C_10
REMARK   10  A    between atoms: C_10  and  C_11
REMARK   11  A    between atoms: C_12  and  C_14
REMARK   12  A    between atoms: C_16  and  C_17
REMARK                            x       y       z     vdW  Elec       q    Type
REMARK                         _______ _______ _______ _____ _____    ______ ____
ROOT
ATOM      1  C   UNL     1       2.711   7.977  18.059  0.00  0.00    +0.000 A 
ATOM      2  N   UNL     1       2.237   6.957  18.789  0.00  0.00    +0.000 NA
ATOM      3  C   UNL     1       2.763   5.731  18.561  0.00  0.00    +0.000 A 
ATOM      4  C   UNL     1       3.733   5.511  17.556  0.00  0.00    +0.000 A 
ATOM      5  C   UNL     1       4.243   4.256  17.114  0.00  0.00    +0.000 A 
ATOM      6  C   UNL     1       5.254   4.174  16.159  0.00  0.00    +0.000 A 
ATOM      7  C   UNL     1       5.754   5.337  15.598  0.00  0.00    +0.000 A 
ATOM      8  C   UNL     1       5.215   6.569  15.979  0.00  0.00    +0.000 A 
ATOM      9  C   UNL     1       4.211   6.670  16.929  0.00  0.00    +0.000 A 
ATOM     10  N   UNL     1       3.721   7.884  17.179  0.00  0.00    +0.000 NA
ENDROOT
BRANCH   3  11
ATOM     11  C   UNL     1       2.220   4.679  19.462  0.00  0.00    +0.000 A 
ATOM     12  C   UNL     1       1.307   3.721  18.982  0.00  0.00    +0.000 A 
ATOM     13  C   UNL     1       0.817   2.699  19.802  0.00  0.00    +0.000 A 
ATOM     14  C   UNL     1       1.237   2.604  21.125  0.00  0.00    +0.000 A 
ATOM     15  C   UNL     1       2.099   3.563  21.643  0.00  0.00    +0.000 A 
ATOM     16  C   UNL     1       2.553   4.607  20.829  0.00  0.00    +0.000 A 
ENDBRANCH   3  11
BRANCH   1  18
ATOM     17  N   UNL     1       1.342   9.632  19.474  0.00  0.00    +0.000 N 
ATOM     18  C   UNL     1       2.050   9.327  18.268  0.00  0.00    +0.000 C 
ATOM     19  O   UNL     1       2.159  10.162  17.364  0.00  0.00    +0.000 OA
BRANCH  17  20
ATOM     20  C   UNL     1       0.558  10.880  19.462  0.00  0.00    +0.000 C 
BRANCH  20  21
ATOM     21  C   UNL     1      -0.615  10.987  18.478  0.00  0.00    +0.000 C 
BRANCH  21  22
ATOM     22  C   UNL     1      -1.739   9.950  18.611  0.00  0.00    +0.000 C 
BRANCH  22  24
ATOM     23  C   UNL     1      -2.636   9.873  16.209  0.00  0.00    +0.000 C 
ATOM     24  C   UNL     1      -2.869  10.327  17.639  0.00  0.00    +0.000 C 
ENDBRANCH  22  24
ENDBRANCH  21  22
ENDBRANCH  20  21
ENDBRANCH  17  20
BRANCH  17  25
ATOM     25  C   UNL     1       1.141   8.610  20.525  0.00  0.00    +0.000 C 
BRANCH  25  26
ATOM     26  C   UNL     1       0.941   9.097  21.954  0.00  0.00    +0.000 C 
BRANCH  26  27
ATOM     27  C   UNL     1      -0.521   9.167  22.405  0.00  0.00    +0.000 C 
BRANCH  27  28
ATOM     28  C   UNL     1      -0.700  10.434  23.251  0.00  0.00    +0.000 C 
ATOM     29  C   UNL     1      -1.539  11.505  22.582  0.00  0.00    +0.000 C 
ENDBRANCH  27  28
ENDBRANCH  26  27
ENDBRANCH  25  26
ENDBRANCH  17  25
ENDBRANCH   1  18
TORSDOF 10
ENDMDL
MODEL 4
REMARK VINA RESULT:      -7.9      2.892      7.810
REMARK  Name = 
REMARK  12 active torsions:
REMARK  status: ('A' for Active; 'I' for Inactive)
REMARK    1  A    between atoms: C_1  and  C_2
REMARK    2  A    between atoms: C_2  and  C_3
REMARK    3  A    between atoms: C_3  and  C_4
REMARK    4  A    between atoms: C_4  and  C_5
REMARK    5  A    between atoms: C_5  and  N_6
REMARK    6  A    between atoms: N_6  and  C_7
REMARK    7  A    between atoms: C_7  and  C_8
REMARK    8  A    between atoms: C_8  and  C_9
REMARK    9  A    between atoms: C_9  and  C_10
REMARK   10  A    between atoms: C_10  and  C_11
REMARK   11  A    between atoms: C_12  and  C_14
REMARK   12  A    between atoms: C_16  and  C_17
REMARK                            x       y       z     vdW  Elec       q    Type
REMARK                         _______ _______ _______ _____ _____    ______ ____
ROOT
ATOM      1  C   UNL     1       4.240   4.641  17.431  0.00  0.00    +0.000 A 
ATOM      2  N   UNL     1       3.592   5.797  17.639  0.00  0.00    +0.000 NA
ATOM      3  C   UNL     1       2.873   5.911  18.780  0.00  0.00    +0.000 A 
ATOM      4  C   UNL     1       2.752   4.840  19.695  0.00  0.00    +0.000 A 
ATOM      5  C   UNL     1       1.904   4.779  20.839  0.00  0.00    +0.000 A 
ATOM      6  C   UNL     1       1.927   3.690  21.708  0.00  0.00    +0.000 A 
ATOM      7  C   UNL     1       2.768   2.624  21.437  0.00  0.00    +0.000 A 
ATOM      8  C   UNL     1       3.556   2.647  20.284  0.00  0.00    +0.000 A 
ATOM      9  C   UNL     1       3.548   3.722  19.409  0.00  0.00    +0.000 A 
ATOM     10  N   UNL     1       4.289   3.623  18.305  0.00  0.00    +0.000 NA
ENDROOT
BRANCH   3  11
ATOM     11  C   UNL     1       2.246   7.249  18.951  0.00  0.00    +0.000 A 
ATOM     12  C   UNL     1       1.773   7.667  20.209  0.00  0.00    +0.000 A 
ATOM     13  C   UNL     1       1.219   8.937  20.400  0.00  0.00    +0.000 A 
ATOM     14  C   UNL     1       1.132   9.828  19.335  0.00  0.00    +0.000 A 
ATOM     15  C   UNL     1       1.546   9.428  18.070  0.00  0.00    +0.000 A 
ATOM     16  C   UNL     1       2.060   8.142  17.877  0.00  0.00    +0.000 A 
ENDBRANCH   3  11
BRANCH   1  18
ATOM     17  N   UNL     1       6.118   5.300  15.802  0.00  0.00    +0.000 N 
ATOM     18  C   UNL     1       4.972   4.500  16.109  0.00  0.00    +0.000 C 
ATOM     19  O   UNL     1       4.550   3.658  15.311  0.00  0.00    +0.000 OA
BRANCH  17  20
ATOM     20  C   UNL     1       6.597   5.232  14.410  0.00  0.00    +0.000 C 
BRANCH  20  21
ATOM     21  C   UNL     1       6.711   3.850  13.752  0.00  0.00    +0.000 C 
BRANCH  21  22
ATOM     22  C   UNL     1       6.641   3.794  12.220  0.00  0.00    +0.000 C 
BRANCH  22  24
ATOM     23  C   UNL     1       6.455   1.490  11.109  0.00  0.00    +0.000 C 
ATOM     24  C   UNL     1       5.732   2.623  11.815  0.00  0.00    +0.000 C 
ENDBRANCH  22  24
ENDBRANCH  21  22
ENDBRANCH  20  21
ENDBRANCH  17  20
BRANCH  17  25
ATOM     25  C   UNL     1       6.579   6.365  16.721  0.00  0.00    +0.000 C 
BRANCH  25  26
ATOM     26  C   UNL     1       7.566   5.976  17.814  0.00  0.00    +0.000 C 
BRANCH  26  27
ATOM     27  C   UNL     1       8.142   7.157  18.602  0.00  0.00    +0.000 C 
BRANCH  27  28
ATOM     28  C   UNL     1       7.932   8.432  17.775  0.00  0.00    +0.000 C 
ATOM     29  C   UNL     1       8.644   9.648  18.333  0.00  0.00    +0.000 C 
ENDBRANCH  27  28
ENDBRANCH  26  27
ENDBRANCH  25  26
ENDBRANCH  17  25
ENDBRANCH   1  18
TORSDOF 10
ENDMDL
MODEL 5
REMARK VINA RESULT:      -7.9      0.685      1.146
REMARK  Name = 
REMARK  12 active torsions:
REMARK  status: ('A' for Active; 'I' for Inactive)
REMARK    1  A    between atoms: C_1  and  C_2
REMARK    2  A    between atoms: C_2  and  C_3
REMARK    3  A    between atoms: C_3  and  C_4
REMARK    4  A    between atoms: C_4  and  C_5
REMARK    5  A    between atoms: C_5  and  N_6
REMARK    6  A    between atoms: N_6  and  C_7
REMARK    7  A    between atoms: C_7  and  C_8
REMARK    8  A    between atoms: C_8  and  C_9
REMARK    9  A    between atoms: C_9  and  C_10
REMARK   10  A    between atoms: C_10  and  C_11
REMARK   11  A    between atoms: C_12  and  C_14
REMARK   12  A    between atoms: C_16  and  C_17
REMARK                            x       y       z     vdW  Elec       q    Type
REMARK                         _______ _______ _______ _____ _____    ______ ____
ROOT
ATOM      1  C   UNL     1       2.731   7.775  18.046  0.00  0.00    +0.000 A 
ATOM      2  N   UNL     1       2.275   6.746  18.777  0.00  0.00    +0.000 NA
ATOM      3  C   UNL     1       2.847   5.536  18.572  0.00  0.00    +0.000 A 
ATOM      4  C   UNL     1       3.843   5.339  17.588  0.00  0.00    +0.000 A 
ATOM      5  C   UNL     1       4.403   4.098  17.169  0.00  0.00    +0.000 A 
ATOM      6  C   UNL     1       5.435   4.040  16.235  0.00  0.00    +0.000 A 
ATOM      7  C   UNL     1       5.907   5.214  15.672  0.00  0.00    +0.000 A 
ATOM      8  C   UNL     1       5.320   6.430  16.030  0.00  0.00    +0.000 A 
ATOM      9  C   UNL     1       4.294   6.507  16.959  0.00  0.00    +0.000 A 
ATOM     10  N   UNL     1       3.760   7.707  17.188  0.00  0.00    +0.000 NA
ENDROOT
BRANCH   3  11
ATOM     11  C   UNL     1       2.321   4.475  19.473  0.00  0.00    +0.000 A 
ATOM     12  C   UNL     1       2.688   4.438  20.832  0.00  0.00    +0.000 A 
ATOM     13  C   UNL     1       2.172   3.474  21.705  0.00  0.00    +0.000 A 
ATOM     14  C   UNL     1       1.266   2.525  21.240  0.00  0.00    +0.000 A 
ATOM     15  C   UNL     1       0.922   2.506  19.894  0.00  0.00    +0.000 A 
ATOM     16  C   UNL     1       1.473   3.446  19.018  0.00  0.00    +0.000 A 
ENDBRANCH   3  11
BRANCH   1  18
ATOM     17  N   UNL     1       1.325   9.417  19.439  0.00  0.00    +0.000 N 
ATOM     18  C   UNL     1       2.022   9.104  18.229  0.00  0.00    +0.000 C 
ATOM     19  O   UNL     1       2.081   9.914  17.299  0.00  0.00    +0.000 OA
BRANCH  17  20
ATOM     20  C   UNL     1       0.493  10.634  19.406  0.00  0.00    +0.000 C 
BRANCH  20  21
ATOM     21  C   UNL     1      -0.991  10.484  19.042  0.00  0.00    +0.000 C 
BRANCH  21  22
ATOM     22  C   UNL     1      -1.887  11.716  19.225  0.00  0.00    +0.000 C 
BRANCH  22  24
ATOM     23  C   UNL     1      -1.125  13.961  20.207  0.00  0.00    +0.000 C 
ATOM     24  C   UNL     1      -1.024  12.977  19.054  0.00  0.00    +0.000 C 
ENDBRANCH  22  24
ENDBRANCH  21  22
ENDBRANCH  20  21
ENDBRANCH  17  20
BRANCH  17  25
ATOM     25  C   UNL     1       1.183   8.420  20.523  0.00  0.00    +0.000 C 
BRANCH  25  26
ATOM     26  C   UNL     1       1.001   8.942  21.943  0.00  0.00    +0.000 C 
BRANCH  26  27
ATOM     27  C   UNL     1      -0.458   9.054  22.397  0.00  0.00    +0.000 C 
BRANCH  27  28
ATOM     28  C   UNL     1      -0.567  10.241  23.364  0.00  0.00    +0.000 C 
ATOM     29  C   UNL     1      -1.568  11.294  22.930  0.00  0.00    +0.000 C 
ENDBRANCH  27  28
ENDBRANCH  26  27
ENDBRANCH  25  26
ENDBRANCH  17  25
ENDBRANCH   1  18
TORSDOF 10
ENDMDL
MODEL 6
REMARK VINA RESULT:      -7.8      2.379      7.138
REMARK  Name = 
REMARK  12 active torsions:
REMARK  status: ('A' for Active; 'I' for Inactive)
REMARK    1  A    between atoms: C_1  and  C_2
REMARK    2  A    between atoms: C_2  and  C_3
REMARK    3  A    between atoms: C_3  and  C_4
REMARK    4  A    between atoms: C_4  and  C_5
REMARK    5  A    between atoms: C_5  and  N_6
REMARK    6  A    between atoms: N_6  and  C_7
REMARK    7  A    between atoms: C_7  and  C_8
REMARK    8  A    between atoms: C_8  and  C_9
REMARK    9  A    between atoms: C_9  and  C_10
REMARK   10  A    between atoms: C_10  and  C_11
REMARK   11  A    between atoms: C_12  and  C_14
REMARK   12  A    between atoms: C_16  and  C_17
REMARK                            x       y       z     vdW  Elec       q    Type
REMARK                         _______ _______ _______ _____ _____    ______ ____
ROOT
ATOM      1  C   UNL     1       4.180   6.679  17.333  0.00  0.00    +0.000 A 
ATOM      2  N   UNL     1       3.697   5.753  18.176  0.00  0.00    +0.000 NA
ATOM      3  C   UNL     1       2.691   6.127  19.001  0.00  0.00    +0.000 A 
ATOM      4  C   UNL     1       2.201   7.452  19.027  0.00  0.00    +0.000 A 
ATOM      5  C   UNL     1       1.267   8.006  19.949  0.00  0.00    +0.000 A 
ATOM      6  C   UNL     1       0.806   9.315  19.827  0.00  0.00    +0.000 A 
ATOM      7  C   UNL     1       1.291  10.111  18.803  0.00  0.00    +0.000 A 
ATOM      8  C   UNL     1       2.255   9.597  17.932  0.00  0.00    +0.000 A 
ATOM      9  C   UNL     1       2.724   8.298  18.038  0.00  0.00    +0.000 A 
ATOM     10  N   UNL     1       3.687   7.920  17.197  0.00  0.00    +0.000 NA
ENDROOT
BRANCH   3  11
ATOM     11  C   UNL     1       2.181   5.016  19.849  0.00  0.00    +0.000 A 
ATOM     12  C   UNL     1       1.146   4.179  19.391  0.00  0.00    +0.000 A 
ATOM     13  C   UNL     1       0.680   3.103  20.155  0.00  0.00    +0.000 A 
ATOM     14  C   UNL     1       1.247   2.832  21.397  0.00  0.00    +0.000 A 
ATOM     15  C   UNL     1       2.236   3.669  21.897  0.00  0.00    +0.000 A 
ATOM     16  C   UNL     1       2.668   4.767  21.147  0.00  0.00    +0.000 A 
ENDBRANCH   3  11
BRANCH   1  18
ATOM     17  N   UNL     1       5.396   5.000  15.813  0.00  0.00    +0.000 N 
ATOM     18  C   UNL     1       5.362   6.267  16.476  0.00  0.00    +0.000 C 
ATOM     19  O   UNL     1       6.290   7.074  16.358  0.00  0.00    +0.000 OA
BRANCH  17  20
ATOM     20  C   UNL     1       6.685   4.627  15.203  0.00  0.00    +0.000 C 
BRANCH  20  21
ATOM     21  C   UNL     1       6.861   4.846  13.694  0.00  0.00    +0.000 C 
BRANCH  21  22
ATOM     22  C   UNL     1       6.530   3.667  12.770  0.00  0.00    +0.000 C 
BRANCH  22  24
ATOM     23  C   UNL     1       4.469   3.136  11.337  0.00  0.00    +0.000 C 
ATOM     24  C   UNL     1       5.002   3.507  12.710  0.00  0.00    +0.000 C 
ENDBRANCH  22  24
ENDBRANCH  21  22
ENDBRANCH  20  21
ENDBRANCH  17  20
BRANCH  17  25
ATOM     25  C   UNL     1       4.325   3.999  16.015  0.00  0.00    +0.000 C 
BRANCH  25  26
ATOM     26  C   UNL     1       4.553   2.926  17.073  0.00  0.00    +0.000 C 
BRANCH  26  27
ATOM     27  C   UNL     1       3.286   2.187  17.513  0.00  0.00    +0.000 C 
BRANCH  27  28
ATOM     28  C   UNL     1       3.641   1.305  18.718  0.00  0.00    +0.000 C 
ATOM     29  C   UNL     1       4.548   1.983  19.727  0.00  0.00    +0.000 C 
ENDBRANCH  27  28
ENDBRANCH  26  27
ENDBRANCH  25  26
ENDBRANCH  17  25
ENDBRANCH   1  18
TORSDOF 10
ENDMDL
MODEL 7
REMARK VINA RESULT:      -7.8      2.959      7.751
REMARK  Name = 
REMARK  12 active torsions:
REMARK  status: ('A' for Active; 'I' for Inactive)
REMARK    1  A    between atoms: C_1  and  C_2
REMARK    2  A    between atoms: C_2  and  C_3
REMARK    3  A    between atoms: C_3  and  C_4
REMARK    4  A    between atoms: C_4  and  C_5
REMARK    5  A    between atoms: C_5  and  N_6
REMARK    6  A    between atoms: N_6  and  C_7
REMARK    7  A    between atoms: C_7  and  C_8
REMARK    8  A    between atoms: C_8  and  C_9
REMARK    9  A    between atoms: C_9  and  C_10
REMARK   10  A    between atoms: C_10  and  C_11
REMARK   11  A    between atoms: C_12  and  C_14
REMARK   12  A    between atoms: C_16  and  C_17
REMARK                            x       y       z     vdW  Elec       q    Type
REMARK                         _______ _______ _______ _____ _____    ______ ____
ROOT
ATOM      1  C   UNL     1       4.609   4.562  17.733  0.00  0.00    +0.000 A 
ATOM      2  N   UNL     1       3.936   5.717  17.846  0.00  0.00    +0.000 NA
ATOM      3  C   UNL     1       3.051   5.825  18.864  0.00  0.00    +0.000 A 
ATOM      4  C   UNL     1       2.793   4.750  19.744  0.00  0.00    +0.000 A 
ATOM      5  C   UNL     1       1.781   4.682  20.745  0.00  0.00    +0.000 A 
ATOM      6  C   UNL     1       1.672   3.589  21.602  0.00  0.00    +0.000 A 
ATOM      7  C   UNL     1       2.545   2.524  21.457  0.00  0.00    +0.000 A 
ATOM      8  C   UNL     1       3.500   2.553  20.438  0.00  0.00    +0.000 A 
ATOM      9  C   UNL     1       3.624   3.633  19.578  0.00  0.00    +0.000 A 
ATOM     10  N   UNL     1       4.525   3.540  18.599  0.00  0.00    +0.000 NA
ENDROOT
BRANCH   3  11
ATOM     11  C   UNL     1       2.405   7.162  18.944  0.00  0.00    +0.000 A 
ATOM     12  C   UNL     1       2.335   7.997  17.813  0.00  0.00    +0.000 A 
ATOM     13  C   UNL     1       1.695   9.241  17.857  0.00  0.00    +0.000 A 
ATOM     14  C   UNL     1       1.099   9.677  19.036  0.00  0.00    +0.000 A 
ATOM     15  C   UNL     1       1.194   8.898  20.182  0.00  0.00    +0.000 A 
ATOM     16  C   UNL     1       1.871   7.675  20.143  0.00  0.00    +0.000 A 
ENDBRANCH   3  11
BRANCH   1  18
ATOM     17  N   UNL     1       6.868   4.945  16.565  0.00  0.00    +0.000 N 
ATOM     18  C   UNL     1       5.534   4.428  16.537  0.00  0.00    +0.000 C 
ATOM     19  O   UNL     1       5.097   3.842  15.541  0.00  0.00    +0.000 OA
BRANCH  17  20
ATOM     20  C   UNL     1       7.581   4.956  15.275  0.00  0.00    +0.000 C 
BRANCH  20  21
ATOM     21  C   UNL     1       6.749   4.853  13.989  0.00  0.00    +0.000 C 
BRANCH  21  22
ATOM     22  C   UNL     1       7.511   4.628  12.676  0.00  0.00    +0.000 C 
BRANCH  22  24
ATOM     23  C   UNL     1       5.733   2.868  12.110  0.00  0.00    +0.000 C 
ATOM     24  C   UNL     1       6.531   4.069  11.632  0.00  0.00    +0.000 C 
ENDBRANCH  22  24
ENDBRANCH  21  22
ENDBRANCH  20  21
ENDBRANCH  17  20
BRANCH  17  25
ATOM     25  C   UNL     1       7.368   5.717  17.724  0.00  0.00    +0.000 C 
BRANCH  25  26
ATOM     26  C   UNL     1       7.380   7.236  17.607  0.00  0.00    +0.000 C 
BRANCH  26  27
ATOM     27  C   UNL     1       8.362   7.940  18.548  0.00  0.00    +0.000 C 
BRANCH  27  28
ATOM     28  C   UNL     1       8.439   9.417  18.142  0.00  0.00    +0.000 C 
ATOM     29  C   UNL     1       9.257  10.272  19.091  0.00  0.00    +0.000 C 
ENDBRANCH  27  28
ENDBRANCH  26  27
ENDBRANCH  25  26
ENDBRANCH  17  25
ENDBRANCH   1  18
TORSDOF 10
ENDMDL
MODEL 8
REMARK VINA RESULT:      -7.8      2.373      7.138
REMARK  Name = 
REMARK  12 active torsions:
REMARK  status: ('A' for Active; 'I' for Inactive)
REMARK    1  A    between atoms: C_1  and  C_2
REMARK    2  A    between atoms: C_2  and  C_3
REMARK    3  A    between atoms: C_3  and  C_4
REMARK    4  A    between atoms: C_4  and  C_5
REMARK    5  A    between atoms: C_5  and  N_6
REMARK    6  A    between atoms: N_6  and  C_7
REMARK    7  A    between atoms: C_7  and  C_8
REMARK    8  A    between atoms: C_8  and  C_9
REMARK    9  A    between atoms: C_9  and  C_10
REMARK   10  A    between atoms: C_10  and  C_11
REMARK   11  A    between atoms: C_12  and  C_14
REMARK   12  A    between atoms: C_16  and  C_17
REMARK                            x       y       z     vdW  Elec       q    Type
REMARK                         _______ _______ _______ _____ _____    ______ ____
ROOT
ATOM      1  C   UNL     1       3.919   6.716  17.025  0.00  0.00    +0.000 A 
ATOM      2  N   UNL     1       3.509   5.745  17.856  0.00  0.00    +0.000 NA
ATOM      3  C   UNL     1       2.630   6.087  18.826  0.00  0.00    +0.000 A 
ATOM      4  C   UNL     1       2.198   7.421  19.005  0.00  0.00    +0.000 A 
ATOM      5  C   UNL     1       1.409   7.933  20.075  0.00  0.00    +0.000 A 
ATOM      6  C   UNL     1       0.987   9.261  20.102  0.00  0.00    +0.000 A 
ATOM      7  C   UNL     1       1.371  10.115  19.082  0.00  0.00    +0.000 A 
ATOM      8  C   UNL     1       2.198   9.638  18.062  0.00  0.00    +0.000 A 
ATOM      9  C   UNL     1       2.626   8.321  18.018  0.00  0.00    +0.000 A 
ATOM     10  N   UNL     1       3.461   7.977  17.037  0.00  0.00    +0.000 NA
ENDROOT
BRANCH   3  11
ATOM     11  C   UNL     1       2.187   4.933  19.654  0.00  0.00    +0.000 A 
ATOM     12  C   UNL     1       1.311   3.964  19.127  0.00  0.00    +0.000 A 
ATOM     13  C   UNL     1       0.916   2.850  19.875  0.00  0.00    +0.000 A 
ATOM     14  C   UNL     1       1.395   2.671  21.169  0.00  0.00    +0.000 A 
ATOM     15  C   UNL     1       2.222   3.635  21.734  0.00  0.00    +0.000 A 
ATOM     16  C   UNL     1       2.580   4.768  20.996  0.00  0.00    +0.000 A 
ENDBRANCH   3  11
BRANCH   1  18
ATOM     17  N   UNL     1       6.018   5.412  16.311  0.00  0.00    +0.000 N 
ATOM     18  C   UNL     1       4.968   6.332  15.997  0.00  0.00    +0.000 C 
ATOM     19  O   UNL     1       4.874   6.833  14.872  0.00  0.00    +0.000 OA
BRANCH  17  20
ATOM     20  C   UNL     1       7.095   5.299  15.311  0.00  0.00    +0.000 C 
BRANCH  20  21
ATOM     21  C   UNL     1       6.964   4.219  14.229  0.00  0.00    +0.000 C 
BRANCH  21  22
ATOM     22  C   UNL     1       7.169   4.656  12.772  0.00  0.00    +0.000 C 
BRANCH  22  24
ATOM     23  C   UNL     1       5.201   3.223  11.962  0.00  0.00    +0.000 C 
ATOM     24  C   UNL     1       6.686   3.525  11.850  0.00  0.00    +0.000 C 
ENDBRANCH  22  24
ENDBRANCH  21  22
ENDBRANCH  20  21
ENDBRANCH  17  20
BRANCH  17  25
ATOM     25  C   UNL     1       6.182   4.873  17.679  0.00  0.00    +0.000 C 
BRANCH  25  26
ATOM     26  C   UNL     1       7.554   5.004  18.330  0.00  0.00    +0.000 C 
BRANCH  26  27
ATOM     27  C   UNL     1       7.808   6.350  19.015  0.00  0.00    +0.000 C 
BRANCH  27  28
ATOM     28  C   UNL     1       7.912   7.428  17.928  0.00  0.00    +0.000 C 
ATOM     29  C   UNL     1       8.447   8.755  18.430  0.00  0.00    +0.000 C 
ENDBRANCH  27  28
ENDBRANCH  26  27
ENDBRANCH  25  26
ENDBRANCH  17  25
ENDBRANCH   1  18
TORSDOF 10
ENDMDL
MODEL 9
REMARK VINA RESULT:      -7.8      1.657      4.271
REMARK  Name = 
REMARK  12 active torsions:
REMARK  status: ('A' for Active; 'I' for Inactive)
REMARK    1  A    between atoms: C_1  and  C_2
REMARK    2  A    between atoms: C_2  and  C_3
REMARK    3  A    between atoms: C_3  and  C_4
REMARK    4  A    between atoms: C_4  and  C_5
REMARK    5  A    between atoms: C_5  and  N_6
REMARK    6  A    between atoms: N_6  and  C_7
REMARK    7  A    between atoms: C_7  and  C_8
REMARK    8  A    between atoms: C_8  and  C_9
REMARK    9  A    between atoms: C_9  and  C_10
REMARK   10  A    between atoms: C_10  and  C_11
REMARK   11  A    between atoms: C_12  and  C_14
REMARK   12  A    between atoms: C_16  and  C_17
REMARK                            x       y       z     vdW  Elec       q    Type
REMARK                         _______ _______ _______ _____ _____    ______ ____
ROOT
ATOM      1  C   UNL     1       2.422   7.150  18.742  0.00  0.00    +0.000 A 
ATOM      2  N   UNL     1       3.417   6.800  17.912  0.00  0.00    +0.000 NA
ATOM      3  C   UNL     1       3.963   5.573  18.078  0.00  0.00    +0.000 A 
ATOM      4  C   UNL     1       3.552   4.709  19.118  0.00  0.00    +0.000 A 
ATOM      5  C   UNL     1       4.149   3.471  19.494  0.00  0.00    +0.000 A 
ATOM      6  C   UNL     1       3.606   2.671  20.497  0.00  0.00    +0.000 A 
ATOM      7  C   UNL     1       2.476   3.104  21.171  0.00  0.00    +0.000 A 
ATOM      8  C   UNL     1       1.919   4.345  20.852  0.00  0.00    +0.000 A 
ATOM      9  C   UNL     1       2.445   5.153  19.857  0.00  0.00    +0.000 A 
ATOM     10  N   UNL     1       1.880   6.345  19.669  0.00  0.00    +0.000 NA
ENDROOT
BRANCH   3  11
ATOM     11  C   UNL     1       5.010   5.252  17.071  0.00  0.00    +0.000 A 
ATOM     12  C   UNL     1       6.266   5.888  17.112  0.00  0.00    +0.000 A 
ATOM     13  C   UNL     1       7.279   5.570  16.200  0.00  0.00    +0.000 A 
ATOM     14  C   UNL     1       7.062   4.600  15.227  0.00  0.00    +0.000 A 
ATOM     15  C   UNL     1       5.817   3.990  15.131  0.00  0.00    +0.000 A 
ATOM     16  C   UNL     1       4.796   4.341  16.018  0.00  0.00    +0.000 A 
ENDBRANCH   3  11
BRANCH   1  18
ATOM     17  N   UNL     1       1.300   9.256  19.704  0.00  0.00    +0.000 N 
ATOM     18  C   UNL     1       1.880   8.561  18.595  0.00  0.00    +0.000 C 
ATOM     19  O   UNL     1       1.972   9.094  17.485  0.00  0.00    +0.000 OA
BRANCH  17  20
ATOM     20  C   UNL     1       0.610  10.518  19.382  0.00  0.00    +0.000 C 
BRANCH  20  21
ATOM     21  C   UNL     1       1.323  11.835  19.715  0.00  0.00    +0.000 C 
BRANCH  21  22
ATOM     22  C   UNL     1       2.107  12.515  18.583  0.00  0.00    +0.000 C 
BRANCH  22  24
ATOM     23  C   UNL     1       3.621  14.536  18.133  0.00  0.00    +0.000 C 
ATOM     24  C   UNL     1       2.820  13.750  19.156  0.00  0.00    +0.000 C 
ENDBRANCH  22  24
ENDBRANCH  21  22
ENDBRANCH  20  21
ENDBRANCH  17  20
BRANCH  17  25
ATOM     25  C   UNL     1       1.116   8.592  21.013  0.00  0.00    +0.000 C 
BRANCH  25  26
ATOM     26  C   UNL     1      -0.186   8.855  21.760  0.00  0.00    +0.000 C 
BRANCH  26  27
ATOM     27  C   UNL     1      -0.031   9.687  23.037  0.00  0.00    +0.000 C 
BRANCH  27  28
ATOM     28  C   UNL     1      -1.223  10.648  23.129  0.00  0.00    +0.000 C 
ATOM     29  C   UNL     1      -0.911  12.058  22.668  0.00  0.00    +0.000 C 
ENDBRANCH  27  28
ENDBRANCH  26  27
ENDBRANCH  25  26
ENDBRANCH  17  25
ENDBRANCH   1  18
TORSDOF 10
ENDMDL
