MODEL 1
REMARK VINA RESULT:      -7.3      0.000      0.000
REMARK  Name = 
REMARK  10 active torsions:
REMARK  status: ('A' for Active; 'I' for Inactive)
REMARK    1  A    between atoms: C_1  and  C_2
REMARK    2  A    between atoms: C_2  and  O_3
REMARK    3  A    between atoms: O_3  and  C_4
REMARK    4  A    between atoms: C_11  and  C_12
REMARK    5  A    between atoms: N_14  and  C_15
REMARK    6  A    between atoms: C_15  and  C_16
REMARK    7  A    between atoms: N_23  and  C_24
REMARK    8  A    between atoms: C_24  and  C_25
REMARK    9  A    between atoms: C_25  and  O_26
REMARK   10  A    between atoms: O_26  and  C_27
REMARK                            x       y       z     vdW  Elec       q    Type
REMARK                         _______ _______ _______ _____ _____    ______ ____
ROOT
ATOM      1  C   UNL     1       6.586   5.714  17.332  0.00  0.00    +0.000 A 
ATOM      2  C   UNL     1       6.902   4.895  16.237  0.00  0.00    +0.000 A 
ATOM      3  C   UNL     1       5.946   4.069  15.655  0.00  0.00    +0.000 A 
ATOM      4  C   UNL     1       4.639   4.023  16.144  0.00  0.00    +0.000 A 
ATOM      5  C   UNL     1       4.307   4.835  17.245  0.00  0.00    +0.000 A 
ATOM      6  C   UNL     1       5.258   5.675  17.833  0.00  0.00    +0.000 A 
ATOM      7  C   UNL     1       4.600   6.342  18.902  0.00  0.00    +0.000 A 
ATOM      8  C   UNL     1       3.287   5.897  18.992  0.00  0.00    +0.000 A 
ATOM      9  N   UNL     1       3.121   4.977  17.960  0.00  0.00    +0.000 N 
ENDROOT
BRANCH   8  10
ATOM     10  C   UNL     1       2.284   6.262  19.982  0.00  0.00    +0.000 C 
ATOM     11  O   UNL     1       1.591   5.437  20.573  0.00  0.00    +0.000 OA
ATOM     12  N   UNL     1       2.137   7.614  20.191  0.00  0.00    +0.000 N 
ATOM     13  H   UNL     1       2.673   8.261  19.632  0.00  0.00    +0.000 HD
BRANCH  12  14
ATOM     14  C   UNL     1       1.174   8.166  21.123  0.00  0.00    +0.000 C 
BRANCH  14  15
ATOM     15  C   UNL     1       0.491   9.391  20.560  0.00  0.00    +0.000 A 
ATOM     16  C   UNL     1      -0.285  10.216  21.392  0.00  0.00    +0.000 A 
ATOM     17  C   UNL     1      -0.922  11.349  20.879  0.00  0.00    +0.000 A 
ATOM     18  C   UNL     1      -0.774  11.667  19.533  0.00  0.00    +0.000 A 
ATOM     19  F   UNL     1      -1.392  12.748  19.039  0.00  0.00    +0.000 F 
ATOM     20  C   UNL     1       0.005  10.879  18.696  0.00  0.00    +0.000 A 
ATOM     21  C   UNL     1       0.640   9.743  19.208  0.00  0.00    +0.000 A 
ENDBRANCH  14  15
ENDBRANCH  12  14
ENDBRANCH   8  10
BRANCH   1  22
ATOM     22  O   UNL     1       7.486   6.544  17.961  0.00  0.00    +0.000 OA
BRANCH  22  24
ATOM     23  C   UNL     1       8.442   8.716  18.364  0.00  0.00    +0.000 C 
ATOM     24  C   UNL     1       7.616   7.861  17.422  0.00  0.00    +0.000 C 
ENDBRANCH  22  24
ENDBRANCH   1  22
BRANCH   9  25
ATOM     25  C   UNL     1       1.906   4.211  17.694  0.00  0.00    +0.000 C 
BRANCH  25  26
ATOM     26  C   UNL     1       1.803   2.889  18.456  0.00  0.00    +0.000 C 
BRANCH  26  27
ATOM     27  O   UNL     1       2.522   1.871  17.749  0.00  0.00    +0.000 OA
ATOM     28  C   UNL     1       3.604   1.368  18.528  0.00  0.00    +0.000 C 
ENDBRANCH  26  27
ENDBRANCH  25  26
ENDBRANCH   9  25
TORSDOF 8
ENDMDL
MODEL 2
REMARK VINA RESULT:      -7.3      1.021      1.389
REMARK  Name = 
REMARK  10 active torsions:
REMARK  status: ('A' for Active; 'I' for Inactive)
REMARK    1  A    between atoms: C_1  and  C_2
REMARK    2  A    between atoms: C_2  and  O_3
REMARK    3  A    between atoms: O_3  and  C_4
REMARK    4  A    between atoms: C_11  and  C_12
REMARK    5  A    between atoms: N_14  and  C_15
REMARK    6  A    between atoms: C_15  and  C_16
REMARK    7  A    between atoms: N_23  and  C_24
REMARK    8  A    between atoms: C_24  and  C_25
REMARK    9  A    between atoms: C_25  and  O_26
REMARK   10  A    between atoms: O_26  and  C_27
REMARK                            x       y       z     vdW  Elec       q    Type
REMARK                         _______ _______ _______ _____ _____    ______ ____
ROOT
ATOM      1  C   UNL     1       6.058   6.155  16.549  0.00  0.00    +0.000 A 
ATOM      2  C   UNL     1       6.501   5.152  15.673  0.00  0.00    +0.000 A 
ATOM      3  C   UNL     1       5.817   3.946  15.554  0.00  0.00    +0.000 A 
ATOM      4  C   UNL     1       4.670   3.691  16.306  0.00  0.00    +0.000 A 
ATOM      5  C   UNL     1       4.215   4.684  17.192  0.00  0.00    +0.000 A 
ATOM      6  C   UNL     1       4.888   5.904  17.314  0.00  0.00    +0.000 A 
ATOM      7  C   UNL     1       4.175   6.664  18.280  0.00  0.00    +0.000 A 
ATOM      8  C   UNL     1       3.109   5.918  18.766  0.00  0.00    +0.000 A 
ATOM      9  N   UNL     1       3.143   4.706  18.080  0.00  0.00    +0.000 N 
ENDROOT
BRANCH   8  10
ATOM     10  C   UNL     1       2.164   6.282  19.812  0.00  0.00    +0.000 C 
ATOM     11  O   UNL     1       1.411   5.472  20.350  0.00  0.00    +0.000 OA
ATOM     12  N   UNL     1       2.146   7.617  20.142  0.00  0.00    +0.000 N 
ATOM     13  H   UNL     1       2.727   8.261  19.625  0.00  0.00    +0.000 HD
BRANCH  12  14
ATOM     14  C   UNL     1       1.258   8.169  21.146  0.00  0.00    +0.000 C 
BRANCH  14  15
ATOM     15  C   UNL     1       0.550   9.407  20.646  0.00  0.00    +0.000 A 
ATOM     16  C   UNL     1       0.634   9.774  19.292  0.00  0.00    +0.000 A 
ATOM     17  C   UNL     1      -0.014  10.919  18.822  0.00  0.00    +0.000 A 
ATOM     18  C   UNL     1      -0.760  11.694  19.704  0.00  0.00    +0.000 A 
ATOM     19  F   UNL     1      -1.375  12.797  19.256  0.00  0.00    +0.000 F 
ATOM     20  C   UNL     1      -0.876  11.340  21.042  0.00  0.00    +0.000 A 
ATOM     21  C   UNL     1      -0.223  10.197  21.514  0.00  0.00    +0.000 A 
ENDBRANCH  14  15
ENDBRANCH  12  14
ENDBRANCH   8  10
BRANCH   1  22
ATOM     22  O   UNL     1       6.693   7.363  16.723  0.00  0.00    +0.000 OA
BRANCH  22  24
ATOM     23  C   UNL     1       8.112   8.860  17.965  0.00  0.00    +0.000 C 
ATOM     24  C   UNL     1       7.664   7.424  17.770  0.00  0.00    +0.000 C 
ENDBRANCH  22  24
ENDBRANCH   1  22
BRANCH   9  25
ATOM     25  C   UNL     1       2.234   3.583  18.297  0.00  0.00    +0.000 C 
BRANCH  25  26
ATOM     26  C   UNL     1       2.818   2.438  19.126  0.00  0.00    +0.000 C 
BRANCH  26  27
ATOM     27  O   UNL     1       3.504   2.973  20.265  0.00  0.00    +0.000 OA
ATOM     28  C   UNL     1       2.864   2.591  21.479  0.00  0.00    +0.000 C 
ENDBRANCH  26  27
ENDBRANCH  25  26
ENDBRANCH   9  25
TORSDOF 8
ENDMDL
MODEL 3
REMARK VINA RESULT:      -7.2      1.991      2.317
REMARK  Name = 
REMARK  10 active torsions:
REMARK  status: ('A' for Active; 'I' for Inactive)
REMARK    1  A    between atoms: C_1  and  C_2
REMARK    2  A    between atoms: C_2  and  O_3
REMARK    3  A    between atoms: O_3  and  C_4
REMARK    4  A    between atoms: C_11  and  C_12
REMARK    5  A    between atoms: N_14  and  C_15
REMARK    6  A    between atoms: C_15  and  C_16
REMARK    7  A    between atoms: N_23  and  C_24
REMARK    8  A    between atoms: C_24  and  C_25
REMARK    9  A    between atoms: C_25  and  O_26
REMARK   10  A    between atoms: O_26  and  C_27
REMARK                            x       y       z     vdW  Elec       q    Type
REMARK                         _______ _______ _______ _____ _____    ______ ____
ROOT
ATOM      1  C   UNL     1       6.418   5.980  16.567  0.00  0.00    +0.000 A 
ATOM      2  C   UNL     1       6.717   4.700  16.076  0.00  0.00    +0.000 A 
ATOM      3  C   UNL     1       5.775   3.677  16.112  0.00  0.00    +0.000 A 
ATOM      4  C   UNL     1       4.501   3.888  16.641  0.00  0.00    +0.000 A 
ATOM      5  C   UNL     1       4.187   5.165  17.142  0.00  0.00    +0.000 A 
ATOM      6  C   UNL     1       5.123   6.204  17.104  0.00  0.00    +0.000 A 
ATOM      7  C   UNL     1       4.491   7.338  17.682  0.00  0.00    +0.000 A 
ATOM      8  C   UNL     1       3.209   6.997  18.096  0.00  0.00    +0.000 A 
ATOM      9  N   UNL     1       3.036   5.659  17.749  0.00  0.00    +0.000 N 
ENDROOT
BRANCH   8  10
ATOM     10  C   UNL     1       2.244   7.831  18.798  0.00  0.00    +0.000 C 
ATOM     11  O   UNL     1       1.922   7.646  19.971  0.00  0.00    +0.000 OA
ATOM     12  N   UNL     1       1.681   8.832  18.042  0.00  0.00    +0.000 N 
ATOM     13  H   UNL     1       1.916   8.903  17.063  0.00  0.00    +0.000 HD
BRANCH  12  14
ATOM     14  C   UNL     1       0.685   9.748  18.563  0.00  0.00    +0.000 C 
BRANCH  14  15
ATOM     15  C   UNL     1       1.288  11.090  18.908  0.00  0.00    +0.000 A 
ATOM     16  C   UNL     1       0.983  11.711  20.131  0.00  0.00    +0.000 A 
ATOM     17  C   UNL     1       1.533  12.952  20.458  0.00  0.00    +0.000 A 
ATOM     18  C   UNL     1       2.402  13.572  19.566  0.00  0.00    +0.000 A 
ATOM     19  F   UNL     1       2.924  14.767  19.875  0.00  0.00    +0.000 F 
ATOM     20  C   UNL     1       2.737  12.968  18.361  0.00  0.00    +0.000 A 
ATOM     21  C   UNL     1       2.183  11.727  18.031  0.00  0.00    +0.000 A 
ENDBRANCH  14  15
ENDBRANCH  12  14
ENDBRANCH   8  10
BRANCH   1  22
ATOM     22  O   UNL     1       7.307   7.031  16.573  0.00  0.00    +0.000 OA
BRANCH  22  24
ATOM     23  C   UNL     1       8.079   8.894  17.888  0.00  0.00    +0.000 C 
ATOM     24  C   UNL     1       7.849   7.395  17.844  0.00  0.00    +0.000 C 
ENDBRANCH  22  24
ENDBRANCH   1  22
BRANCH   9  25
ATOM     25  C   UNL     1       1.849   4.856  18.034  0.00  0.00    +0.000 C 
BRANCH  25  26
ATOM     26  C   UNL     1       2.027   3.827  19.152  0.00  0.00    +0.000 C 
BRANCH  26  27
ATOM     27  O   UNL     1       1.919   4.477  20.424  0.00  0.00    +0.000 OA
ATOM     28  C   UNL     1       1.990   3.537  21.492  0.00  0.00    +0.000 C 
ENDBRANCH  26  27
ENDBRANCH  25  26
ENDBRANCH   9  25
TORSDOF 8
ENDMDL
MODEL 4
REMARK VINA RESULT:      -7.2      4.093      9.097
REMARK  Name = 
REMARK  10 active torsions:
REMARK  status: ('A' for Active; 'I' for Inactive)
REMARK    1  A    between atoms: C_1  and  C_2
REMARK    2  A    between atoms: C_2  and  O_3
REMARK    3  A    between atoms: O_3  and  C_4
REMARK    4  A    between atoms: C_11  and  C_12
REMARK    5  A    between atoms: N_14  and  C_15
REMARK    6  A    between atoms: C_15  and  C_16
REMARK    7  A    between atoms: N_23  and  C_24
REMARK    8  A    between atoms: C_24  and  C_25
REMARK    9  A    between atoms: C_25  and  O_26
REMARK   10  A    between atoms: O_26  and  C_27
REMARK                            x       y       z     vdW  Elec       q    Type
REMARK                         _______ _______ _______ _____ _____    ______ ____
ROOT
ATOM      1  C   UNL     1      -3.287  11.146  18.285  0.00  0.00    +0.000 A 
ATOM      2  C   UNL     1      -3.957  12.044  19.131  0.00  0.00    +0.000 A 
ATOM      3  C   UNL     1      -3.292  12.688  20.169  0.00  0.00    +0.000 A 
ATOM      4  C   UNL     1      -1.936  12.460  20.408  0.00  0.00    +0.000 A 
ATOM      5  C   UNL     1      -1.251  11.559  19.572  0.00  0.00    +0.000 A 
ATOM      6  C   UNL     1      -1.907  10.911  18.520  0.00  0.00    +0.000 A 
ATOM      7  C   UNL     1      -0.939  10.085  17.888  0.00  0.00    +0.000 A 
ATOM      8  C   UNL     1       0.274  10.194  18.556  0.00  0.00    +0.000 A 
ATOM      9  N   UNL     1       0.067  11.111  19.583  0.00  0.00    +0.000 N 
ENDROOT
BRANCH   8  10
ATOM     10  C   UNL     1       1.511   9.473  18.290  0.00  0.00    +0.000 C 
ATOM     11  O   UNL     1       2.416   9.924  17.590  0.00  0.00    +0.000 OA
ATOM     12  N   UNL     1       1.588   8.221  18.854  0.00  0.00    +0.000 N 
ATOM     13  H   UNL     1       0.793   7.858  19.360  0.00  0.00    +0.000 HD
BRANCH  12  14
ATOM     14  C   UNL     1       2.732   7.348  18.682  0.00  0.00    +0.000 C 
BRANCH  14  15
ATOM     15  C   UNL     1       2.370   5.899  18.913  0.00  0.00    +0.000 A 
ATOM     16  C   UNL     1       2.017   5.453  20.198  0.00  0.00    +0.000 A 
ATOM     17  C   UNL     1       1.683   4.115  20.422  0.00  0.00    +0.000 A 
ATOM     18  C   UNL     1       1.690   3.221  19.356  0.00  0.00    +0.000 A 
ATOM     19  F   UNL     1       1.378   1.936  19.572  0.00  0.00    +0.000 F 
ATOM     20  C   UNL     1       2.014   3.642  18.074  0.00  0.00    +0.000 A 
ATOM     21  C   UNL     1       2.352   4.981  17.850  0.00  0.00    +0.000 A 
ENDBRANCH  14  15
ENDBRANCH  12  14
ENDBRANCH   8  10
BRANCH   1  22
ATOM     22  O   UNL     1      -3.888  10.468  17.249  0.00  0.00    +0.000 OA
BRANCH  22  24
ATOM     23  C   UNL     1      -3.177  10.443  14.949  0.00  0.00    +0.000 C 
ATOM     24  C   UNL     1      -3.988  11.168  16.007  0.00  0.00    +0.000 C 
ENDBRANCH  22  24
ENDBRANCH   1  22
BRANCH   9  25
ATOM     25  C   UNL     1       1.059  11.506  20.581  0.00  0.00    +0.000 C 
BRANCH  25  26
ATOM     26  C   UNL     1       1.612  12.921  20.407  0.00  0.00    +0.000 C 
BRANCH  26  27
ATOM     27  O   UNL     1       2.568  12.934  19.340  0.00  0.00    +0.000 OA
ATOM     28  C   UNL     1       2.014  13.502  18.157  0.00  0.00    +0.000 C 
ENDBRANCH  26  27
ENDBRANCH  25  26
ENDBRANCH   9  25
TORSDOF 8
ENDMDL
MODEL 5
REMARK VINA RESULT:      -7.2      3.033      5.399
REMARK  Name = 
REMARK  10 active torsions:
REMARK  status: ('A' for Active; 'I' for Inactive)
REMARK    1  A    between atoms: C_1  and  C_2
REMARK    2  A    between atoms: C_2  and  O_3
REMARK    3  A    between atoms: O_3  and  C_4
REMARK    4  A    between atoms: C_11  and  C_12
REMARK    5  A    between atoms: N_14  and  C_15
REMARK    6  A    between atoms: C_15  and  C_16
REMARK    7  A    between atoms: N_23  and  C_24
REMARK    8  A    between atoms: C_24  and  C_25
REMARK    9  A    between atoms: C_25  and  O_26
REMARK   10  A    between atoms: O_26  and  C_27
REMARK                            x       y       z     vdW  Elec       q    Type
REMARK                         _______ _______ _______ _____ _____    ______ ____
ROOT
ATOM      1  C   UNL     1       3.525   6.565  17.982  0.00  0.00    +0.000 A 
ATOM      2  C   UNL     1       3.737   5.375  18.696  0.00  0.00    +0.000 A 
ATOM      3  C   UNL     1       3.112   5.147  19.918  0.00  0.00    +0.000 A 
ATOM      4  C   UNL     1       2.256   6.096  20.477  0.00  0.00    +0.000 A 
ATOM      5  C   UNL     1       2.036   7.296  19.776  0.00  0.00    +0.000 A 
ATOM      6  C   UNL     1       2.652   7.533  18.543  0.00  0.00    +0.000 A 
ATOM      7  C   UNL     1       2.222   8.819  18.118  0.00  0.00    +0.000 A 
ATOM      8  C   UNL     1       1.389   9.374  19.081  0.00  0.00    +0.000 A 
ATOM      9  N   UNL     1       1.278   8.421  20.090  0.00  0.00    +0.000 N 
ENDROOT
BRANCH   8  10
ATOM     10  C   UNL     1       0.782  10.698  19.085  0.00  0.00    +0.000 C 
ATOM     11  O   UNL     1       1.231  11.641  19.735  0.00  0.00    +0.000 OA
ATOM     12  N   UNL     1      -0.361  10.817  18.330  0.00  0.00    +0.000 N 
ATOM     13  H   UNL     1      -0.737  10.001  17.872  0.00  0.00    +0.000 HD
BRANCH  12  14
ATOM     14  C   UNL     1      -1.113  12.052  18.229  0.00  0.00    +0.000 C 
BRANCH  14  15
ATOM     15  C   UNL     1      -2.596  11.794  18.099  0.00  0.00    +0.000 A 
ATOM     16  C   UNL     1      -3.469  12.125  19.150  0.00  0.00    +0.000 A 
ATOM     17  C   UNL     1      -4.841  11.887  19.039  0.00  0.00    +0.000 A 
ATOM     18  C   UNL     1      -5.346  11.328  17.869  0.00  0.00    +0.000 A 
ATOM     19  F   UNL     1      -6.661  11.092  17.766  0.00  0.00    +0.000 F 
ATOM     20  C   UNL     1      -4.507  11.013  16.809  0.00  0.00    +0.000 A 
ATOM     21  C   UNL     1      -3.133  11.247  16.921  0.00  0.00    +0.000 A 
ENDBRANCH  14  15
ENDBRANCH  12  14
ENDBRANCH   8  10
BRANCH   1  22
ATOM     22  O   UNL     1       4.121   6.858  16.776  0.00  0.00    +0.000 OA
BRANCH  22  24
ATOM     23  C   UNL     1       5.532   5.522  15.355  0.00  0.00    +0.000 C 
ATOM     24  C   UNL     1       5.458   6.387  16.600  0.00  0.00    +0.000 C 
ENDBRANCH  22  24
ENDBRANCH   1  22
BRANCH   9  25
ATOM     25  C   UNL     1       0.534   8.587  21.336  0.00  0.00    +0.000 C 
BRANCH  25  26
ATOM     26  C   UNL     1       1.327   9.233  22.474  0.00  0.00    +0.000 C 
BRANCH  26  27
ATOM     27  O   UNL     1       0.424   9.692  23.487  0.00  0.00    +0.000 OA
ATOM     28  C   UNL     1      -0.688  10.373  22.916  0.00  0.00    +0.000 C 
ENDBRANCH  26  27
ENDBRANCH  25  26
ENDBRANCH   9  25
TORSDOF 8
ENDMDL
MODEL 6
REMARK VINA RESULT:      -7.1      2.029      4.428
REMARK  Name = 
REMARK  10 active torsions:
REMARK  status: ('A' for Active; 'I' for Inactive)
REMARK    1  A    between atoms: C_1  and  C_2
REMARK    2  A    between atoms: C_2  and  O_3
REMARK    3  A    between atoms: O_3  and  C_4
REMARK    4  A    between atoms: C_11  and  C_12
REMARK    5  A    between atoms: N_14  and  C_15
REMARK    6  A    between atoms: C_15  and  C_16
REMARK    7  A    between atoms: N_23  and  C_24
REMARK    8  A    between atoms: C_24  and  C_25
REMARK    9  A    between atoms: C_25  and  O_26
REMARK   10  A    between atoms: O_26  and  C_27
REMARK                            x       y       z     vdW  Elec       q    Type
REMARK                         _______ _______ _______ _____ _____    ______ ____
ROOT
ATOM      1  C   UNL     1       2.125   3.086  18.967  0.00  0.00    +0.000 A 
ATOM      2  C   UNL     1       2.908   2.012  18.515  0.00  0.00    +0.000 A 
ATOM      3  C   UNL     1       4.009   2.220  17.690  0.00  0.00    +0.000 A 
ATOM      4  C   UNL     1       4.370   3.505  17.281  0.00  0.00    +0.000 A 
ATOM      5  C   UNL     1       3.592   4.591  17.722  0.00  0.00    +0.000 A 
ATOM      6  C   UNL     1       2.488   4.396  18.558  0.00  0.00    +0.000 A 
ATOM      7  C   UNL     1       1.938   5.682  18.807  0.00  0.00    +0.000 A 
ATOM      8  C   UNL     1       2.664   6.642  18.114  0.00  0.00    +0.000 A 
ATOM      9  N   UNL     1       3.683   5.956  17.459  0.00  0.00    +0.000 N 
ENDROOT
BRANCH   8  10
ATOM     10  C   UNL     1       2.405   8.073  18.031  0.00  0.00    +0.000 C 
ATOM     11  O   UNL     1       2.801   8.775  17.102  0.00  0.00    +0.000 OA
ATOM     12  N   UNL     1       1.707   8.601  19.092  0.00  0.00    +0.000 N 
ATOM     13  H   UNL     1       1.464   8.005  19.869  0.00  0.00    +0.000 HD
BRANCH  12  14
ATOM     14  C   UNL     1       1.374  10.008  19.193  0.00  0.00    +0.000 C 
BRANCH  14  15
ATOM     15  C   UNL     1       0.502  10.291  20.394  0.00  0.00    +0.000 A 
ATOM     16  C   UNL     1       0.485   9.402  21.483  0.00  0.00    +0.000 A 
ATOM     17  C   UNL     1      -0.321   9.654  22.596  0.00  0.00    +0.000 A 
ATOM     18  C   UNL     1      -1.103  10.804  22.629  0.00  0.00    +0.000 A 
ATOM     19  F   UNL     1      -1.882  11.042  23.693  0.00  0.00    +0.000 F 
ATOM     20  C   UNL     1      -1.086  11.708  21.575  0.00  0.00    +0.000 A 
ATOM     21  C   UNL     1      -0.283  11.454  20.459  0.00  0.00    +0.000 A 
ENDBRANCH  14  15
ENDBRANCH  12  14
ENDBRANCH   8  10
BRANCH   1  22
ATOM     22  O   UNL     1       1.018   2.948  19.774  0.00  0.00    +0.000 OA
BRANCH  22  24
ATOM     23  C   UNL     1       2.197   3.495  21.800  0.00  0.00    +0.000 C 
ATOM     24  C   UNL     1       1.261   2.517  21.114  0.00  0.00    +0.000 C 
ENDBRANCH  22  24
ENDBRANCH   1  22
BRANCH   9  25
ATOM     25  C   UNL     1       4.671   6.555  16.566  0.00  0.00    +0.000 C 
BRANCH  25  26
ATOM     26  C   UNL     1       6.011   6.889  17.225  0.00  0.00    +0.000 C 
BRANCH  26  27
ATOM     27  O   UNL     1       6.959   5.854  16.934  0.00  0.00    +0.000 OA
ATOM     28  C   UNL     1       7.533   5.331  18.128  0.00  0.00    +0.000 C 
ENDBRANCH  26  27
ENDBRANCH  25  26
ENDBRANCH   9  25
TORSDOF 8
ENDMDL
MODEL 7
REMARK VINA RESULT:      -7.1      4.150      9.112
REMARK  Name = 
REMARK  10 active torsions:
REMARK  status: ('A' for Active; 'I' for Inactive)
REMARK    1  A    between atoms: C_1  and  C_2
REMARK    2  A    between atoms: C_2  and  O_3
REMARK    3  A    between atoms: O_3  and  C_4
REMARK    4  A    between atoms: C_11  and  C_12
REMARK    5  A    between atoms: N_14  and  C_15
REMARK    6  A    between atoms: C_15  and  C_16
REMARK    7  A    between atoms: N_23  and  C_24
REMARK    8  A    between atoms: C_24  and  C_25
REMARK    9  A    between atoms: C_25  and  O_26
REMARK   10  A    between atoms: O_26  and  C_27
REMARK                            x       y       z     vdW  Elec       q    Type
REMARK                         _______ _______ _______ _____ _____    ______ ____
ROOT
ATOM      1  C   UNL     1      -3.517  10.982  17.489  0.00  0.00    +0.000 A 
ATOM      2  C   UNL     1      -4.410  11.816  18.180  0.00  0.00    +0.000 A 
ATOM      3  C   UNL     1      -4.045  12.433  19.372  0.00  0.00    +0.000 A 
ATOM      4  C   UNL     1      -2.779  12.239  19.926  0.00  0.00    +0.000 A 
ATOM      5  C   UNL     1      -1.873  11.402  19.248  0.00  0.00    +0.000 A 
ATOM      6  C   UNL     1      -2.225  10.783  18.044  0.00  0.00    +0.000 A 
ATOM      7  C   UNL     1      -1.098  10.021  17.638  0.00  0.00    +0.000 A 
ATOM      8  C   UNL     1      -0.088  10.139  18.584  0.00  0.00    +0.000 A 
ATOM      9  N   UNL     1      -0.579  10.999  19.564  0.00  0.00    +0.000 N 
ENDROOT
BRANCH   8  10
ATOM     10  C   UNL     1       1.206   9.473  18.601  0.00  0.00    +0.000 C 
ATOM     11  O   UNL     1       2.194   9.907  18.010  0.00  0.00    +0.000 OA
ATOM     12  N   UNL     1       1.245   8.291  19.303  0.00  0.00    +0.000 N 
ATOM     13  H   UNL     1       0.395   7.932  19.712  0.00  0.00    +0.000 HD
BRANCH  12  14
ATOM     14  C   UNL     1       2.440   7.479  19.414  0.00  0.00    +0.000 C 
BRANCH  14  15
ATOM     15  C   UNL     1       2.121   6.003  19.342  0.00  0.00    +0.000 A 
ATOM     16  C   UNL     1       2.223   5.314  18.122  0.00  0.00    +0.000 A 
ATOM     17  C   UNL     1       1.928   3.950  18.047  0.00  0.00    +0.000 A 
ATOM     18  C   UNL     1       1.541   3.269  19.196  0.00  0.00    +0.000 A 
ATOM     19  F   UNL     1       1.249   1.964  19.123  0.00  0.00    +0.000 F 
ATOM     20  C   UNL     1       1.454   3.924  20.418  0.00  0.00    +0.000 A 
ATOM     21  C   UNL     1       1.745   5.290  20.493  0.00  0.00    +0.000 A 
ENDBRANCH  14  15
ENDBRANCH  12  14
ENDBRANCH   8  10
BRANCH   1  22
ATOM     22  O   UNL     1      -3.818  10.334  16.313  0.00  0.00    +0.000 OA
BRANCH  22  24
ATOM     23  C   UNL     1      -3.590   9.988  13.942  0.00  0.00    +0.000 C 
ATOM     24  C   UNL     1      -3.184  10.834  15.134  0.00  0.00    +0.000 C 
ENDBRANCH  22  24
ENDBRANCH   1  22
BRANCH   9  25
ATOM     25  C   UNL     1       0.124  11.379  20.787  0.00  0.00    +0.000 C 
BRANCH  25  26
ATOM     26  C   UNL     1      -0.078  10.424  21.965  0.00  0.00    +0.000 C 
BRANCH  26  27
ATOM     27  O   UNL     1      -0.420  11.174  23.137  0.00  0.00    +0.000 OA
ATOM     28  C   UNL     1      -0.907  12.468  22.797  0.00  0.00    +0.000 C 
ENDBRANCH  26  27
ENDBRANCH  25  26
ENDBRANCH   9  25
TORSDOF 8
ENDMDL
MODEL 8
REMARK VINA RESULT:      -7.0      4.050      9.054
REMARK  Name = 
REMARK  10 active torsions:
REMARK  status: ('A' for Active; 'I' for Inactive)
REMARK    1  A    between atoms: C_1  and  C_2
REMARK    2  A    between atoms: C_2  and  O_3
REMARK    3  A    between atoms: O_3  and  C_4
REMARK    4  A    between atoms: C_11  and  C_12
REMARK    5  A    between atoms: N_14  and  C_15
REMARK    6  A    between atoms: C_15  and  C_16
REMARK    7  A    between atoms: N_23  and  C_24
REMARK    8  A    between atoms: C_24  and  C_25
REMARK    9  A    between atoms: C_25  and  O_26
REMARK   10  A    between atoms: O_26  and  C_27
REMARK                            x       y       z     vdW  Elec       q    Type
REMARK                         _______ _______ _______ _____ _____    ______ ____
ROOT
ATOM      1  C   UNL     1      -3.269  10.931  17.587  0.00  0.00    +0.000 A 
ATOM      2  C   UNL     1      -4.051  11.823  18.338  0.00  0.00    +0.000 A 
ATOM      3  C   UNL     1      -3.550  12.428  19.486  0.00  0.00    +0.000 A 
ATOM      4  C   UNL     1      -2.254  12.166  19.932  0.00  0.00    +0.000 A 
ATOM      5  C   UNL     1      -1.459  11.270  19.193  0.00  0.00    +0.000 A 
ATOM      6  C   UNL     1      -1.949  10.662  18.033  0.00  0.00    +0.000 A 
ATOM      7  C   UNL     1      -0.906   9.830  17.543  0.00  0.00    +0.000 A 
ATOM      8  C   UNL     1       0.186   9.898  18.399  0.00  0.00    +0.000 A 
ATOM      9  N   UNL     1      -0.168  10.795  19.403  0.00  0.00    +0.000 N 
ENDROOT
BRANCH   8  10
ATOM     10  C   UNL     1       1.437   9.157  18.315  0.00  0.00    +0.000 C 
ATOM     11  O   UNL     1       2.365   9.486  17.578  0.00  0.00    +0.000 OA
ATOM     12  N   UNL     1       1.500   8.030  19.100  0.00  0.00    +0.000 N 
ATOM     13  H   UNL     1       0.689   7.754  19.633  0.00  0.00    +0.000 HD
BRANCH  12  14
ATOM     14  C   UNL     1       2.656   7.156  19.133  0.00  0.00    +0.000 C 
BRANCH  14  15
ATOM     15  C   UNL     1       2.256   5.699  19.103  0.00  0.00    +0.000 A 
ATOM     16  C   UNL     1       2.365   4.958  17.914  0.00  0.00    +0.000 A 
ATOM     17  C   UNL     1       1.995   3.611  17.877  0.00  0.00    +0.000 A 
ATOM     18  C   UNL     1       1.526   2.998  19.034  0.00  0.00    +0.000 A 
ATOM     19  F   UNL     1       1.163   1.709  18.996  0.00  0.00    +0.000 F 
ATOM     20  C   UNL     1       1.430   3.704  20.225  0.00  0.00    +0.000 A 
ATOM     21  C   UNL     1       1.795   5.053  20.262  0.00  0.00    +0.000 A 
ENDBRANCH  14  15
ENDBRANCH  12  14
ENDBRANCH   8  10
BRANCH   1  22
ATOM     22  O   UNL     1      -3.707  10.290  16.450  0.00  0.00    +0.000 OA
BRANCH  22  24
ATOM     23  C   UNL     1      -3.946  10.106  14.062  0.00  0.00    +0.000 C 
ATOM     24  C   UNL     1      -3.268  10.837  15.205  0.00  0.00    +0.000 C 
ENDBRANCH  22  24
ENDBRANCH   1  22
BRANCH   9  25
ATOM     25  C   UNL     1       0.658  11.146  20.557  0.00  0.00    +0.000 C 
BRANCH  25  26
ATOM     26  C   UNL     1       1.443  12.450  20.409  0.00  0.00    +0.000 C 
BRANCH  26  27
ATOM     27  O   UNL     1       1.310  12.940  19.069  0.00  0.00    +0.000 OA
ATOM     28  C   UNL     1       2.567  12.956  18.399  0.00  0.00    +0.000 C 
ENDBRANCH  26  27
ENDBRANCH  25  26
ENDBRANCH   9  25
TORSDOF 8
ENDMDL
MODEL 9
REMARK VINA RESULT:      -7.0      1.987      2.540
REMARK  Name = 
REMARK  10 active torsions:
REMARK  status: ('A' for Active; 'I' for Inactive)
REMARK    1  A    between atoms: C_1  and  C_2
REMARK    2  A    between atoms: C_2  and  O_3
REMARK    3  A    between atoms: O_3  and  C_4
REMARK    4  A    between atoms: C_11  and  C_12
REMARK    5  A    between atoms: N_14  and  C_15
REMARK    6  A    between atoms: C_15  and  C_16
REMARK    7  A    between atoms: N_23  and  C_24
REMARK    8  A    between atoms: C_24  and  C_25
REMARK    9  A    between atoms: C_25  and  O_26
REMARK   10  A    between atoms: O_26  and  C_27
REMARK                            x       y       z     vdW  Elec       q    Type
REMARK                         _______ _______ _______ _____ _____    ______ ____
ROOT
ATOM      1  C   UNL     1       5.269   5.857  16.575  0.00  0.00    +0.000 A 
ATOM      2  C   UNL     1       5.436   4.516  16.195  0.00  0.00    +0.000 A 
ATOM      3  C   UNL     1       4.546   3.532  16.615  0.00  0.00    +0.000 A 
ATOM      4  C   UNL     1       3.458   3.845  17.431  0.00  0.00    +0.000 A 
ATOM      5  C   UNL     1       3.279   5.185  17.824  0.00  0.00    +0.000 A 
ATOM      6  C   UNL     1       4.163   6.183  17.402  0.00  0.00    +0.000 A 
ATOM      7  C   UNL     1       3.699   7.400  17.973  0.00  0.00    +0.000 A 
ATOM      8  C   UNL     1       2.578   7.150  18.754  0.00  0.00    +0.000 A 
ATOM      9  N   UNL     1       2.329   5.785  18.645  0.00  0.00    +0.000 N 
ENDROOT
BRANCH   8  10
ATOM     10  C   UNL     1       1.828   8.095  19.571  0.00  0.00    +0.000 C 
ATOM     11  O   UNL     1       1.674   7.960  20.784  0.00  0.00    +0.000 OA
ATOM     12  N   UNL     1       1.266   9.143  18.881  0.00  0.00    +0.000 N 
ATOM     13  H   UNL     1       1.354   9.177  17.876  0.00  0.00    +0.000 HD
BRANCH  12  14
ATOM     14  C   UNL     1       0.469  10.170  19.522  0.00  0.00    +0.000 C 
BRANCH  14  15
ATOM     15  C   UNL     1      -0.787  10.474  18.737  0.00  0.00    +0.000 A 
ATOM     16  C   UNL     1      -1.024   9.839  17.506  0.00  0.00    +0.000 A 
ATOM     17  C   UNL     1      -2.180  10.115  16.773  0.00  0.00    +0.000 A 
ATOM     18  C   UNL     1      -3.110  11.019  17.276  0.00  0.00    +0.000 A 
ATOM     19  F   UNL     1      -4.215  11.291  16.569  0.00  0.00    +0.000 F 
ATOM     20  C   UNL     1      -2.908  11.642  18.500  0.00  0.00    +0.000 A 
ATOM     21  C   UNL     1      -1.749  11.370  19.232  0.00  0.00    +0.000 A 
ENDBRANCH  14  15
ENDBRANCH  12  14
ENDBRANCH   8  10
BRANCH   1  22
ATOM     22  O   UNL     1       6.118   6.875  16.205  0.00  0.00    +0.000 OA
BRANCH  22  24
ATOM     23  C   UNL     1       7.770   6.661  17.944  0.00  0.00    +0.000 C 
ATOM     24  C   UNL     1       6.766   7.577  17.268  0.00  0.00    +0.000 C 
ENDBRANCH  22  24
ENDBRANCH   1  22
BRANCH   9  25
ATOM     25  C   UNL     1       1.268   5.058  19.339  0.00  0.00    +0.000 C 
BRANCH  25  26
ATOM     26  C   UNL     1       1.659   4.515  20.715  0.00  0.00    +0.000 C 
BRANCH  26  27
ATOM     27  O   UNL     1       1.621   3.083  20.693  0.00  0.00    +0.000 OA
ATOM     28  C   UNL     1       2.597   2.527  21.569  0.00  0.00    +0.000 C 
ENDBRANCH  26  27
ENDBRANCH  25  26
ENDBRANCH   9  25
TORSDOF 8
ENDMDL
