MODEL 1
REMARK VINA RESULT:      -8.3      0.000      0.000
REMARK  Name = 
REMARK  8 active torsions:
REMARK  status: ('A' for Active; 'I' for Inactive)
REMARK    1  A    between atoms: C_1  and  C_2
REMARK    2  A    between atoms: C_6  and  N_7
REMARK    3  A    between atoms: C_11  and  C_13
REMARK    4  A    between atoms: C_16  and  C_17
REMARK    5  A    between atoms: C_17  and  N_18
REMARK    6  A    between atoms: N_18  and  S_19
REMARK    7  A    between atoms: S_19  and  C_22
REMARK    8  A    between atoms: C_31  and  C_32
REMARK                            x       y       z     vdW  Elec       q    Type
REMARK                         _______ _______ _______ _____ _____    ______ ____
ROOT
ATOM      1  C   UNL     1      -0.778  11.034  18.080  0.00  0.00    +0.000 C 
ATOM      2  C   UNL     1      -1.624  10.163  17.132  0.00  0.00    +0.000 C 
ATOM      3  C   UNL     1      -2.981   9.736  17.696  0.00  0.00    +0.000 C 
ATOM      4  C   UNL     1      -3.815  10.882  18.287  0.00  0.00    +0.000 C 
ATOM      5  C   UNL     1      -2.964  11.827  19.157  0.00  0.00    +0.000 C 
ATOM      6  C   UNL     1      -1.616  12.228  18.550  0.00  0.00    +0.000 C 
ENDROOT
BRANCH   1  11
ATOM      7  N   UNL     1       2.541   7.192  18.691  0.00  0.00    +0.000 N 
ATOM      8  C   UNL     1       1.661   7.347  19.878  0.00  0.00    +0.000 C 
ATOM      9  C   UNL     1       1.577   8.839  20.264  0.00  0.00    +0.000 C 
ATOM     10  N   UNL     1       1.077   9.651  19.139  0.00  0.00    +0.000 N 
ATOM     11  C   UNL     1      -0.188  10.208  19.244  0.00  0.00    +0.000 C 
ATOM     12  O   UNL     1      -0.836  10.068  20.284  0.00  0.00    +0.000 OA
ATOM     13  C   UNL     1       1.888   9.481  17.918  0.00  0.00    +0.000 C 
ATOM     14  C   UNL     1       2.028   7.982  17.532  0.00  0.00    +0.000 C 
BRANCH   7  20
ATOM     15  C   UNL     1       5.629   4.122  16.200  0.00  0.00    +0.000 C 
ATOM     16  C   UNL     1       4.457   4.365  17.115  0.00  0.00    +0.000 A 
ATOM     17  C   UNL     1       3.665   3.274  17.490  0.00  0.00    +0.000 A 
ATOM     18  C   UNL     1       2.557   3.463  18.305  0.00  0.00    +0.000 A 
ATOM     19  C   UNL     1       2.196   4.750  18.709  0.00  0.00    +0.000 A 
ATOM     20  C   UNL     1       2.944   5.882  18.341  0.00  0.00    +0.000 A 
ATOM     21  C   UNL     1       4.138   5.663  17.599  0.00  0.00    +0.000 A 
ATOM     22  C   UNL     1       5.101   6.797  17.331  0.00  0.00    +0.000 C 
ENDBRANCH   7  20
ENDBRANCH   1  11
BRANCH   4  23
ATOM     23  C   UNL     1      -4.610  11.649  17.212  0.00  0.00    +0.000 C 
BRANCH  23  24
ATOM     24  N   UNL     1      -5.341  12.770  17.846  0.00  0.00    +0.000 NA
ATOM     25  H   UNL     1      -5.328  13.635  17.304  0.00  0.00    +0.000 HD
BRANCH  24  26
ATOM     26  S   UNL     1      -6.925  12.461  18.335  0.00  0.00    +0.000 S 
ATOM     27  O   UNL     1      -7.779  13.418  17.668  0.00  0.00    +0.000 OA
ATOM     28  O   UNL     1      -7.142  11.033  18.205  0.00  0.00    +0.000 OA
BRANCH  26  29
ATOM     29  C   UNL     1      -7.049  12.786  20.075  0.00  0.00    +0.000 A 
ATOM     30  C   UNL     1      -6.940  11.959  21.177  0.00  0.00    +0.000 A 
ATOM     31  C   UNL     1      -7.108  12.665  22.401  0.00  0.00    +0.000 A 
ATOM     32  C   UNL     1      -7.333  14.007  22.193  0.00  0.00    +0.000 A 
ATOM     33  S   UNL     1      -7.322  14.410  20.529  0.00  0.00    +0.000 S 
ENDBRANCH  26  29
ENDBRANCH  24  26
ENDBRANCH  23  24
ENDBRANCH   4  23
TORSDOF 6
ENDMDL
MODEL 2
REMARK VINA RESULT:      -7.7      5.357     10.019
REMARK  Name = 
REMARK  8 active torsions:
REMARK  status: ('A' for Active; 'I' for Inactive)
REMARK    1  A    between atoms: C_1  and  C_2
REMARK    2  A    between atoms: C_6  and  N_7
REMARK    3  A    between atoms: C_11  and  C_13
REMARK    4  A    between atoms: C_16  and  C_17
REMARK    5  A    between atoms: C_17  and  N_18
REMARK    6  A    between atoms: N_18  and  S_19
REMARK    7  A    between atoms: S_19  and  C_22
REMARK    8  A    between atoms: C_31  and  C_32
REMARK                            x       y       z     vdW  Elec       q    Type
REMARK                         _______ _______ _______ _____ _____    ______ ____
ROOT
ATOM      1  C   UNL     1      -0.286   9.462  20.494  0.00  0.00    +0.000 C 
ATOM      2  C   UNL     1       0.019   9.578  18.989  0.00  0.00    +0.000 C 
ATOM      3  C   UNL     1       1.498   9.428  18.622  0.00  0.00    +0.000 C 
ATOM      4  C   UNL     1       2.185   8.198  19.232  0.00  0.00    +0.000 C 
ATOM      5  C   UNL     1       1.810   8.003  20.714  0.00  0.00    +0.000 C 
ATOM      6  C   UNL     1       0.319   8.160  21.031  0.00  0.00    +0.000 C 
ENDROOT
BRANCH   1  11
ATOM      7  N   UNL     1       0.757  14.366  19.489  0.00  0.00    +0.000 N 
ATOM      8  C   UNL     1       1.360  13.931  20.777  0.00  0.00    +0.000 C 
ATOM      9  C   UNL     1       0.315  13.144  21.594  0.00  0.00    +0.000 C 
ATOM     10  N   UNL     1      -0.184  11.981  20.838  0.00  0.00    +0.000 N 
ATOM     11  C   UNL     1       0.175  10.714  21.271  0.00  0.00    +0.000 C 
ATOM     12  O   UNL     1       0.842  10.583  22.300  0.00  0.00    +0.000 OA
ATOM     13  C   UNL     1      -0.739  12.359  19.524  0.00  0.00    +0.000 C 
ATOM     14  C   UNL     1       0.278  13.195  18.696  0.00  0.00    +0.000 C 
BRANCH   7  20
ATOM     15  C   UNL     1       0.850  18.629  16.848  0.00  0.00    +0.000 C 
ATOM     16  C   UNL     1       1.524  17.406  17.413  0.00  0.00    +0.000 A 
ATOM     17  C   UNL     1       2.840  17.129  17.025  0.00  0.00    +0.000 A 
ATOM     18  C   UNL     1       3.484  15.994  17.497  0.00  0.00    +0.000 A 
ATOM     19  C   UNL     1       2.802  15.092  18.317  0.00  0.00    +0.000 A 
ATOM     20  C   UNL     1       1.471  15.311  18.717  0.00  0.00    +0.000 A 
ATOM     21  C   UNL     1       0.861  16.533  18.317  0.00  0.00    +0.000 A 
ATOM     22  C   UNL     1      -0.489  16.937  18.862  0.00  0.00    +0.000 C 
ENDBRANCH   7  20
ENDBRANCH   1  11
BRANCH   4  23
ATOM     23  C   UNL     1       1.948   6.919  18.406  0.00  0.00    +0.000 C 
BRANCH  23  24
ATOM     24  N   UNL     1       3.219   6.496  17.776  0.00  0.00    +0.000 NA
ATOM     25  H   UNL     1       3.929   7.229  17.739  0.00  0.00    +0.000 HD
BRANCH  24  26
ATOM     26  S   UNL     1       3.928   5.087  18.372  0.00  0.00    +0.000 S 
ATOM     27  O   UNL     1       4.202   4.228  17.242  0.00  0.00    +0.000 OA
ATOM     28  O   UNL     1       4.977   5.489  19.289  0.00  0.00    +0.000 OA
BRANCH  26  29
ATOM     29  C   UNL     1       2.737   4.243  19.382  0.00  0.00    +0.000 A 
ATOM     30  C   UNL     1       2.458   4.315  20.733  0.00  0.00    +0.000 A 
ATOM     31  C   UNL     1       1.397   3.447  21.113  0.00  0.00    +0.000 A 
ATOM     32  C   UNL     1       0.897   2.745  20.038  0.00  0.00    +0.000 A 
ATOM     33  S   UNL     1       1.695   3.152  18.579  0.00  0.00    +0.000 S 
ENDBRANCH  26  29
ENDBRANCH  24  26
ENDBRANCH  23  24
ENDBRANCH   4  23
TORSDOF 6
ENDMDL
MODEL 3
REMARK VINA RESULT:      -7.4      5.050     10.251
REMARK  Name = 
REMARK  8 active torsions:
REMARK  status: ('A' for Active; 'I' for Inactive)
REMARK    1  A    between atoms: C_1  and  C_2
REMARK    2  A    between atoms: C_6  and  N_7
REMARK    3  A    between atoms: C_11  and  C_13
REMARK    4  A    between atoms: C_16  and  C_17
REMARK    5  A    between atoms: C_17  and  N_18
REMARK    6  A    between atoms: N_18  and  S_19
REMARK    7  A    between atoms: S_19  and  C_22
REMARK    8  A    between atoms: C_31  and  C_32
REMARK                            x       y       z     vdW  Elec       q    Type
REMARK                         _______ _______ _______ _____ _____    ______ ____
ROOT
ATOM      1  C   UNL     1      -0.818   9.821  21.113  0.00  0.00    +0.000 C 
ATOM      2  C   UNL     1      -0.202   9.713  19.705  0.00  0.00    +0.000 C 
ATOM      3  C   UNL     1       1.321   9.564  19.682  0.00  0.00    +0.000 C 
ATOM      4  C   UNL     1       1.869   8.471  20.612  0.00  0.00    +0.000 C 
ATOM      5  C   UNL     1       1.191   8.496  21.995  0.00  0.00    +0.000 C 
ATOM      6  C   UNL     1      -0.334   8.644  21.966  0.00  0.00    +0.000 C 
ENDROOT
BRANCH   1  11
ATOM      7  N   UNL     1       0.319  14.561  19.567  0.00  0.00    +0.000 N 
ATOM      8  C   UNL     1       0.669  14.354  20.997  0.00  0.00    +0.000 C 
ATOM      9  C   UNL     1      -0.502  13.652  21.715  0.00  0.00    +0.000 C 
ATOM     10  N   UNL     1      -0.826  12.366  21.070  0.00  0.00    +0.000 N 
ATOM     11  C   UNL     1      -0.537  11.196  21.757  0.00  0.00    +0.000 C 
ATOM     12  O   UNL     1      -0.080  11.253  22.901  0.00  0.00    +0.000 OA
ATOM     13  C   UNL     1      -1.122  12.516  19.633  0.00  0.00    +0.000 C 
ATOM     14  C   UNL     1       0.022  13.263  18.891  0.00  0.00    +0.000 C 
BRANCH   7  20
ATOM     15  C   UNL     1       0.901  18.628  16.689  0.00  0.00    +0.000 C 
ATOM     16  C   UNL     1       1.447  17.408  17.385  0.00  0.00    +0.000 A 
ATOM     17  C   UNL     1       2.772  17.033  17.133  0.00  0.00    +0.000 A 
ATOM     18  C   UNL     1       3.302  15.897  17.730  0.00  0.00    +0.000 A 
ATOM     19  C   UNL     1       2.498  15.092  18.539  0.00  0.00    +0.000 A 
ATOM     20  C   UNL     1       1.154  15.411  18.805  0.00  0.00    +0.000 A 
ATOM     21  C   UNL     1       0.657  16.636  18.278  0.00  0.00    +0.000 A 
ATOM     22  C   UNL     1      -0.708  17.151  18.675  0.00  0.00    +0.000 C 
ENDBRANCH   7  20
ENDBRANCH   1  11
BRANCH   4  23
ATOM     23  C   UNL     1       1.817   7.071  19.971  0.00  0.00    +0.000 C 
BRANCH  23  24
ATOM     24  N   UNL     1       1.930   6.040  21.028  0.00  0.00    +0.000 NA
ATOM     25  H   UNL     1       1.216   6.109  21.754  0.00  0.00    +0.000 HD
BRANCH  24  26
ATOM     26  S   UNL     1       2.029   4.436  20.516  0.00  0.00    +0.000 S 
ATOM     27  O   UNL     1       2.524   3.657  21.628  0.00  0.00    +0.000 OA
ATOM     28  O   UNL     1       0.773   4.117  19.866  0.00  0.00    +0.000 OA
BRANCH  26  29
ATOM     29  C   UNL     1       3.249   4.332  19.231  0.00  0.00    +0.000 A 
ATOM     30  C   UNL     1       4.600   4.624  19.217  0.00  0.00    +0.000 A 
ATOM     31  C   UNL     1       5.192   4.379  17.947  0.00  0.00    +0.000 A 
ATOM     32  C   UNL     1       4.276   3.903  17.035  0.00  0.00    +0.000 A 
ATOM     33  S   UNL     1       2.716   3.736  17.721  0.00  0.00    +0.000 S 
ENDBRANCH  26  29
ENDBRANCH  24  26
ENDBRANCH  23  24
ENDBRANCH   4  23
TORSDOF 6
ENDMDL
MODEL 4
REMARK VINA RESULT:      -7.3      4.859     10.347
REMARK  Name = 
REMARK  8 active torsions:
REMARK  status: ('A' for Active; 'I' for Inactive)
REMARK    1  A    between atoms: C_1  and  C_2
REMARK    2  A    between atoms: C_6  and  N_7
REMARK    3  A    between atoms: C_11  and  C_13
REMARK    4  A    between atoms: C_16  and  C_17
REMARK    5  A    between atoms: C_17  and  N_18
REMARK    6  A    between atoms: N_18  and  S_19
REMARK    7  A    between atoms: S_19  and  C_22
REMARK    8  A    between atoms: C_31  and  C_32
REMARK                            x       y       z     vdW  Elec       q    Type
REMARK                         _______ _______ _______ _____ _____    ______ ____
ROOT
ATOM      1  C   UNL     1       2.150   6.512  18.715  0.00  0.00    +0.000 C 
ATOM      2  C   UNL     1       2.475   5.576  17.536  0.00  0.00    +0.000 C 
ATOM      3  C   UNL     1       3.947   5.561  17.118  0.00  0.00    +0.000 C 
ATOM      4  C   UNL     1       4.938   5.360  18.274  0.00  0.00    +0.000 C 
ATOM      5  C   UNL     1       4.570   6.212  19.505  0.00  0.00    +0.000 C 
ATOM      6  C   UNL     1       3.086   6.193  19.886  0.00  0.00    +0.000 C 
ENDROOT
BRANCH   1  11
ATOM      7  N   UNL     1      -0.267  10.850  19.937  0.00  0.00    +0.000 N 
ATOM      8  C   UNL     1       0.409  10.954  18.617  0.00  0.00    +0.000 C 
ATOM      9  C   UNL     1       1.841  10.390  18.727  0.00  0.00    +0.000 C 
ATOM     10  N   UNL     1       1.826   8.991  19.192  0.00  0.00    +0.000 N 
ATOM     11  C   UNL     1       2.186   7.997  18.294  0.00  0.00    +0.000 C 
ATOM     12  O   UNL     1       2.566   8.303  17.161  0.00  0.00    +0.000 OA
ATOM     13  C   UNL     1       1.112   8.831  20.473  0.00  0.00    +0.000 C 
ATOM     14  C   UNL     1      -0.320   9.433  20.405  0.00  0.00    +0.000 C 
BRANCH   7  20
ATOM     15  C   UNL     1      -3.496  13.305  22.888  0.00  0.00    +0.000 C 
ATOM     16  C   UNL     1      -3.085  12.747  21.550  0.00  0.00    +0.000 A 
ATOM     17  C   UNL     1      -4.010  12.779  20.500  0.00  0.00    +0.000 A 
ATOM     18  C   UNL     1      -3.681  12.244  19.263  0.00  0.00    +0.000 A 
ATOM     19  C   UNL     1      -2.445  11.621  19.075  0.00  0.00    +0.000 A 
ATOM     20  C   UNL     1      -1.489  11.541  20.104  0.00  0.00    +0.000 A 
ATOM     21  C   UNL     1      -1.796  12.191  21.332  0.00  0.00    +0.000 A 
ATOM     22  C   UNL     1      -0.752  12.323  22.418  0.00  0.00    +0.000 C 
ENDBRANCH   7  20
ENDBRANCH   1  11
BRANCH   4  23
ATOM     23  C   UNL     1       5.125   3.874  18.639  0.00  0.00    +0.000 C 
BRANCH  23  24
ATOM     24  N   UNL     1       4.537   3.029  17.575  0.00  0.00    +0.000 NA
ATOM     25  H   UNL     1       5.226   2.541  17.002  0.00  0.00    +0.000 HD
BRANCH  24  26
ATOM     26  S   UNL     1       3.352   1.926  18.052  0.00  0.00    +0.000 S 
ATOM     27  O   UNL     1       2.283   1.994  17.082  0.00  0.00    +0.000 OA
ATOM     28  O   UNL     1       4.025   0.678  18.352  0.00  0.00    +0.000 OA
BRANCH  26  29
ATOM     29  C   UNL     1       2.675   2.465  19.602  0.00  0.00    +0.000 A 
ATOM     30  C   UNL     1       3.243   2.614  20.853  0.00  0.00    +0.000 A 
ATOM     31  C   UNL     1       2.309   3.087  21.817  0.00  0.00    +0.000 A 
ATOM     32  C   UNL     1       1.062   3.289  21.268  0.00  0.00    +0.000 A 
ATOM     33  S   UNL     1       1.030   2.926  19.596  0.00  0.00    +0.000 S 
ENDBRANCH  26  29
ENDBRANCH  24  26
ENDBRANCH  23  24
ENDBRANCH   4  23
TORSDOF 6
ENDMDL
MODEL 5
REMARK VINA RESULT:      -7.3      5.400     10.564
REMARK  Name = 
REMARK  8 active torsions:
REMARK  status: ('A' for Active; 'I' for Inactive)
REMARK    1  A    between atoms: C_1  and  C_2
REMARK    2  A    between atoms: C_6  and  N_7
REMARK    3  A    between atoms: C_11  and  C_13
REMARK    4  A    between atoms: C_16  and  C_17
REMARK    5  A    between atoms: C_17  and  N_18
REMARK    6  A    between atoms: N_18  and  S_19
REMARK    7  A    between atoms: S_19  and  C_22
REMARK    8  A    between atoms: C_31  and  C_32
REMARK                            x       y       z     vdW  Elec       q    Type
REMARK                         _______ _______ _______ _____ _____    ______ ____
ROOT
ATOM      1  C   UNL     1      -0.002   9.391  20.115  0.00  0.00    +0.000 C 
ATOM      2  C   UNL     1       0.500   9.442  18.660  0.00  0.00    +0.000 C 
ATOM      3  C   UNL     1       1.982   9.104  18.482  0.00  0.00    +0.000 C 
ATOM      4  C   UNL     1       2.430   7.810  19.177  0.00  0.00    +0.000 C 
ATOM      5  C   UNL     1       1.852   7.689  20.600  0.00  0.00    +0.000 C 
ATOM      6  C   UNL     1       0.365   8.034  20.727  0.00  0.00    +0.000 C 
ENDROOT
BRANCH   1  11
ATOM      7  N   UNL     1       0.850  14.382  19.406  0.00  0.00    +0.000 N 
ATOM      8  C   UNL     1       1.584  13.865  20.591  0.00  0.00    +0.000 C 
ATOM      9  C   UNL     1       0.638  12.992  21.440  0.00  0.00    +0.000 C 
ATOM     10  N   UNL     1       0.088  11.878  20.645  0.00  0.00    +0.000 N 
ATOM     11  C   UNL     1       0.510  10.590  20.941  0.00  0.00    +0.000 C 
ATOM     12  O   UNL     1       1.276  10.398  21.887  0.00  0.00    +0.000 OA
ATOM     13  C   UNL     1      -0.599  12.342  19.425  0.00  0.00    +0.000 C 
ATOM     14  C   UNL     1       0.316  13.264  18.572  0.00  0.00    +0.000 C 
BRANCH   7  20
ATOM     15  C   UNL     1       0.513  18.621  16.745  0.00  0.00    +0.000 C 
ATOM     16  C   UNL     1       1.310  17.485  17.332  0.00  0.00    +0.000 A 
ATOM     17  C   UNL     1       2.658  17.362  16.977  0.00  0.00    +0.000 A 
ATOM     18  C   UNL     1       3.417  16.310  17.470  0.00  0.00    +0.000 A 
ATOM     19  C   UNL     1       2.825  15.338  18.278  0.00  0.00    +0.000 A 
ATOM     20  C   UNL     1       1.469  15.402  18.646  0.00  0.00    +0.000 A 
ATOM     21  C   UNL     1       0.731  16.544  18.225  0.00  0.00    +0.000 A 
ATOM     22  C   UNL     1      -0.670  16.790  18.735  0.00  0.00    +0.000 C 
ENDBRANCH   7  20
ENDBRANCH   1  11
BRANCH   4  23
ATOM     23  C   UNL     1       2.141   6.555  18.330  0.00  0.00    +0.000 C 
BRANCH  23  24
ATOM     24  N   UNL     1       2.121   5.363  19.207  0.00  0.00    +0.000 NA
ATOM     25  H   UNL     1       1.189   4.976  19.364  0.00  0.00    +0.000 HD
BRANCH  24  26
ATOM     26  S   UNL     1       3.167   4.104  18.799  0.00  0.00    +0.000 S 
ATOM     27  O   UNL     1       3.449   3.366  20.009  0.00  0.00    +0.000 OA
ATOM     28  O   UNL     1       2.617   3.454  17.625  0.00  0.00    +0.000 OA
BRANCH  26  29
ATOM     29  C   UNL     1       4.704   4.806  18.255  0.00  0.00    +0.000 A 
ATOM     30  C   UNL     1       5.722   5.439  18.942  0.00  0.00    +0.000 A 
ATOM     31  C   UNL     1       6.784   5.839  18.085  0.00  0.00    +0.000 A 
ATOM     32  C   UNL     1       6.545   5.494  16.773  0.00  0.00    +0.000 A 
ATOM     33  S   UNL     1       5.054   4.674  16.587  0.00  0.00    +0.000 S 
ENDBRANCH  26  29
ENDBRANCH  24  26
ENDBRANCH  23  24
ENDBRANCH   4  23
TORSDOF 6
ENDMDL
MODEL 6
REMARK VINA RESULT:      -7.2      3.209      4.073
REMARK  Name = 
REMARK  8 active torsions:
REMARK  status: ('A' for Active; 'I' for Inactive)
REMARK    1  A    between atoms: C_1  and  C_2
REMARK    2  A    between atoms: C_6  and  N_7
REMARK    3  A    between atoms: C_11  and  C_13
REMARK    4  A    between atoms: C_16  and  C_17
REMARK    5  A    between atoms: C_17  and  N_18
REMARK    6  A    between atoms: N_18  and  S_19
REMARK    7  A    between atoms: S_19  and  C_22
REMARK    8  A    between atoms: C_31  and  C_32
REMARK                            x       y       z     vdW  Elec       q    Type
REMARK                         _______ _______ _______ _____ _____    ______ ____
ROOT
ATOM      1  C   UNL     1       1.116  11.459  20.895  0.00  0.00    +0.000 C 
ATOM      2  C   UNL     1       1.083  12.997  20.973  0.00  0.00    +0.000 C 
ATOM      3  C   UNL     1      -0.238  13.632  20.529  0.00  0.00    +0.000 C 
ATOM      4  C   UNL     1      -1.489  13.017  21.173  0.00  0.00    +0.000 C 
ATOM      5  C   UNL     1      -1.429  11.478  21.199  0.00  0.00    +0.000 C 
ATOM      6  C   UNL     1      -0.088  10.890  21.653  0.00  0.00    +0.000 C 
ENDROOT
BRANCH   1  11
ATOM      7  N   UNL     1       2.389   7.156  18.444  0.00  0.00    +0.000 N 
ATOM      8  C   UNL     1       2.440   8.336  17.540  0.00  0.00    +0.000 C 
ATOM      9  C   UNL     1       1.170   9.189  17.737  0.00  0.00    +0.000 C 
ATOM     10  N   UNL     1       1.031   9.618  19.141  0.00  0.00    +0.000 N 
ATOM     11  C   UNL     1       1.210  10.961  19.437  0.00  0.00    +0.000 C 
ATOM     12  O   UNL     1       1.417  11.767  18.527  0.00  0.00    +0.000 OA
ATOM     13  C   UNL     1       1.036   8.481  20.080  0.00  0.00    +0.000 C 
ATOM     14  C   UNL     1       2.283   7.576  19.873  0.00  0.00    +0.000 C 
BRANCH   7  20
ATOM     15  C   UNL     1       3.450   2.283  17.906  0.00  0.00    +0.000 C 
ATOM     16  C   UNL     1       3.865   3.730  17.969  0.00  0.00    +0.000 A 
ATOM     17  C   UNL     1       5.231   4.033  17.977  0.00  0.00    +0.000 A 
ATOM     18  C   UNL     1       5.654   5.352  18.068  0.00  0.00    +0.000 A 
ATOM     19  C   UNL     1       4.718   6.379  18.209  0.00  0.00    +0.000 A 
ATOM     20  C   UNL     1       3.334   6.126  18.231  0.00  0.00    +0.000 A 
ATOM     21  C   UNL     1       2.912   4.783  18.025  0.00  0.00    +0.000 A 
ATOM     22  C   UNL     1       1.449   4.452  17.838  0.00  0.00    +0.000 C 
ENDBRANCH   7  20
ENDBRANCH   1  11
BRANCH   4  23
ATOM     23  C   UNL     1      -1.785  13.606  22.566  0.00  0.00    +0.000 C 
BRANCH  23  24
ATOM     24  N   UNL     1      -2.425  12.572  23.411  0.00  0.00    +0.000 NA
ATOM     25  H   UNL     1      -1.951  12.409  24.301  0.00  0.00    +0.000 HD
BRANCH  24  26
ATOM     26  S   UNL     1      -4.077  12.747  23.702  0.00  0.00    +0.000 S 
ATOM     27  O   UNL     1      -4.767  12.465  22.464  0.00  0.00    +0.000 OA
ATOM     28  O   UNL     1      -4.377  12.020  24.920  0.00  0.00    +0.000 OA
BRANCH  26  29
ATOM     29  C   UNL     1      -4.400  14.448  24.094  0.00  0.00    +0.000 A 
ATOM     30  C   UNL     1      -3.712  15.362  24.869  0.00  0.00    +0.000 A 
ATOM     31  C   UNL     1      -4.348  16.634  24.897  0.00  0.00    +0.000 A 
ATOM     32  C   UNL     1      -5.497  16.651  24.137  0.00  0.00    +0.000 A 
ATOM     33  S   UNL     1      -5.789  15.143  23.382  0.00  0.00    +0.000 S 
ENDBRANCH  26  29
ENDBRANCH  24  26
ENDBRANCH  23  24
ENDBRANCH   4  23
TORSDOF 6
ENDMDL
MODEL 7
REMARK VINA RESULT:      -7.1      4.232      5.990
REMARK  Name = 
REMARK  8 active torsions:
REMARK  status: ('A' for Active; 'I' for Inactive)
REMARK    1  A    between atoms: C_1  and  C_2
REMARK    2  A    between atoms: C_6  and  N_7
REMARK    3  A    between atoms: C_11  and  C_13
REMARK    4  A    between atoms: C_16  and  C_17
REMARK    5  A    between atoms: C_17  and  N_18
REMARK    6  A    between atoms: N_18  and  S_19
REMARK    7  A    between atoms: S_19  and  C_22
REMARK    8  A    between atoms: C_31  and  C_32
REMARK                            x       y       z     vdW  Elec       q    Type
REMARK                         _______ _______ _______ _____ _____    ______ ____
ROOT
ATOM      1  C   UNL     1      -0.612  11.107  19.282  0.00  0.00    +0.000 C 
ATOM      2  C   UNL     1      -1.780  11.854  19.954  0.00  0.00    +0.000 C 
ATOM      3  C   UNL     1      -1.362  12.877  21.013  0.00  0.00    +0.000 C 
ATOM      4  C   UNL     1      -0.268  13.855  20.558  0.00  0.00    +0.000 C 
ATOM      5  C   UNL     1       0.862  13.141  19.791  0.00  0.00    +0.000 C 
ATOM      6  C   UNL     1       0.394  12.129  18.740  0.00  0.00    +0.000 C 
ENDROOT
BRANCH   1  11
ATOM      7  N   UNL     1       2.447   7.027  18.913  0.00  0.00    +0.000 N 
ATOM      8  C   UNL     1       1.704   7.038  20.200  0.00  0.00    +0.000 C 
ATOM      9  C   UNL     1       1.773   8.448  20.822  0.00  0.00    +0.000 C 
ATOM     10  N   UNL     1       1.228   9.462  19.901  0.00  0.00    +0.000 N 
ATOM     11  C   UNL     1       0.025  10.069  20.230  0.00  0.00    +0.000 C 
ATOM     12  O   UNL     1      -0.525   9.799  21.300  0.00  0.00    +0.000 OA
ATOM     13  C   UNL     1       1.898   9.447  18.586  0.00  0.00    +0.000 C 
ATOM     14  C   UNL     1       1.884   8.026  17.957  0.00  0.00    +0.000 C 
BRANCH   7  20
ATOM     15  C   UNL     1       5.312   4.127  15.990  0.00  0.00    +0.000 C 
ATOM     16  C   UNL     1       4.115   4.339  16.880  0.00  0.00    +0.000 A 
ATOM     17  C   UNL     1       3.170   3.311  16.985  0.00  0.00    +0.000 A 
ATOM     18  C   UNL     1       2.037   3.481  17.769  0.00  0.00    +0.000 A 
ATOM     19  C   UNL     1       1.807   4.699  18.412  0.00  0.00    +0.000 A 
ATOM     20  C   UNL     1       2.713   5.771  18.320  0.00  0.00    +0.000 A 
ATOM     21  C   UNL     1       3.922   5.545  17.606  0.00  0.00    +0.000 A 
ATOM     22  C   UNL     1       5.033   6.570  17.622  0.00  0.00    +0.000 C 
ENDBRANCH   7  20
ENDBRANCH   1  11
BRANCH   4  23
ATOM     23  C   UNL     1      -0.837  15.048  19.766  0.00  0.00    +0.000 C 
BRANCH  23  24
ATOM     24  N   UNL     1       0.067  15.365  18.637  0.00  0.00    +0.000 NA
ATOM     25  H   UNL     1      -0.405  15.439  17.734  0.00  0.00    +0.000 HD
BRANCH  24  26
ATOM     26  S   UNL     1       1.081  16.699  18.828  0.00  0.00    +0.000 S 
ATOM     27  O   UNL     1       0.795  17.619  17.750  0.00  0.00    +0.000 OA
ATOM     28  O   UNL     1       0.992  17.109  20.216  0.00  0.00    +0.000 OA
BRANCH  26  29
ATOM     29  C   UNL     1       2.759  16.164  18.616  0.00  0.00    +0.000 A 
ATOM     30  C   UNL     1       3.365  15.397  17.639  0.00  0.00    +0.000 A 
ATOM     31  C   UNL     1       4.757  15.223  17.875  0.00  0.00    +0.000 A 
ATOM     32  C   UNL     1       5.169  15.867  19.021  0.00  0.00    +0.000 A 
ATOM     33  S   UNL     1       3.882  16.691  19.791  0.00  0.00    +0.000 S 
ENDBRANCH  26  29
ENDBRANCH  24  26
ENDBRANCH  23  24
ENDBRANCH   4  23
TORSDOF 6
ENDMDL
MODEL 8
REMARK VINA RESULT:      -7.1      2.905      3.826
REMARK  Name = 
REMARK  8 active torsions:
REMARK  status: ('A' for Active; 'I' for Inactive)
REMARK    1  A    between atoms: C_1  and  C_2
REMARK    2  A    between atoms: C_6  and  N_7
REMARK    3  A    between atoms: C_11  and  C_13
REMARK    4  A    between atoms: C_16  and  C_17
REMARK    5  A    between atoms: C_17  and  N_18
REMARK    6  A    between atoms: N_18  and  S_19
REMARK    7  A    between atoms: S_19  and  C_22
REMARK    8  A    between atoms: C_31  and  C_32
REMARK                            x       y       z     vdW  Elec       q    Type
REMARK                         _______ _______ _______ _____ _____    ______ ____
ROOT
ATOM      1  C   UNL     1       0.828  11.669  20.920  0.00  0.00    +0.000 C 
ATOM      2  C   UNL     1       1.084  13.186  20.982  0.00  0.00    +0.000 C 
ATOM      3  C   UNL     1      -0.021  14.047  20.365  0.00  0.00    +0.000 C 
ATOM      4  C   UNL     1      -1.440  13.705  20.843  0.00  0.00    +0.000 C 
ATOM      5  C   UNL     1      -1.683  12.184  20.888  0.00  0.00    +0.000 C 
ATOM      6  C   UNL     1      -0.551  11.365  21.517  0.00  0.00    +0.000 C 
ENDROOT
BRANCH   1  11
ATOM      7  N   UNL     1       2.293   7.294  18.715  0.00  0.00    +0.000 N 
ATOM      8  C   UNL     1       2.376   8.438  17.768  0.00  0.00    +0.000 C 
ATOM      9  C   UNL     1       1.085   9.277  17.863  0.00  0.00    +0.000 C 
ATOM     10  N   UNL     1       0.865   9.759  19.239  0.00  0.00    +0.000 N 
ATOM     11  C   UNL     1       1.007  11.115  19.490  0.00  0.00    +0.000 C 
ATOM     12  O   UNL     1       1.251  11.888  18.561  0.00  0.00    +0.000 OA
ATOM     13  C   UNL     1       0.835   8.659  20.222  0.00  0.00    +0.000 C 
ATOM     14  C   UNL     1       2.104   7.768  20.118  0.00  0.00    +0.000 C 
BRANCH   7  20
ATOM     15  C   UNL     1       3.920   2.695  19.883  0.00  0.00    +0.000 C 
ATOM     16  C   UNL     1       4.073   4.012  19.168  0.00  0.00    +0.000 A 
ATOM     17  C   UNL     1       5.277   4.277  18.506  0.00  0.00    +0.000 A 
ATOM     18  C   UNL     1       5.469   5.493  17.864  0.00  0.00    +0.000 A 
ATOM     19  C   UNL     1       4.482   6.479  17.923  0.00  0.00    +0.000 A 
ATOM     20  C   UNL     1       3.264   6.273  18.594  0.00  0.00    +0.000 A 
ATOM     21  C   UNL     1       3.036   4.984  19.153  0.00  0.00    +0.000 A 
ATOM     22  C   UNL     1       1.683   4.614  19.718  0.00  0.00    +0.000 C 
ENDBRANCH   7  20
ENDBRANCH   1  11
BRANCH   4  23
ATOM     23  C   UNL     1      -1.790  14.383  22.182  0.00  0.00    +0.000 C 
BRANCH  23  24
ATOM     24  N   UNL     1      -3.229  14.731  22.195  0.00  0.00    +0.000 NA
ATOM     25  H   UNL     1      -3.670  14.718  21.274  0.00  0.00    +0.000 HD
BRANCH  24  26
ATOM     26  S   UNL     1      -4.205  13.878  23.274  0.00  0.00    +0.000 S 
ATOM     27  O   UNL     1      -3.379  12.871  23.902  0.00  0.00    +0.000 OA
ATOM     28  O   UNL     1      -4.934  14.856  24.058  0.00  0.00    +0.000 OA
BRANCH  26  29
ATOM     29  C   UNL     1      -5.449  13.017  22.346  0.00  0.00    +0.000 A 
ATOM     30  C   UNL     1      -5.425  12.436  21.092  0.00  0.00    +0.000 A 
ATOM     31  C   UNL     1      -6.672  11.842  20.749  0.00  0.00    +0.000 A 
ATOM     32  C   UNL     1      -7.603  11.985  21.753  0.00  0.00    +0.000 A 
ATOM     33  S   UNL     1      -6.964  12.813  23.108  0.00  0.00    +0.000 S 
ENDBRANCH  26  29
ENDBRANCH  24  26
ENDBRANCH  23  24
ENDBRANCH   4  23
TORSDOF 6
ENDMDL
MODEL 9
REMARK VINA RESULT:      -7.0      4.735     11.410
REMARK  Name = 
REMARK  8 active torsions:
REMARK  status: ('A' for Active; 'I' for Inactive)
REMARK    1  A    between atoms: C_1  and  C_2
REMARK    2  A    between atoms: C_6  and  N_7
REMARK    3  A    between atoms: C_11  and  C_13
REMARK    4  A    between atoms: C_16  and  C_17
REMARK    5  A    between atoms: C_17  and  N_18
REMARK    6  A    between atoms: N_18  and  S_19
REMARK    7  A    between atoms: S_19  and  C_22
REMARK    8  A    between atoms: C_31  and  C_32
REMARK                            x       y       z     vdW  Elec       q    Type
REMARK                         _______ _______ _______ _____ _____    ______ ____
ROOT
ATOM      1  C   UNL     1      -0.685  10.127  20.556  0.00  0.00    +0.000 C 
ATOM      2  C   UNL     1      -0.146   9.777  19.156  0.00  0.00    +0.000 C 
ATOM      3  C   UNL     1       1.363   9.527  19.095  0.00  0.00    +0.000 C 
ATOM      4  C   UNL     1       1.890   8.545  20.152  0.00  0.00    +0.000 C 
ATOM      5  C   UNL     1       1.282   8.812  21.542  0.00  0.00    +0.000 C 
ATOM      6  C   UNL     1      -0.230   9.054  21.553  0.00  0.00    +0.000 C 
ENDROOT
BRANCH   1  11
ATOM      7  N   UNL     1      -2.796  14.031  23.094  0.00  0.00    +0.000 N 
ATOM      8  C   UNL     1      -1.650  14.478  22.260  0.00  0.00    +0.000 C 
ATOM      9  C   UNL     1      -0.463  13.513  22.458  0.00  0.00    +0.000 C 
ATOM     10  N   UNL     1      -0.842  12.129  22.119  0.00  0.00    +0.000 N 
ATOM     11  C   UNL     1      -0.292  11.558  20.981  0.00  0.00    +0.000 C 
ATOM     12  O   UNL     1       0.537  12.186  20.320  0.00  0.00    +0.000 OA
ATOM     13  C   UNL     1      -2.015  11.663  22.883  0.00  0.00    +0.000 C 
ATOM     14  C   UNL     1      -3.214  12.642  22.738  0.00  0.00    +0.000 C 
BRANCH   7  20
ATOM     15  C   UNL     1      -5.002  17.814  25.541  0.00  0.00    +0.000 C 
ATOM     16  C   UNL     1      -4.977  16.781  24.445  0.00  0.00    +0.000 A 
ATOM     17  C   UNL     1      -6.128  16.604  23.669  0.00  0.00    +0.000 A 
ATOM     18  C   UNL     1      -6.157  15.639  22.671  0.00  0.00    +0.000 A 
ATOM     19  C   UNL     1      -5.056  14.802  22.475  0.00  0.00    +0.000 A 
ATOM     20  C   UNL     1      -3.884  14.922  23.244  0.00  0.00    +0.000 A 
ATOM     21  C   UNL     1      -3.827  15.987  24.186  0.00  0.00    +0.000 A 
ATOM     22  C   UNL     1      -2.541  16.310  24.911  0.00  0.00    +0.000 C 
ENDBRANCH   7  20
ENDBRANCH   1  11
BRANCH   4  23
ATOM     23  C   UNL     1       1.725   7.074  19.724  0.00  0.00    +0.000 C 
BRANCH  23  24
ATOM     24  N   UNL     1       1.910   6.195  20.901  0.00  0.00    +0.000 NA
ATOM     25  H   UNL     1       1.277   6.398  21.677  0.00  0.00    +0.000 HD
BRANCH  24  26
ATOM     26  S   UNL     1       1.901   4.533  20.615  0.00  0.00    +0.000 S 
ATOM     27  O   UNL     1       2.599   3.901  21.712  0.00  0.00    +0.000 OA
ATOM     28  O   UNL     1       0.541   4.166  20.271  0.00  0.00    +0.000 OA
BRANCH  26  29
ATOM     29  C   UNL     1       2.847   4.210  19.149  0.00  0.00    +0.000 A 
ATOM     30  C   UNL     1       2.486   3.723  17.908  0.00  0.00    +0.000 A 
ATOM     31  C   UNL     1       3.593   3.633  17.019  0.00  0.00    +0.000 A 
ATOM     32  C   UNL     1       4.762   4.060  17.610  0.00  0.00    +0.000 A 
ATOM     33  S   UNL     1       4.513   4.584  19.220  0.00  0.00    +0.000 S 
ENDBRANCH  26  29
ENDBRANCH  24  26
ENDBRANCH  23  24
ENDBRANCH   4  23
TORSDOF 6
ENDMDL
