MODEL 1
REMARK VINA RESULT:      -8.3      0.000      0.000
REMARK  Name = 
REMARK  3 active torsions:
REMARK  status: ('A' for Active; 'I' for Inactive)
REMARK    1  A    between atoms: S_2  and  C_4
REMARK    2  A    between atoms: S_2  and  N_11
REMARK    3  A    between atoms: C_15  and  C_16
REMARK                            x       y       z     vdW  Elec       q    Type
REMARK                         _______ _______ _______ _____ _____    ______ ____
ROOT
ATOM      1  N   UNL     1       3.202   4.291  18.669  0.00  0.00    +0.000 NA
ATOM      2  C   UNL     1       2.325   3.578  19.652  0.00  0.00    +0.000 C 
ATOM      3  C   UNL     1       2.071   4.411  20.930  0.00  0.00    +0.000 C 
ATOM      4  N   UNL     1       1.605   5.778  20.674  0.00  0.00    +0.000 NA
ATOM      5  C   UNL     1       2.493   6.483  19.717  0.00  0.00    +0.000 C 
ATOM      6  C   UNL     1       2.651   5.674  18.402  0.00  0.00    +0.000 C 
ATOM      7  H   UNL     1       1.605   6.309  21.546  0.00  0.00    +0.000 HD
ENDROOT
BRANCH   5   8
ATOM      8  C   UNL     1       1.962   7.896  19.509  0.00  0.00    +0.000 A 
ATOM      9  C   UNL     1       1.275   8.547  20.547  0.00  0.00    +0.000 A 
ATOM     10  C   UNL     1       0.634   9.769  20.323  0.00  0.00    +0.000 A 
ATOM     11  C   UNL     1       0.681  10.362  19.063  0.00  0.00    +0.000 A 
ATOM     12  C   UNL     1       1.395   9.752  18.035  0.00  0.00    +0.000 A 
ATOM     13  C   UNL     1       2.040   8.533  18.259  0.00  0.00    +0.000 A 
ENDBRANCH   5   8
BRANCH   1  15
ATOM     14  O   UNL     1       5.210   2.944  19.524  0.00  0.00    +0.000 OA
ATOM     15  S   UNL     1       4.887   4.241  18.969  0.00  0.00    +0.000 S 
ATOM     16  O   UNL     1       5.257   5.457  19.654  0.00  0.00    +0.000 OA
BRANCH  15  17
ATOM     17  C   UNL     1       5.624   4.340  17.347  0.00  0.00    +0.000 A 
ATOM     18  C   UNL     1       4.837   4.061  16.222  0.00  0.00    +0.000 A 
ATOM     19  C   UNL     1       5.383   4.218  14.945  0.00  0.00    +0.000 A 
ATOM     20  C   UNL     1       6.695   4.654  14.806  0.00  0.00    +0.000 A 
ATOM     21  F   UNL     1       7.211   4.814  13.578  0.00  0.00    +0.000 F 
ATOM     22  C   UNL     1       7.480   4.944  15.919  0.00  0.00    +0.000 A 
ATOM     23  C   UNL     1       6.943   4.790  17.201  0.00  0.00    +0.000 A 
ENDBRANCH  15  17
ENDBRANCH   1  15
TORSDOF 3
ENDMDL
MODEL 2
REMARK VINA RESULT:      -8.3      0.111      1.040
REMARK  Name = 
REMARK  3 active torsions:
REMARK  status: ('A' for Active; 'I' for Inactive)
REMARK    1  A    between atoms: S_2  and  C_4
REMARK    2  A    between atoms: S_2  and  N_11
REMARK    3  A    between atoms: C_15  and  C_16
REMARK                            x       y       z     vdW  Elec       q    Type
REMARK                         _______ _______ _______ _____ _____    ______ ____
ROOT
ATOM      1  N   UNL     1       3.239   4.269  18.768  0.00  0.00    +0.000 NA
ATOM      2  C   UNL     1       2.425   3.596  19.830  0.00  0.00    +0.000 C 
ATOM      3  C   UNL     1       2.230   4.488  21.078  0.00  0.00    +0.000 C 
ATOM      4  N   UNL     1       1.734   5.836  20.782  0.00  0.00    +0.000 NA
ATOM      5  C   UNL     1       2.559   6.502  19.746  0.00  0.00    +0.000 C 
ATOM      6  C   UNL     1       2.656   5.632  18.465  0.00  0.00    +0.000 C 
ATOM      7  H   UNL     1       1.774   6.408  21.627  0.00  0.00    +0.000 HD
ENDROOT
BRANCH   5   8
ATOM      8  C   UNL     1       2.000   7.898  19.499  0.00  0.00    +0.000 A 
ATOM      9  C   UNL     1       1.286   8.557  20.514  0.00  0.00    +0.000 A 
ATOM     10  C   UNL     1       0.621   9.759  20.254  0.00  0.00    +0.000 A 
ATOM     11  C   UNL     1       0.671  10.325  18.983  0.00  0.00    +0.000 A 
ATOM     12  C   UNL     1       1.411   9.708  17.977  0.00  0.00    +0.000 A 
ATOM     13  C   UNL     1       2.080   8.508  18.236  0.00  0.00    +0.000 A 
ENDBRANCH   5   8
BRANCH   1  15
ATOM     14  O   UNL     1       5.322   2.937  19.445  0.00  0.00    +0.000 OA
ATOM     15  S   UNL     1       4.937   4.251  18.977  0.00  0.00    +0.000 S 
ATOM     16  O   UNL     1       5.313   5.440  19.705  0.00  0.00    +0.000 OA
BRANCH  15  17
ATOM     17  C   UNL     1       5.585   4.454  17.327  0.00  0.00    +0.000 A 
ATOM     18  C   UNL     1       6.894   4.926  17.161  0.00  0.00    +0.000 A 
ATOM     19  C   UNL     1       7.438   5.007  15.876  0.00  0.00    +0.000 A 
ATOM     20  C   UNL     1       6.678   4.615  14.780  0.00  0.00    +0.000 A 
ATOM     21  F   UNL     1       7.208   4.685  13.550  0.00  0.00    +0.000 F 
ATOM     22  C   UNL     1       5.381   4.135  14.938  0.00  0.00    +0.000 A 
ATOM     23  C   UNL     1       4.828   4.050  16.220  0.00  0.00    +0.000 A 
ENDBRANCH  15  17
ENDBRANCH   1  15
TORSDOF 3
ENDMDL
MODEL 3
REMARK VINA RESULT:      -8.3      3.022      7.146
REMARK  Name = 
REMARK  3 active torsions:
REMARK  status: ('A' for Active; 'I' for Inactive)
REMARK    1  A    between atoms: S_2  and  C_4
REMARK    2  A    between atoms: S_2  and  N_11
REMARK    3  A    between atoms: C_15  and  C_16
REMARK                            x       y       z     vdW  Elec       q    Type
REMARK                         _______ _______ _______ _____ _____    ______ ____
ROOT
ATOM      1  N   UNL     1       5.430   6.329  17.744  0.00  0.00    +0.000 NA
ATOM      2  C   UNL     1       6.726   6.073  18.450  0.00  0.00    +0.000 C 
ATOM      3  C   UNL     1       7.375   4.736  18.025  0.00  0.00    +0.000 C 
ATOM      4  N   UNL     1       7.501   4.563  16.574  0.00  0.00    +0.000 NA
ATOM      5  C   UNL     1       6.208   4.796  15.886  0.00  0.00    +0.000 C 
ATOM      6  C   UNL     1       5.625   6.188  16.250  0.00  0.00    +0.000 C 
ATOM      7  H   UNL     1       7.794   3.607  16.368  0.00  0.00    +0.000 HD
ENDROOT
BRANCH   5   8
ATOM      8  C   UNL     1       6.405   4.585  14.390  0.00  0.00    +0.000 A 
ATOM      9  C   UNL     1       5.578   3.689  13.693  0.00  0.00    +0.000 A 
ATOM     10  C   UNL     1       5.849   3.354  12.364  0.00  0.00    +0.000 A 
ATOM     11  C   UNL     1       6.943   3.917  11.709  0.00  0.00    +0.000 A 
ATOM     12  C   UNL     1       7.747   4.840  12.372  0.00  0.00    +0.000 A 
ATOM     13  C   UNL     1       7.474   5.181  13.700  0.00  0.00    +0.000 A 
ENDBRANCH   5   8
BRANCH   1  15
ATOM     14  O   UNL     1       4.422   4.870  19.595  0.00  0.00    +0.000 OA
ATOM     15  S   UNL     1       4.050   5.527  18.361  0.00  0.00    +0.000 S 
ATOM     16  O   UNL     1       3.438   4.789  17.281  0.00  0.00    +0.000 OA
BRANCH  15  17
ATOM     17  C   UNL     1       2.919   6.846  18.764  0.00  0.00    +0.000 A 
ATOM     18  C   UNL     1       2.326   6.872  20.033  0.00  0.00    +0.000 A 
ATOM     19  C   UNL     1       1.506   7.947  20.388  0.00  0.00    +0.000 A 
ATOM     20  C   UNL     1       1.291   8.978  19.481  0.00  0.00    +0.000 A 
ATOM     21  F   UNL     1       0.512  10.013  19.829  0.00  0.00    +0.000 F 
ATOM     22  C   UNL     1       1.886   8.965  18.222  0.00  0.00    +0.000 A 
ATOM     23  C   UNL     1       2.708   7.894  17.858  0.00  0.00    +0.000 A 
ENDBRANCH  15  17
ENDBRANCH   1  15
TORSDOF 3
ENDMDL
MODEL 4
REMARK VINA RESULT:      -8.3      1.703      2.170
REMARK  Name = 
REMARK  3 active torsions:
REMARK  status: ('A' for Active; 'I' for Inactive)
REMARK    1  A    between atoms: S_2  and  C_4
REMARK    2  A    between atoms: S_2  and  N_11
REMARK    3  A    between atoms: C_15  and  C_16
REMARK                            x       y       z     vdW  Elec       q    Type
REMARK                         _______ _______ _______ _____ _____    ______ ____
ROOT
ATOM      1  N   UNL     1       2.188   2.962  19.260  0.00  0.00    +0.000 NA
ATOM      2  C   UNL     1       1.689   2.740  20.654  0.00  0.00    +0.000 C 
ATOM      3  C   UNL     1       2.215   3.804  21.646  0.00  0.00    +0.000 C 
ATOM      4  N   UNL     1       2.010   5.189  21.206  0.00  0.00    +0.000 NA
ATOM      5  C   UNL     1       2.528   5.403  19.834  0.00  0.00    +0.000 C 
ATOM      6  C   UNL     1       1.909   4.387  18.838  0.00  0.00    +0.000 C 
ATOM      7  H   UNL     1       2.511   5.823  21.830  0.00  0.00    +0.000 HD
ENDROOT
BRANCH   5   8
ATOM      8  C   UNL     1       2.299   6.859  19.448  0.00  0.00    +0.000 A 
ATOM      9  C   UNL     1       1.663   7.732  20.347  0.00  0.00    +0.000 A 
ATOM     10  C   UNL     1       1.291   9.019  19.950  0.00  0.00    +0.000 A 
ATOM     11  C   UNL     1       1.559   9.457  18.655  0.00  0.00    +0.000 A 
ATOM     12  C   UNL     1       2.228   8.621  17.765  0.00  0.00    +0.000 A 
ATOM     13  C   UNL     1       2.605   7.335  18.161  0.00  0.00    +0.000 A 
ENDBRANCH   5   8
BRANCH   1  15
ATOM     14  O   UNL     1       3.694   1.413  17.878  0.00  0.00    +0.000 OA
ATOM     15  S   UNL     1       3.775   2.416  18.918  0.00  0.00    +0.000 S 
ATOM     16  O   UNL     1       4.434   2.137  20.172  0.00  0.00    +0.000 OA
BRANCH  15  17
ATOM     17  C   UNL     1       4.593   3.847  18.235  0.00  0.00    +0.000 A 
ATOM     18  C   UNL     1       5.490   4.566  19.034  0.00  0.00    +0.000 A 
ATOM     19  C   UNL     1       6.199   5.637  18.481  0.00  0.00    +0.000 A 
ATOM     20  C   UNL     1       6.009   5.971  17.145  0.00  0.00    +0.000 A 
ATOM     21  F   UNL     1       6.699   6.992  16.615  0.00  0.00    +0.000 F 
ATOM     22  C   UNL     1       5.127   5.254  16.341  0.00  0.00    +0.000 A 
ATOM     23  C   UNL     1       4.413   4.182  16.886  0.00  0.00    +0.000 A 
ENDBRANCH  15  17
ENDBRANCH   1  15
TORSDOF 3
ENDMDL
MODEL 5
REMARK VINA RESULT:      -8.2      0.150      1.039
REMARK  Name = 
REMARK  3 active torsions:
REMARK  status: ('A' for Active; 'I' for Inactive)
REMARK    1  A    between atoms: S_2  and  C_4
REMARK    2  A    between atoms: S_2  and  N_11
REMARK    3  A    between atoms: C_15  and  C_16
REMARK                            x       y       z     vdW  Elec       q    Type
REMARK                         _______ _______ _______ _____ _____    ______ ____
ROOT
ATOM      1  N   UNL     1       3.198   4.284  18.669  0.00  0.00    +0.000 NA
ATOM      2  C   UNL     1       2.335   3.561  19.656  0.00  0.00    +0.000 C 
ATOM      3  C   UNL     1       2.053   4.403  20.922  0.00  0.00    +0.000 C 
ATOM      4  N   UNL     1       1.552   5.754  20.646  0.00  0.00    +0.000 NA
ATOM      5  C   UNL     1       2.425   6.470  19.685  0.00  0.00    +0.000 C 
ATOM      6  C   UNL     1       2.612   5.649  18.381  0.00  0.00    +0.000 C 
ATOM      7  H   UNL     1       1.533   6.295  21.512  0.00  0.00    +0.000 HD
ENDROOT
BRANCH   5   8
ATOM      8  C   UNL     1       1.859   7.865  19.457  0.00  0.00    +0.000 A 
ATOM      9  C   UNL     1       2.056   8.509  18.223  0.00  0.00    +0.000 A 
ATOM     10  C   UNL     1       1.696   9.848  18.052  0.00  0.00    +0.000 A 
ATOM     11  C   UNL     1       1.122  10.559  19.104  0.00  0.00    +0.000 A 
ATOM     12  C   UNL     1       0.879   9.923  20.318  0.00  0.00    +0.000 A 
ATOM     13  C   UNL     1       1.234   8.583  20.491  0.00  0.00    +0.000 A 
ENDBRANCH   5   8
BRANCH   1  15
ATOM     14  O   UNL     1       5.235   3.004  19.556  0.00  0.00    +0.000 OA
ATOM     15  S   UNL     1       4.882   4.283  18.978  0.00  0.00    +0.000 S 
ATOM     16  O   UNL     1       5.217   5.519  19.644  0.00  0.00    +0.000 OA
BRANCH  15  17
ATOM     17  C   UNL     1       5.625   4.374  17.358  0.00  0.00    +0.000 A 
ATOM     18  C   UNL     1       4.865   4.014  16.238  0.00  0.00    +0.000 A 
ATOM     19  C   UNL     1       5.411   4.163  14.960  0.00  0.00    +0.000 A 
ATOM     20  C   UNL     1       6.697   4.670  14.814  0.00  0.00    +0.000 A 
ATOM     21  F   UNL     1       7.213   4.821  13.585  0.00  0.00    +0.000 F 
ATOM     22  C   UNL     1       7.454   5.040  15.923  0.00  0.00    +0.000 A 
ATOM     23  C   UNL     1       6.917   4.895  17.206  0.00  0.00    +0.000 A 
ENDBRANCH  15  17
ENDBRANCH   1  15
TORSDOF 3
ENDMDL
MODEL 6
REMARK VINA RESULT:      -8.2      3.019      7.160
REMARK  Name = 
REMARK  3 active torsions:
REMARK  status: ('A' for Active; 'I' for Inactive)
REMARK    1  A    between atoms: S_2  and  C_4
REMARK    2  A    between atoms: S_2  and  N_11
REMARK    3  A    between atoms: C_15  and  C_16
REMARK                            x       y       z     vdW  Elec       q    Type
REMARK                         _______ _______ _______ _____ _____    ______ ____
ROOT
ATOM      1  N   UNL     1       5.569   6.304  17.680  0.00  0.00    +0.000 NA
ATOM      2  C   UNL     1       6.844   6.110  18.439  0.00  0.00    +0.000 C 
ATOM      3  C   UNL     1       7.539   4.773  18.094  0.00  0.00    +0.000 C 
ATOM      4  N   UNL     1       7.720   4.542  16.657  0.00  0.00    +0.000 NA
ATOM      5  C   UNL     1       6.447   4.715  15.916  0.00  0.00    +0.000 C 
ATOM      6  C   UNL     1       5.819   6.106  16.201  0.00  0.00    +0.000 C 
ATOM      7  H   UNL     1       8.042   3.586  16.501  0.00  0.00    +0.000 HD
ENDROOT
BRANCH   5   8
ATOM      8  C   UNL     1       6.701   4.447  14.438  0.00  0.00    +0.000 A 
ATOM      9  C   UNL     1       7.635   5.228  13.734  0.00  0.00    +0.000 A 
ATOM     10  C   UNL     1       7.758   5.114  12.347  0.00  0.00    +0.000 A 
ATOM     11  C   UNL     1       6.962   4.211  11.645  0.00  0.00    +0.000 A 
ATOM     12  C   UNL     1       6.064   3.399  12.333  0.00  0.00    +0.000 A 
ATOM     13  C   UNL     1       5.942   3.508  13.721  0.00  0.00    +0.000 A 
ENDBRANCH   5   8
BRANCH   1  15
ATOM     14  O   UNL     1       4.547   4.849  19.527  0.00  0.00    +0.000 OA
ATOM     15  S   UNL     1       4.186   5.494  18.282  0.00  0.00    +0.000 S 
ATOM     16  O   UNL     1       3.597   4.744  17.199  0.00  0.00    +0.000 OA
BRANCH  15  17
ATOM     17  C   UNL     1       3.038   6.807  18.661  0.00  0.00    +0.000 A 
ATOM     18  C   UNL     1       2.439   6.845  19.926  0.00  0.00    +0.000 A 
ATOM     19  C   UNL     1       1.605   7.915  20.260  0.00  0.00    +0.000 A 
ATOM     20  C   UNL     1       1.384   8.930  19.337  0.00  0.00    +0.000 A 
ATOM     21  F   UNL     1       0.591   9.962  19.666  0.00  0.00    +0.000 F 
ATOM     22  C   UNL     1       1.985   8.905  18.081  0.00  0.00    +0.000 A 
ATOM     23  C   UNL     1       2.821   7.838  17.738  0.00  0.00    +0.000 A 
ENDBRANCH  15  17
ENDBRANCH   1  15
TORSDOF 3
ENDMDL
MODEL 7
REMARK VINA RESULT:      -8.1      0.321      1.458
REMARK  Name = 
REMARK  3 active torsions:
REMARK  status: ('A' for Active; 'I' for Inactive)
REMARK    1  A    between atoms: S_2  and  C_4
REMARK    2  A    between atoms: S_2  and  N_11
REMARK    3  A    between atoms: C_15  and  C_16
REMARK                            x       y       z     vdW  Elec       q    Type
REMARK                         _______ _______ _______ _____ _____    ______ ____
ROOT
ATOM      1  N   UNL     1       3.255   4.279  18.790  0.00  0.00    +0.000 NA
ATOM      2  C   UNL     1       2.449   3.618  19.866  0.00  0.00    +0.000 C 
ATOM      3  C   UNL     1       2.222   4.542  21.085  0.00  0.00    +0.000 C 
ATOM      4  N   UNL     1       1.695   5.868  20.746  0.00  0.00    +0.000 NA
ATOM      5  C   UNL     1       2.512   6.523  19.696  0.00  0.00    +0.000 C 
ATOM      6  C   UNL     1       2.642   5.618  18.442  0.00  0.00    +0.000 C 
ATOM      7  H   UNL     1       1.715   6.465  21.573  0.00  0.00    +0.000 HD
ENDROOT
BRANCH   5   8
ATOM      8  C   UNL     1       1.921   7.896  19.404  0.00  0.00    +0.000 A 
ATOM      9  C   UNL     1       2.143   8.505  18.156  0.00  0.00    +0.000 A 
ATOM     10  C   UNL     1       1.758   9.828  17.929  0.00  0.00    +0.000 A 
ATOM     11  C   UNL     1       1.135  10.559  18.939  0.00  0.00    +0.000 A 
ATOM     12  C   UNL     1       0.867   9.957  20.166  0.00  0.00    +0.000 A 
ATOM     13  C   UNL     1       1.248   8.632  20.394  0.00  0.00    +0.000 A 
ENDBRANCH   5   8
BRANCH   1  15
ATOM     14  O   UNL     1       5.373   2.999  19.459  0.00  0.00    +0.000 OA
ATOM     15  S   UNL     1       4.952   4.310  19.013  0.00  0.00    +0.000 S 
ATOM     16  O   UNL     1       5.285   5.495  19.766  0.00  0.00    +0.000 OA
BRANCH  15  17
ATOM     17  C   UNL     1       5.605   4.564  17.372  0.00  0.00    +0.000 A 
ATOM     18  C   UNL     1       6.674   5.451  17.193  0.00  0.00    +0.000 A 
ATOM     19  C   UNL     1       7.247   5.592  15.926  0.00  0.00    +0.000 A 
ATOM     20  C   UNL     1       6.753   4.848  14.861  0.00  0.00    +0.000 A 
ATOM     21  F   UNL     1       7.313   4.978  13.648  0.00  0.00    +0.000 F 
ATOM     22  C   UNL     1       5.697   3.957  15.032  0.00  0.00    +0.000 A 
ATOM     23  C   UNL     1       5.118   3.809  16.297  0.00  0.00    +0.000 A 
ENDBRANCH  15  17
ENDBRANCH   1  15
TORSDOF 3
ENDMDL
MODEL 8
REMARK VINA RESULT:      -8.1      1.735      1.979
REMARK  Name = 
REMARK  3 active torsions:
REMARK  status: ('A' for Active; 'I' for Inactive)
REMARK    1  A    between atoms: S_2  and  C_4
REMARK    2  A    between atoms: S_2  and  N_11
REMARK    3  A    between atoms: C_15  and  C_16
REMARK                            x       y       z     vdW  Elec       q    Type
REMARK                         _______ _______ _______ _____ _____    ______ ____
ROOT
ATOM      1  N   UNL     1       2.224   2.909  19.247  0.00  0.00    +0.000 NA
ATOM      2  C   UNL     1       1.644   2.683  20.609  0.00  0.00    +0.000 C 
ATOM      3  C   UNL     1       2.108   3.745  21.632  0.00  0.00    +0.000 C 
ATOM      4  N   UNL     1       1.928   5.130  21.186  0.00  0.00    +0.000 NA
ATOM      5  C   UNL     1       2.526   5.350  19.847  0.00  0.00    +0.000 C 
ATOM      6  C   UNL     1       1.969   4.336  18.813  0.00  0.00    +0.000 C 
ATOM      7  H   UNL     1       2.390   5.763  21.840  0.00  0.00    +0.000 HD
ENDROOT
BRANCH   5   8
ATOM      8  C   UNL     1       2.318   6.807  19.452  0.00  0.00    +0.000 A 
ATOM      9  C   UNL     1       1.708   7.697  20.352  0.00  0.00    +0.000 A 
ATOM     10  C   UNL     1       1.354   8.988  19.950  0.00  0.00    +0.000 A 
ATOM     11  C   UNL     1       1.615   9.411  18.648  0.00  0.00    +0.000 A 
ATOM     12  C   UNL     1       2.259   8.556  17.757  0.00  0.00    +0.000 A 
ATOM     13  C   UNL     1       2.618   7.267  18.159  0.00  0.00    +0.000 A 
ENDBRANCH   5   8
BRANCH   1  15
ATOM     14  O   UNL     1       3.797   1.286  18.037  0.00  0.00    +0.000 OA
ATOM     15  S   UNL     1       3.829   2.367  18.999  0.00  0.00    +0.000 S 
ATOM     16  O   UNL     1       4.451   2.196  20.290  0.00  0.00    +0.000 OA
BRANCH  15  17
ATOM     17  C   UNL     1       4.648   3.755  18.233  0.00  0.00    +0.000 A 
ATOM     18  C   UNL     1       4.370   4.056  16.893  0.00  0.00    +0.000 A 
ATOM     19  C   UNL     1       4.941   5.191  16.311  0.00  0.00    +0.000 A 
ATOM     20  C   UNL     1       5.773   6.008  17.066  0.00  0.00    +0.000 A 
ATOM     21  F   UNL     1       6.311   7.102  16.507  0.00  0.00    +0.000 F 
ATOM     22  C   UNL     1       6.046   5.721  18.401  0.00  0.00    +0.000 A 
ATOM     23  C   UNL     1       5.479   4.588  18.993  0.00  0.00    +0.000 A 
ENDBRANCH  15  17
ENDBRANCH   1  15
TORSDOF 3
ENDMDL
MODEL 9
REMARK VINA RESULT:      -8.1      3.048      7.176
REMARK  Name = 
REMARK  3 active torsions:
REMARK  status: ('A' for Active; 'I' for Inactive)
REMARK    1  A    between atoms: S_2  and  C_4
REMARK    2  A    between atoms: S_2  and  N_11
REMARK    3  A    between atoms: C_15  and  C_16
REMARK                            x       y       z     vdW  Elec       q    Type
REMARK                         _______ _______ _______ _____ _____    ______ ____
ROOT
ATOM      1  N   UNL     1       5.530   6.481  17.656  0.00  0.00    +0.000 NA
ATOM      2  C   UNL     1       6.832   6.228  18.351  0.00  0.00    +0.000 C 
ATOM      3  C   UNL     1       7.457   4.870  17.960  0.00  0.00    +0.000 C 
ATOM      4  N   UNL     1       7.559   4.649  16.513  0.00  0.00    +0.000 NA
ATOM      5  C   UNL     1       6.260   4.879  15.837  0.00  0.00    +0.000 C 
ATOM      6  C   UNL     1       5.702   6.290  16.165  0.00  0.00    +0.000 C 
ATOM      7  H   UNL     1       7.836   3.683  16.334  0.00  0.00    +0.000 HD
ENDROOT
BRANCH   5   8
ATOM      8  C   UNL     1       6.433   4.619  14.346  0.00  0.00    +0.000 A 
ATOM      9  C   UNL     1       5.600   3.694  13.694  0.00  0.00    +0.000 A 
ATOM     10  C   UNL     1       5.852   3.315  12.372  0.00  0.00    +0.000 A 
ATOM     11  C   UNL     1       6.929   3.863  11.680  0.00  0.00    +0.000 A 
ATOM     12  C   UNL     1       7.738   4.814  12.297  0.00  0.00    +0.000 A 
ATOM     13  C   UNL     1       7.486   5.198  13.617  0.00  0.00    +0.000 A 
ENDBRANCH   5   8
BRANCH   1  15
ATOM     14  O   UNL     1       4.536   5.066  19.549  0.00  0.00    +0.000 OA
ATOM     15  S   UNL     1       4.147   5.718  18.316  0.00  0.00    +0.000 S 
ATOM     16  O   UNL     1       3.492   4.983  17.261  0.00  0.00    +0.000 OA
BRANCH  15  17
ATOM     17  C   UNL     1       3.058   7.068  18.733  0.00  0.00    +0.000 A 
ATOM     18  C   UNL     1       2.823   8.072  17.785  0.00  0.00    +0.000 A 
ATOM     19  C   UNL     1       1.906   9.088  18.071  0.00  0.00    +0.000 A 
ATOM     20  C   UNL     1       1.236   9.088  19.289  0.00  0.00    +0.000 A 
ATOM     21  F   UNL     1       0.349  10.058  19.555  0.00  0.00    +0.000 F 
ATOM     22  C   UNL     1       1.456   8.087  20.232  0.00  0.00    +0.000 A 
ATOM     23  C   UNL     1       2.372   7.067  19.955  0.00  0.00    +0.000 A 
ENDBRANCH  15  17
ENDBRANCH   1  15
TORSDOF 3
ENDMDL
