MODEL 1
REMARK VINA RESULT:      -7.8      0.000      0.000
REMARK  Name = 
REMARK  3 active torsions:
REMARK  status: ('A' for Active; 'I' for Inactive)
REMARK    1  A    between atoms: N_3  and  C_4
REMARK    2  A    between atoms: N_13  and  C_14
REMARK    3  A    between atoms: C_14  and  C_15
REMARK                            x       y       z     vdW  Elec       q    Type
REMARK                         _______ _______ _______ _____ _____    ______ ____
ROOT
ATOM      1  O   UNL     1       1.779   9.044  19.191  0.00  0.00    +0.000 OA
ATOM      2  C   UNL     1       1.628   8.174  20.042  0.00  0.00    +0.000 C 
ATOM      3  N   UNL     1       0.880   8.334  21.183  0.00  0.00    +0.000 N 
ATOM      4  N   UNL     1       2.219   6.929  19.887  0.00  0.00    +0.000 N 
ATOM      5  C   UNL     1       2.086   5.754  20.760  0.00  0.00    +0.000 C 
ATOM      6  C   UNL     1       1.625   4.504  19.974  0.00  0.00    +0.000 C 
ATOM      7  N   UNL     1       2.409   4.219  18.747  0.00  0.00    +0.000 NA
ATOM      8  C   UNL     1       2.422   5.448  17.917  0.00  0.00    +0.000 C 
ATOM      9  C   UNL     1       2.969   6.685  18.647  0.00  0.00    +0.000 C 
ATOM     10  H   UNL     1       1.090   7.721  21.951  0.00  0.00    +0.000 HD
ENDROOT
BRANCH   3  11
ATOM     11  C   UNL     1       0.059   9.435  21.499  0.00  0.00    +0.000 A 
ATOM     12  C   UNL     1      -0.373  10.375  20.561  0.00  0.00    +0.000 A 
ATOM     13  C   UNL     1      -1.137  11.473  20.957  0.00  0.00    +0.000 A 
ATOM     14  C   UNL     1      -1.498  11.629  22.292  0.00  0.00    +0.000 A 
ATOM     15  C   UNL     1      -1.115  10.672  23.229  0.00  0.00    +0.000 A 
ATOM     16  C   UNL     1      -0.344   9.576  22.834  0.00  0.00    +0.000 A 
ENDBRANCH   3  11
BRANCH   7  17
ATOM     17  C   UNL     1       3.760   3.752  19.105  0.00  0.00    +0.000 C 
BRANCH  17  18
ATOM     18  C   UNL     1       4.806   3.974  18.034  0.00  0.00    +0.000 A 
ATOM     19  C   UNL     1       4.544   3.605  16.703  0.00  0.00    +0.000 A 
ATOM     20  C   UNL     1       5.489   3.842  15.706  0.00  0.00    +0.000 A 
ATOM     21  C   UNL     1       6.695   4.446  16.038  0.00  0.00    +0.000 A 
ATOM     22  F   UNL     1       7.599   4.684  15.078  0.00  0.00    +0.000 F 
ATOM     23  C   UNL     1       6.979   4.808  17.350  0.00  0.00    +0.000 A 
ATOM     24  C   UNL     1       6.036   4.571  18.350  0.00  0.00    +0.000 A 
ENDBRANCH  17  18
ENDBRANCH   7  17
TORSDOF 3
ENDMDL
MODEL 2
REMARK VINA RESULT:      -7.8      0.148      1.020
REMARK  Name = 
REMARK  3 active torsions:
REMARK  status: ('A' for Active; 'I' for Inactive)
REMARK    1  A    between atoms: N_3  and  C_4
REMARK    2  A    between atoms: N_13  and  C_14
REMARK    3  A    between atoms: C_14  and  C_15
REMARK                            x       y       z     vdW  Elec       q    Type
REMARK                         _______ _______ _______ _____ _____    ______ ____
ROOT
ATOM      1  O   UNL     1       1.783   8.884  19.087  0.00  0.00    +0.000 OA
ATOM      2  C   UNL     1       1.674   8.037  19.967  0.00  0.00    +0.000 C 
ATOM      3  N   UNL     1       0.982   8.227  21.138  0.00  0.00    +0.000 N 
ATOM      4  N   UNL     1       2.259   6.788  19.817  0.00  0.00    +0.000 N 
ATOM      5  C   UNL     1       2.169   5.637  20.726  0.00  0.00    +0.000 C 
ATOM      6  C   UNL     1       1.674   4.366  19.996  0.00  0.00    +0.000 C 
ATOM      7  N   UNL     1       2.398   4.049  18.742  0.00  0.00    +0.000 NA
ATOM      8  C   UNL     1       2.369   5.255  17.880  0.00  0.00    +0.000 C 
ATOM      9  C   UNL     1       2.949   6.512  18.549  0.00  0.00    +0.000 C 
ATOM     10  H   UNL     1       1.229   7.635  21.911  0.00  0.00    +0.000 HD
ENDROOT
BRANCH   3  11
ATOM     11  C   UNL     1       0.175   9.335  21.464  0.00  0.00    +0.000 A 
ATOM     12  C   UNL     1      -0.201  10.317  20.545  0.00  0.00    +0.000 A 
ATOM     13  C   UNL     1      -0.954  11.419  20.952  0.00  0.00    +0.000 A 
ATOM     14  C   UNL     1      -1.359  11.537  22.278  0.00  0.00    +0.000 A 
ATOM     15  C   UNL     1      -1.032  10.540  23.194  0.00  0.00    +0.000 A 
ATOM     16  C   UNL     1      -0.273   9.440  22.787  0.00  0.00    +0.000 A 
ENDBRANCH   3  11
BRANCH   7  17
ATOM     17  C   UNL     1       3.766   3.592  19.046  0.00  0.00    +0.000 C 
BRANCH  17  18
ATOM     18  C   UNL     1       4.793   3.934  17.989  0.00  0.00    +0.000 A 
ATOM     19  C   UNL     1       5.998   4.561  18.351  0.00  0.00    +0.000 A 
ATOM     20  C   UNL     1       6.963   4.844  17.386  0.00  0.00    +0.000 A 
ATOM     21  C   UNL     1       6.726   4.502  16.062  0.00  0.00    +0.000 A 
ATOM     22  F   UNL     1       7.658   4.765  15.136  0.00  0.00    +0.000 F 
ATOM     23  C   UNL     1       5.536   3.892  15.680  0.00  0.00    +0.000 A 
ATOM     24  C   UNL     1       4.567   3.609  16.643  0.00  0.00    +0.000 A 
ENDBRANCH  17  18
ENDBRANCH   7  17
TORSDOF 3
ENDMDL
MODEL 3
REMARK VINA RESULT:      -7.6      4.076      9.537
REMARK  Name = 
REMARK  3 active torsions:
REMARK  status: ('A' for Active; 'I' for Inactive)
REMARK    1  A    between atoms: N_3  and  C_4
REMARK    2  A    between atoms: N_13  and  C_14
REMARK    3  A    between atoms: C_14  and  C_15
REMARK                            x       y       z     vdW  Elec       q    Type
REMARK                         _______ _______ _______ _____ _____    ______ ____
ROOT
ATOM      1  O   UNL     1       2.118   8.959  17.442  0.00  0.00    +0.000 OA
ATOM      2  C   UNL     1       1.954   8.368  18.504  0.00  0.00    +0.000 C 
ATOM      3  N   UNL     1       2.497   7.140  18.794  0.00  0.00    +0.000 N 
ATOM      4  N   UNL     1       1.189   8.935  19.512  0.00  0.00    +0.000 N 
ATOM      5  C   UNL     1       0.949   8.408  20.864  0.00  0.00    +0.000 C 
ATOM      6  C   UNL     1       1.316   9.441  21.955  0.00  0.00    +0.000 C 
ATOM      7  N   UNL     1       0.731  10.789  21.755  0.00  0.00    +0.000 NA
ATOM      8  C   UNL     1       1.089  11.244  20.390  0.00  0.00    +0.000 C 
ATOM      9  C   UNL     1       0.647  10.280  19.277  0.00  0.00    +0.000 C 
ATOM     10  H   UNL     1       2.045   6.604  19.513  0.00  0.00    +0.000 HD
ENDROOT
BRANCH   3  11
ATOM     11  C   UNL     1       3.429   6.430  18.011  0.00  0.00    +0.000 A 
ATOM     12  C   UNL     1       4.541   7.019  17.405  0.00  0.00    +0.000 A 
ATOM     13  C   UNL     1       5.391   6.265  16.595  0.00  0.00    +0.000 A 
ATOM     14  C   UNL     1       5.150   4.908  16.402  0.00  0.00    +0.000 A 
ATOM     15  C   UNL     1       4.072   4.299  17.039  0.00  0.00    +0.000 A 
ATOM     16  C   UNL     1       3.218   5.055  17.846  0.00  0.00    +0.000 A 
ENDBRANCH   3  11
BRANCH   7  17
ATOM     17  C   UNL     1      -0.724  10.752  21.986  0.00  0.00    +0.000 C 
BRANCH  17  18
ATOM     18  C   UNL     1      -1.293  12.005  22.615  0.00  0.00    +0.000 A 
ATOM     19  C   UNL     1      -2.548  11.971  23.248  0.00  0.00    +0.000 A 
ATOM     20  C   UNL     1      -3.059  13.113  23.861  0.00  0.00    +0.000 A 
ATOM     21  C   UNL     1      -2.320  14.288  23.842  0.00  0.00    +0.000 A 
ATOM     22  F   UNL     1      -2.807  15.384  24.441  0.00  0.00    +0.000 F 
ATOM     23  C   UNL     1      -1.082  14.347  23.211  0.00  0.00    +0.000 A 
ATOM     24  C   UNL     1      -0.568  13.206  22.595  0.00  0.00    +0.000 A 
ENDBRANCH  17  18
ENDBRANCH   7  17
TORSDOF 3
ENDMDL
MODEL 4
REMARK VINA RESULT:      -7.6      0.106      1.008
REMARK  Name = 
REMARK  3 active torsions:
REMARK  status: ('A' for Active; 'I' for Inactive)
REMARK    1  A    between atoms: N_3  and  C_4
REMARK    2  A    between atoms: N_13  and  C_14
REMARK    3  A    between atoms: C_14  and  C_15
REMARK                            x       y       z     vdW  Elec       q    Type
REMARK                         _______ _______ _______ _____ _____    ______ ____
ROOT
ATOM      1  O   UNL     1       1.862   9.044  19.336  0.00  0.00    +0.000 OA
ATOM      2  C   UNL     1       1.679   8.145  20.150  0.00  0.00    +0.000 C 
ATOM      3  N   UNL     1       0.927   8.281  21.291  0.00  0.00    +0.000 N 
ATOM      4  N   UNL     1       2.234   6.890  19.948  0.00  0.00    +0.000 N 
ATOM      5  C   UNL     1       2.060   5.685  20.772  0.00  0.00    +0.000 C 
ATOM      6  C   UNL     1       1.569   4.483  19.932  0.00  0.00    +0.000 C 
ATOM      7  N   UNL     1       2.353   4.224  18.701  0.00  0.00    +0.000 NA
ATOM      8  C   UNL     1       2.409   5.484  17.922  0.00  0.00    +0.000 C 
ATOM      9  C   UNL     1       2.987   6.675  18.704  0.00  0.00    +0.000 C 
ATOM     10  H   UNL     1       1.113   7.632  22.035  0.00  0.00    +0.000 HD
ENDROOT
BRANCH   3  11
ATOM     11  C   UNL     1       0.136   9.392  21.646  0.00  0.00    +0.000 A 
ATOM     12  C   UNL     1      -0.340   9.623  22.938  0.00  0.00    +0.000 A 
ATOM     13  C   UNL     1      -1.167  10.714  23.205  0.00  0.00    +0.000 A 
ATOM     14  C   UNL     1      -1.507  11.599  22.186  0.00  0.00    +0.000 A 
ATOM     15  C   UNL     1      -0.999  11.407  20.904  0.00  0.00    +0.000 A 
ATOM     16  C   UNL     1      -0.175  10.311  20.635  0.00  0.00    +0.000 A 
ENDBRANCH   3  11
BRANCH   7  17
ATOM     17  C   UNL     1       3.688   3.703  19.048  0.00  0.00    +0.000 C 
BRANCH  17  18
ATOM     18  C   UNL     1       4.753   3.957  18.004  0.00  0.00    +0.000 A 
ATOM     19  C   UNL     1       4.521   3.617  16.660  0.00  0.00    +0.000 A 
ATOM     20  C   UNL     1       5.485   3.884  15.689  0.00  0.00    +0.000 A 
ATOM     21  C   UNL     1       6.679   4.489  16.059  0.00  0.00    +0.000 A 
ATOM     22  F   UNL     1       7.601   4.756  15.124  0.00  0.00    +0.000 F 
ATOM     23  C   UNL     1       6.933   4.823  17.385  0.00  0.00    +0.000 A 
ATOM     24  C   UNL     1       5.972   4.556  18.359  0.00  0.00    +0.000 A 
ENDBRANCH  17  18
ENDBRANCH   7  17
TORSDOF 3
ENDMDL
MODEL 5
REMARK VINA RESULT:      -7.6      4.172      9.685
REMARK  Name = 
REMARK  3 active torsions:
REMARK  status: ('A' for Active; 'I' for Inactive)
REMARK    1  A    between atoms: N_3  and  C_4
REMARK    2  A    between atoms: N_13  and  C_14
REMARK    3  A    between atoms: C_14  and  C_15
REMARK                            x       y       z     vdW  Elec       q    Type
REMARK                         _______ _______ _______ _____ _____    ______ ____
ROOT
ATOM      1  O   UNL     1       2.191   9.144  17.341  0.00  0.00    +0.000 OA
ATOM      2  C   UNL     1       1.905   8.594  18.400  0.00  0.00    +0.000 C 
ATOM      3  N   UNL     1       2.350   7.348  18.766  0.00  0.00    +0.000 N 
ATOM      4  N   UNL     1       1.092   9.232  19.325  0.00  0.00    +0.000 N 
ATOM      5  C   UNL     1       0.710   8.760  20.664  0.00  0.00    +0.000 C 
ATOM      6  C   UNL     1       1.042   9.803  21.756  0.00  0.00    +0.000 C 
ATOM      7  N   UNL     1       0.555  11.175  21.474  0.00  0.00    +0.000 NA
ATOM      8  C   UNL     1       1.052  11.569  20.133  0.00  0.00    +0.000 C 
ATOM      9  C   UNL     1       0.650  10.598  19.011  0.00  0.00    +0.000 C 
ATOM     10  H   UNL     1       1.809   6.859  19.457  0.00  0.00    +0.000 HD
ENDROOT
BRANCH   3  11
ATOM     11  C   UNL     1       3.302   6.565  18.083  0.00  0.00    +0.000 A 
ATOM     12  C   UNL     1       4.508   7.066  17.588  0.00  0.00    +0.000 A 
ATOM     13  C   UNL     1       5.378   6.245  16.871  0.00  0.00    +0.000 A 
ATOM     14  C   UNL     1       5.061   4.906  16.661  0.00  0.00    +0.000 A 
ATOM     15  C   UNL     1       3.885   4.382  17.191  0.00  0.00    +0.000 A 
ATOM     16  C   UNL     1       3.011   5.206  17.905  0.00  0.00    +0.000 A 
ENDBRANCH   3  11
BRANCH   7  17
ATOM     17  C   UNL     1      -0.914  11.225  21.581  0.00  0.00    +0.000 C 
BRANCH  17  18
ATOM     18  C   UNL     1      -1.440  12.279  22.530  0.00  0.00    +0.000 A 
ATOM     19  C   UNL     1      -0.737  13.483  22.709  0.00  0.00    +0.000 A 
ATOM     20  C   UNL     1      -1.237  14.473  23.554  0.00  0.00    +0.000 A 
ATOM     21  C   UNL     1      -2.438  14.261  24.218  0.00  0.00    +0.000 A 
ATOM     22  F   UNL     1      -2.924  15.217  25.021  0.00  0.00    +0.000 F 
ATOM     23  C   UNL     1      -3.144  13.073  24.064  0.00  0.00    +0.000 A 
ATOM     24  C   UNL     1      -2.645  12.080  23.221  0.00  0.00    +0.000 A 
ENDBRANCH  17  18
ENDBRANCH   7  17
TORSDOF 3
ENDMDL
MODEL 6
REMARK VINA RESULT:      -7.6      0.379      1.473
REMARK  Name = 
REMARK  3 active torsions:
REMARK  status: ('A' for Active; 'I' for Inactive)
REMARK    1  A    between atoms: N_3  and  C_4
REMARK    2  A    between atoms: N_13  and  C_14
REMARK    3  A    between atoms: C_14  and  C_15
REMARK                            x       y       z     vdW  Elec       q    Type
REMARK                         _______ _______ _______ _____ _____    ______ ____
ROOT
ATOM      1  O   UNL     1       1.917   8.784  19.155  0.00  0.00    +0.000 OA
ATOM      2  C   UNL     1       1.867   7.910  20.015  0.00  0.00    +0.000 C 
ATOM      3  N   UNL     1       1.229   8.053  21.222  0.00  0.00    +0.000 N 
ATOM      4  N   UNL     1       2.468   6.679  19.800  0.00  0.00    +0.000 N 
ATOM      5  C   UNL     1       2.445   5.500  20.679  0.00  0.00    +0.000 C 
ATOM      6  C   UNL     1       1.939   4.241  19.937  0.00  0.00    +0.000 C 
ATOM      7  N   UNL     1       2.608   3.974  18.641  0.00  0.00    +0.000 NA
ATOM      8  C   UNL     1       2.514   5.203  17.816  0.00  0.00    +0.000 C 
ATOM      9  C   UNL     1       3.101   6.452  18.493  0.00  0.00    +0.000 C 
ATOM     10  H   UNL     1       1.525   7.444  21.965  0.00  0.00    +0.000 HD
ENDROOT
BRANCH   3  11
ATOM     11  C   UNL     1       0.418   9.135  21.619  0.00  0.00    +0.000 A 
ATOM     12  C   UNL     1      -0.057   9.312  22.920  0.00  0.00    +0.000 A 
ATOM     13  C   UNL     1      -0.905  10.377  23.227  0.00  0.00    +0.000 A 
ATOM     14  C   UNL     1      -1.266  11.289  22.240  0.00  0.00    +0.000 A 
ATOM     15  C   UNL     1      -0.759  11.152  20.950  0.00  0.00    +0.000 A 
ATOM     16  C   UNL     1       0.084  10.082  20.641  0.00  0.00    +0.000 A 
ENDBRANCH   3  11
BRANCH   7  17
ATOM     17  C   UNL     1       3.997   3.537  18.866  0.00  0.00    +0.000 C 
BRANCH  17  18
ATOM     18  C   UNL     1       4.965   3.927  17.770  0.00  0.00    +0.000 A 
ATOM     19  C   UNL     1       6.181   4.553  18.091  0.00  0.00    +0.000 A 
ATOM     20  C   UNL     1       7.092   4.881  17.088  0.00  0.00    +0.000 A 
ATOM     21  C   UNL     1       6.789   4.585  15.766  0.00  0.00    +0.000 A 
ATOM     22  F   UNL     1       7.669   4.890  14.803  0.00  0.00    +0.000 F 
ATOM     23  C   UNL     1       5.586   3.976  15.425  0.00  0.00    +0.000 A 
ATOM     24  C   UNL     1       4.672   3.648  16.426  0.00  0.00    +0.000 A 
ENDBRANCH  17  18
ENDBRANCH   7  17
TORSDOF 3
ENDMDL
MODEL 7
REMARK VINA RESULT:      -7.6      1.732      2.718
REMARK  Name = 
REMARK  3 active torsions:
REMARK  status: ('A' for Active; 'I' for Inactive)
REMARK    1  A    between atoms: N_3  and  C_4
REMARK    2  A    between atoms: N_13  and  C_14
REMARK    3  A    between atoms: C_14  and  C_15
REMARK                            x       y       z     vdW  Elec       q    Type
REMARK                         _______ _______ _______ _____ _____    ______ ____
ROOT
ATOM      1  O   UNL     1       1.488   5.807  20.884  0.00  0.00    +0.000 OA
ATOM      2  C   UNL     1       1.952   6.430  19.934  0.00  0.00    +0.000 C 
ATOM      3  N   UNL     1       1.756   7.773  19.725  0.00  0.00    +0.000 N 
ATOM      4  N   UNL     1       2.738   5.789  18.990  0.00  0.00    +0.000 N 
ATOM      5  C   UNL     1       3.432   6.387  17.840  0.00  0.00    +0.000 C 
ATOM      6  C   UNL     1       4.940   6.046  17.838  0.00  0.00    +0.000 C 
ATOM      7  N   UNL     1       5.252   4.607  18.008  0.00  0.00    +0.000 NA
ATOM      8  C   UNL     1       4.555   4.129  19.226  0.00  0.00    +0.000 C 
ATOM      9  C   UNL     1       3.037   4.366  19.209  0.00  0.00    +0.000 C 
ATOM     10  H   UNL     1       1.873   8.107  18.785  0.00  0.00    +0.000 HD
ENDROOT
BRANCH   3  11
ATOM     11  C   UNL     1       1.134   8.677  20.610  0.00  0.00    +0.000 A 
ATOM     12  C   UNL     1       1.335   8.671  21.992  0.00  0.00    +0.000 A 
ATOM     13  C   UNL     1       0.640   9.558  22.814  0.00  0.00    +0.000 A 
ATOM     14  C   UNL     1      -0.245  10.478  22.259  0.00  0.00    +0.000 A 
ATOM     15  C   UNL     1      -0.418  10.527  20.878  0.00  0.00    +0.000 A 
ATOM     16  C   UNL     1       0.274   9.634  20.056  0.00  0.00    +0.000 A 
ENDBRANCH   3  11
BRANCH   7  17
ATOM     17  C   UNL     1       4.871   3.858  16.796  0.00  0.00    +0.000 C 
BRANCH  17  18
ATOM     18  C   UNL     1       5.717   4.158  15.579  0.00  0.00    +0.000 A 
ATOM     19  C   UNL     1       5.285   3.759  14.302  0.00  0.00    +0.000 A 
ATOM     20  C   UNL     1       6.043   4.067  13.173  0.00  0.00    +0.000 A 
ATOM     21  C   UNL     1       7.231   4.771  13.319  0.00  0.00    +0.000 A 
ATOM     22  F   UNL     1       7.954   5.076  12.233  0.00  0.00    +0.000 F 
ATOM     23  C   UNL     1       7.682   5.166  14.574  0.00  0.00    +0.000 A 
ATOM     24  C   UNL     1       6.927   4.858  15.705  0.00  0.00    +0.000 A 
ENDBRANCH  17  18
ENDBRANCH   7  17
TORSDOF 3
ENDMDL
MODEL 8
REMARK VINA RESULT:      -7.6      2.008      3.243
REMARK  Name = 
REMARK  3 active torsions:
REMARK  status: ('A' for Active; 'I' for Inactive)
REMARK    1  A    between atoms: N_3  and  C_4
REMARK    2  A    between atoms: N_13  and  C_14
REMARK    3  A    between atoms: C_14  and  C_15
REMARK                            x       y       z     vdW  Elec       q    Type
REMARK                         _______ _______ _______ _____ _____    ______ ____
ROOT
ATOM      1  O   UNL     1       2.211   5.874  20.832  0.00  0.00    +0.000 OA
ATOM      2  C   UNL     1       2.425   6.422  19.756  0.00  0.00    +0.000 C 
ATOM      3  N   UNL     1       1.983   7.680  19.431  0.00  0.00    +0.000 N 
ATOM      4  N   UNL     1       3.164   5.778  18.775  0.00  0.00    +0.000 N 
ATOM      5  C   UNL     1       3.577   6.306  17.467  0.00  0.00    +0.000 C 
ATOM      6  C   UNL     1       5.105   6.192  17.259  0.00  0.00    +0.000 C 
ATOM      7  N   UNL     1       5.671   4.850  17.537  0.00  0.00    +0.000 NA
ATOM      8  C   UNL     1       5.244   4.448  18.899  0.00  0.00    +0.000 C 
ATOM      9  C   UNL     1       3.721   4.458  19.102  0.00  0.00    +0.000 C 
ATOM     10  H   UNL     1       1.908   7.895  18.452  0.00  0.00    +0.000 HD
ENDROOT
BRANCH   3  11
ATOM     11  C   UNL     1       1.354   8.597  20.297  0.00  0.00    +0.000 A 
ATOM     12  C   UNL     1       1.380   8.492  21.689  0.00  0.00    +0.000 A 
ATOM     13  C   UNL     1       0.685   9.404  22.483  0.00  0.00    +0.000 A 
ATOM     14  C   UNL     1      -0.024  10.446  21.893  0.00  0.00    +0.000 A 
ATOM     15  C   UNL     1      -0.018  10.590  20.508  0.00  0.00    +0.000 A 
ATOM     16  C   UNL     1       0.673   9.673  19.713  0.00  0.00    +0.000 A 
ENDBRANCH   3  11
BRANCH   7  17
ATOM     17  C   UNL     1       5.249   3.895  16.497  0.00  0.00    +0.000 C 
BRANCH  17  18
ATOM     18  C   UNL     1       5.859   4.139  15.134  0.00  0.00    +0.000 A 
ATOM     19  C   UNL     1       7.042   4.889  15.013  0.00  0.00    +0.000 A 
ATOM     20  C   UNL     1       7.628   5.085  13.764  0.00  0.00    +0.000 A 
ATOM     21  C   UNL     1       7.034   4.533  12.636  0.00  0.00    +0.000 A 
ATOM     22  F   UNL     1       7.603   4.713  11.437  0.00  0.00    +0.000 F 
ATOM     23  C   UNL     1       5.857   3.798  12.732  0.00  0.00    +0.000 A 
ATOM     24  C   UNL     1       5.268   3.602  13.980  0.00  0.00    +0.000 A 
ENDBRANCH  17  18
ENDBRANCH   7  17
TORSDOF 3
ENDMDL
MODEL 9
REMARK VINA RESULT:      -7.6      4.120      9.659
REMARK  Name = 
REMARK  3 active torsions:
REMARK  status: ('A' for Active; 'I' for Inactive)
REMARK    1  A    between atoms: N_3  and  C_4
REMARK    2  A    between atoms: N_13  and  C_14
REMARK    3  A    between atoms: C_14  and  C_15
REMARK                            x       y       z     vdW  Elec       q    Type
REMARK                         _______ _______ _______ _____ _____    ______ ____
ROOT
ATOM      1  O   UNL     1       2.161   6.451  20.903  0.00  0.00    +0.000 OA
ATOM      2  C   UNL     1       1.996   7.326  20.059  0.00  0.00    +0.000 C 
ATOM      3  N   UNL     1       2.313   7.185  18.731  0.00  0.00    +0.000 N 
ATOM      4  N   UNL     1       1.447   8.549  20.414  0.00  0.00    +0.000 N 
ATOM      5  C   UNL     1       1.111   9.675  19.531  0.00  0.00    +0.000 C 
ATOM      6  C   UNL     1      -0.362  10.116  19.698  0.00  0.00    +0.000 C 
ATOM      7  N   UNL     1      -0.786  10.344  21.100  0.00  0.00    +0.000 NA
ATOM      8  C   UNL     1      -0.458   9.126  21.881  0.00  0.00    +0.000 C 
ATOM      9  C   UNL     1       1.024   8.723  21.811  0.00  0.00    +0.000 C 
ATOM     10  H   UNL     1       2.463   8.030  18.209  0.00  0.00    +0.000 HD
ENDROOT
BRANCH   3  11
ATOM     11  C   UNL     1       2.733   6.001  18.091  0.00  0.00    +0.000 A 
ATOM     12  C   UNL     1       1.933   4.864  17.963  0.00  0.00    +0.000 A 
ATOM     13  C   UNL     1       2.435   3.706  17.368  0.00  0.00    +0.000 A 
ATOM     14  C   UNL     1       3.736   3.683  16.873  0.00  0.00    +0.000 A 
ATOM     15  C   UNL     1       4.527   4.826  16.950  0.00  0.00    +0.000 A 
ATOM     16  C   UNL     1       4.026   5.983  17.552  0.00  0.00    +0.000 A 
ENDBRANCH   3  11
BRANCH   7  17
ATOM     17  C   UNL     1      -0.145  11.559  21.635  0.00  0.00    +0.000 C 
BRANCH  17  18
ATOM     18  C   UNL     1      -1.051  12.429  22.478  0.00  0.00    +0.000 A 
ATOM     19  C   UNL     1      -0.660  13.735  22.819  0.00  0.00    +0.000 A 
ATOM     20  C   UNL     1      -1.507  14.553  23.564  0.00  0.00    +0.000 A 
ATOM     21  C   UNL     1      -2.743  14.068  23.969  0.00  0.00    +0.000 A 
ATOM     22  F   UNL     1      -3.562  14.858  24.676  0.00  0.00    +0.000 F 
ATOM     23  C   UNL     1      -3.146  12.775  23.653  0.00  0.00    +0.000 A 
ATOM     24  C   UNL     1      -2.299  11.953  22.909  0.00  0.00    +0.000 A 
ENDBRANCH  17  18
ENDBRANCH   7  17
TORSDOF 3
ENDMDL
