MODEL 1
REMARK VINA RESULT:      -6.9      0.000      0.000
REMARK  Name = 
REMARK  5 active torsions:
REMARK  status: ('A' for Active; 'I' for Inactive)
REMARK    1  A    between atoms: C_1  and  N_2
REMARK    2  A    between atoms: N_2  and  C_3
REMARK    3  A    between atoms: C_4  and  C_6
REMARK    4  A    between atoms: N_9  and  C_10
REMARK    5  A    between atoms: C_15  and  N_16
REMARK                            x       y       z     vdW  Elec       q    Type
REMARK                         _______ _______ _______ _____ _____    ______ ____
ROOT
ATOM      1  C   UNL     1       5.419   4.585  15.824  0.00  0.00    +0.000 A 
ATOM      2  C   UNL     1       5.147   3.808  14.679  0.00  0.00    +0.000 A 
ATOM      3  N   UNL     1       5.891   3.727  13.546  0.00  0.00    +0.000 NA
ATOM      4  C   UNL     1       6.999   4.477  13.512  0.00  0.00    +0.000 A 
ATOM      5  C   UNL     1       7.403   5.277  14.563  0.00  0.00    +0.000 A 
ATOM      6  C   UNL     1       6.634   5.300  15.746  0.00  0.00    +0.000 A 
ENDROOT
BRANCH   1  10
ATOM      7  C   UNL     1       1.936   4.944  18.249  0.00  0.00    +0.000 C 
ATOM      8  C   UNL     1       2.247   3.784  17.294  0.00  0.00    +0.000 C 
ATOM      9  C   UNL     1       3.742   3.475  17.270  0.00  0.00    +0.000 C 
ATOM     10  N   UNL     1       4.442   4.675  16.809  0.00  0.00    +0.000 N 
ATOM     11  C   UNL     1       4.240   5.870  17.637  0.00  0.00    +0.000 C 
ATOM     12  C   UNL     1       2.738   6.171  17.758  0.00  0.00    +0.000 C 
BRANCH   7  16
ATOM     13  C   UNL     1       2.103   3.376  21.770  0.00  0.00    +0.000 C 
ATOM     14  N   UNL     1       1.786   3.532  20.358  0.00  0.00    +0.000 N 
ATOM     15  C   UNL     1       0.927   2.527  19.759  0.00  0.00    +0.000 C 
ATOM     16  C   UNL     1       2.234   4.691  19.743  0.00  0.00    +0.000 C 
ATOM     17  O   UNL     1       2.823   5.547  20.410  0.00  0.00    +0.000 OA
ENDBRANCH   7  16
ENDBRANCH   1  10
BRANCH   6  18
ATOM     18  N   UNL     1       7.198   6.010  16.845  0.00  0.00    +0.000 N 
ATOM     19  C   UNL     1       7.586   7.334  16.863  0.00  0.00    +0.000 A 
ATOM     20  C   UNL     1       8.040   7.583  18.130  0.00  0.00    +0.000 A 
ATOM     21 BR   UNL     1       8.615   9.201  18.855  0.00  0.00    +0.000 Br
ATOM     22  C   UNL     1       7.972   6.366  18.803  0.00  0.00    +0.000 A 
ATOM     23  N   UNL     1       7.506   5.391  18.017  0.00  0.00    +0.000 NA
ENDBRANCH   6  18
TORSDOF 3
ENDMDL
MODEL 2
REMARK VINA RESULT:      -6.8      2.819      6.201
REMARK  Name = 
REMARK  5 active torsions:
REMARK  status: ('A' for Active; 'I' for Inactive)
REMARK    1  A    between atoms: C_1  and  N_2
REMARK    2  A    between atoms: N_2  and  C_3
REMARK    3  A    between atoms: C_4  and  C_6
REMARK    4  A    between atoms: N_9  and  C_10
REMARK    5  A    between atoms: C_15  and  N_16
REMARK                            x       y       z     vdW  Elec       q    Type
REMARK                         _______ _______ _______ _____ _____    ______ ____
ROOT
ATOM      1  C   UNL     1       2.946   3.882  18.601  0.00  0.00    +0.000 A 
ATOM      2  C   UNL     1       2.722   2.525  18.288  0.00  0.00    +0.000 A 
ATOM      3  N   UNL     1       1.700   1.741  18.717  0.00  0.00    +0.000 NA
ATOM      4  C   UNL     1       0.814   2.321  19.536  0.00  0.00    +0.000 A 
ATOM      5  C   UNL     1       0.894   3.646  19.919  0.00  0.00    +0.000 A 
ATOM      6  C   UNL     1       1.940   4.447  19.416  0.00  0.00    +0.000 A 
ENDROOT
BRANCH   1  10
ATOM      7  C   UNL     1       6.875   4.924  17.329  0.00  0.00    +0.000 C 
ATOM      8  C   UNL     1       5.811   4.227  16.471  0.00  0.00    +0.000 C 
ATOM      9  C   UNL     1       4.412   4.742  16.800  0.00  0.00    +0.000 C 
ATOM     10  N   UNL     1       4.149   4.461  18.212  0.00  0.00    +0.000 N 
ATOM     11  C   UNL     1       5.091   5.073  19.156  0.00  0.00    +0.000 C 
ATOM     12  C   UNL     1       6.526   4.647  18.810  0.00  0.00    +0.000 C 
BRANCH   7  16
ATOM     13  C   UNL     1       7.900   8.624  17.702  0.00  0.00    +0.000 C 
ATOM     14  N   UNL     1       7.809   7.199  17.977  0.00  0.00    +0.000 N 
ATOM     15  C   UNL     1       8.426   6.722  19.202  0.00  0.00    +0.000 C 
ATOM     16  C   UNL     1       7.035   6.444  17.108  0.00  0.00    +0.000 C 
ATOM     17  O   UNL     1       6.430   7.003  16.189  0.00  0.00    +0.000 OA
ENDBRANCH   7  16
ENDBRANCH   1  10
BRANCH   6  18
ATOM     18  N   UNL     1       1.863   5.838  19.715  0.00  0.00    +0.000 N 
ATOM     19  C   UNL     1       1.449   6.407  20.902  0.00  0.00    +0.000 A 
ATOM     20  C   UNL     1       1.568   7.760  20.740  0.00  0.00    +0.000 A 
ATOM     21 BR   UNL     1       1.272   9.106  21.995  0.00  0.00    +0.000 Br
ATOM     22  C   UNL     1       1.983   7.950  19.423  0.00  0.00    +0.000 A 
ATOM     23  N   UNL     1       2.120   6.789  18.776  0.00  0.00    +0.000 NA
ENDBRANCH   6  18
TORSDOF 3
ENDMDL
MODEL 3
REMARK VINA RESULT:      -6.8      2.673      6.174
REMARK  Name = 
REMARK  5 active torsions:
REMARK  status: ('A' for Active; 'I' for Inactive)
REMARK    1  A    between atoms: C_1  and  N_2
REMARK    2  A    between atoms: N_2  and  C_3
REMARK    3  A    between atoms: C_4  and  C_6
REMARK    4  A    between atoms: N_9  and  C_10
REMARK    5  A    between atoms: C_15  and  N_16
REMARK                            x       y       z     vdW  Elec       q    Type
REMARK                         _______ _______ _______ _____ _____    ______ ____
ROOT
ATOM      1  C   UNL     1       3.008   4.016  18.857  0.00  0.00    +0.000 A 
ATOM      2  C   UNL     1       2.820   2.620  18.780  0.00  0.00    +0.000 A 
ATOM      3  N   UNL     1       1.818   1.894  19.337  0.00  0.00    +0.000 NA
ATOM      4  C   UNL     1       0.915   2.581  20.047  0.00  0.00    +0.000 A 
ATOM      5  C   UNL     1       0.958   3.954  20.199  0.00  0.00    +0.000 A 
ATOM      6  C   UNL     1       1.985   4.684  19.565  0.00  0.00    +0.000 A 
ENDROOT
BRANCH   1  10
ATOM      7  C   UNL     1       6.861   4.917  17.282  0.00  0.00    +0.000 C 
ATOM      8  C   UNL     1       5.712   4.252  16.513  0.00  0.00    +0.000 C 
ATOM      9  C   UNL     1       4.360   4.817  16.943  0.00  0.00    +0.000 C 
ATOM     10  N   UNL     1       4.196   4.551  18.373  0.00  0.00    +0.000 N 
ATOM     11  C   UNL     1       5.228   5.136  19.238  0.00  0.00    +0.000 C 
ATOM     12  C   UNL     1       6.617   4.659  18.787  0.00  0.00    +0.000 C 
BRANCH   7  16
ATOM     13  C   UNL     1       7.944   8.604  17.615  0.00  0.00    +0.000 C 
ATOM     14  N   UNL     1       7.820   7.186  17.913  0.00  0.00    +0.000 N 
ATOM     15  C   UNL     1       8.397   6.721  19.162  0.00  0.00    +0.000 C 
ATOM     16  C   UNL     1       7.055   6.430  17.038  0.00  0.00    +0.000 C 
ATOM     17  O   UNL     1       6.484   6.982  16.093  0.00  0.00    +0.000 OA
ENDBRANCH   7  16
ENDBRANCH   1  10
BRANCH   6  18
ATOM     18  N   UNL     1       1.871   6.104  19.623  0.00  0.00    +0.000 N 
ATOM     19  C   UNL     1       2.041   6.990  18.579  0.00  0.00    +0.000 A 
ATOM     20  C   UNL     1       1.806   8.236  19.092  0.00  0.00    +0.000 A 
ATOM     21 BR   UNL     1       1.769   9.869  18.194  0.00  0.00    +0.000 Br
ATOM     22  C   UNL     1       1.574   8.048  20.453  0.00  0.00    +0.000 A 
ATOM     23  N   UNL     1       1.658   6.760  20.795  0.00  0.00    +0.000 NA
ENDBRANCH   6  18
TORSDOF 3
ENDMDL
MODEL 4
REMARK VINA RESULT:      -6.3      0.951      1.584
REMARK  Name = 
REMARK  5 active torsions:
REMARK  status: ('A' for Active; 'I' for Inactive)
REMARK    1  A    between atoms: C_1  and  N_2
REMARK    2  A    between atoms: N_2  and  C_3
REMARK    3  A    between atoms: C_4  and  C_6
REMARK    4  A    between atoms: N_9  and  C_10
REMARK    5  A    between atoms: C_15  and  N_16
REMARK                            x       y       z     vdW  Elec       q    Type
REMARK                         _______ _______ _______ _____ _____    ______ ____
ROOT
ATOM      1  C   UNL     1       5.699   4.497  16.049  0.00  0.00    +0.000 A 
ATOM      2  C   UNL     1       5.444   3.682  14.927  0.00  0.00    +0.000 A 
ATOM      3  N   UNL     1       6.084   3.707  13.730  0.00  0.00    +0.000 NA
ATOM      4  C   UNL     1       7.058   4.615  13.601  0.00  0.00    +0.000 A 
ATOM      5  C   UNL     1       7.432   5.472  14.617  0.00  0.00    +0.000 A 
ATOM      6  C   UNL     1       6.780   5.387  15.865  0.00  0.00    +0.000 A 
ENDROOT
BRANCH   1  10
ATOM      7  C   UNL     1       3.533   4.735  19.709  0.00  0.00    +0.000 C 
ATOM      8  C   UNL     1       3.879   5.918  18.793  0.00  0.00    +0.000 C 
ATOM      9  C   UNL     1       3.832   5.510  17.323  0.00  0.00    +0.000 C 
ATOM     10  N   UNL     1       4.814   4.444  17.120  0.00  0.00    +0.000 N 
ATOM     11  C   UNL     1       4.603   3.239  17.931  0.00  0.00    +0.000 C 
ATOM     12  C   UNL     1       4.560   3.615  19.420  0.00  0.00    +0.000 C 
BRANCH   7  16
ATOM     13  C   UNL     1       0.249   2.809  20.330  0.00  0.00    +0.000 C 
ATOM     14  N   UNL     1       1.605   3.297  20.532  0.00  0.00    +0.000 N 
ATOM     15  C   UNL     1       2.355   2.724  21.635  0.00  0.00    +0.000 C 
ATOM     16  C   UNL     1       2.100   4.174  19.579  0.00  0.00    +0.000 C 
ATOM     17  O   UNL     1       1.410   4.460  18.596  0.00  0.00    +0.000 OA
ENDBRANCH   7  16
ENDBRANCH   1  10
BRANCH   6  18
ATOM     18  N   UNL     1       7.330   6.179  16.915  0.00  0.00    +0.000 N 
ATOM     19  C   UNL     1       7.681   7.512  16.847  0.00  0.00    +0.000 A 
ATOM     20  C   UNL     1       8.134   7.853  18.092  0.00  0.00    +0.000 A 
ATOM     21 BR   UNL     1       8.667   9.528  18.711  0.00  0.00    +0.000 Br
ATOM     22  C   UNL     1       8.102   6.678  18.841  0.00  0.00    +0.000 A 
ATOM     23  N   UNL     1       7.660   5.644  18.121  0.00  0.00    +0.000 NA
ENDBRANCH   6  18
TORSDOF 3
ENDMDL
MODEL 5
REMARK VINA RESULT:      -6.1      1.039      1.242
REMARK  Name = 
REMARK  5 active torsions:
REMARK  status: ('A' for Active; 'I' for Inactive)
REMARK    1  A    between atoms: C_1  and  N_2
REMARK    2  A    between atoms: N_2  and  C_3
REMARK    3  A    between atoms: C_4  and  C_6
REMARK    4  A    between atoms: N_9  and  C_10
REMARK    5  A    between atoms: C_15  and  N_16
REMARK                            x       y       z     vdW  Elec       q    Type
REMARK                         _______ _______ _______ _____ _____    ______ ____
ROOT
ATOM      1  C   UNL     1       5.240   4.473  15.731  0.00  0.00    +0.000 A 
ATOM      2  C   UNL     1       4.926   3.897  14.483  0.00  0.00    +0.000 A 
ATOM      3  N   UNL     1       5.677   3.927  13.352  0.00  0.00    +0.000 NA
ATOM      4  C   UNL     1       6.839   4.585  13.432  0.00  0.00    +0.000 A 
ATOM      5  C   UNL     1       7.289   5.187  14.592  0.00  0.00    +0.000 A 
ATOM      6  C   UNL     1       6.507   5.095  15.763  0.00  0.00    +0.000 A 
ENDROOT
BRANCH   1  10
ATOM      7  C   UNL     1       1.738   4.516  18.155  0.00  0.00    +0.000 C 
ATOM      8  C   UNL     1       2.197   3.353  17.264  0.00  0.00    +0.000 C 
ATOM      9  C   UNL     1       3.719   3.239  17.248  0.00  0.00    +0.000 C 
ATOM     10  N   UNL     1       4.259   4.491  16.716  0.00  0.00    +0.000 N 
ATOM     11  C   UNL     1       3.903   5.695  17.477  0.00  0.00    +0.000 C 
ATOM     12  C   UNL     1       2.375   5.807  17.591  0.00  0.00    +0.000 C 
BRANCH   7  16
ATOM     13  C   UNL     1       2.100   3.184  21.757  0.00  0.00    +0.000 C 
ATOM     14  N   UNL     1       1.767   3.218  20.341  0.00  0.00    +0.000 N 
ATOM     15  C   UNL     1       1.041   2.080  19.806  0.00  0.00    +0.000 C 
ATOM     16  C   UNL     1       2.065   4.388  19.659  0.00  0.00    +0.000 C 
ATOM     17  O   UNL     1       2.542   5.347  20.273  0.00  0.00    +0.000 OA
ENDBRANCH   7  16
ENDBRANCH   1  10
BRANCH   6  18
ATOM     18  N   UNL     1       7.108   5.587  16.958  0.00  0.00    +0.000 N 
ATOM     19  C   UNL     1       7.346   4.877  18.117  0.00  0.00    +0.000 A 
ATOM     20  C   UNL     1       7.962   5.745  18.978  0.00  0.00    +0.000 A 
ATOM     21 BR   UNL     1       8.644   5.399  20.677  0.00  0.00    +0.000 Br
ATOM     22  C   UNL     1       8.002   6.971  18.316  0.00  0.00    +0.000 A 
ATOM     23  N   UNL     1       7.443   6.898  17.106  0.00  0.00    +0.000 NA
ENDBRANCH   6  18
TORSDOF 3
ENDMDL
MODEL 6
REMARK VINA RESULT:      -6.0      3.118      4.893
REMARK  Name = 
REMARK  5 active torsions:
REMARK  status: ('A' for Active; 'I' for Inactive)
REMARK    1  A    between atoms: C_1  and  N_2
REMARK    2  A    between atoms: N_2  and  C_3
REMARK    3  A    between atoms: C_4  and  C_6
REMARK    4  A    between atoms: N_9  and  C_10
REMARK    5  A    between atoms: C_15  and  N_16
REMARK                            x       y       z     vdW  Elec       q    Type
REMARK                         _______ _______ _______ _____ _____    ______ ____
ROOT
ATOM      1  C   UNL     1       2.313   4.525  18.789  0.00  0.00    +0.000 A 
ATOM      2  C   UNL     1       1.293   3.553  18.721  0.00  0.00    +0.000 A 
ATOM      3  N   UNL     1       1.386   2.299  18.210  0.00  0.00    +0.000 NA
ATOM      4  C   UNL     1       2.577   1.953  17.707  0.00  0.00    +0.000 A 
ATOM      5  C   UNL     1       3.674   2.792  17.717  0.00  0.00    +0.000 A 
ATOM      6  C   UNL     1       3.558   4.071  18.300  0.00  0.00    +0.000 A 
ENDROOT
BRANCH   1  10
ATOM      7  C   UNL     1       2.036   8.592  20.022  0.00  0.00    +0.000 C 
ATOM      8  C   UNL     1       2.577   8.099  18.672  0.00  0.00    +0.000 C 
ATOM      9  C   UNL     1       1.809   6.873  18.185  0.00  0.00    +0.000 C 
ATOM     10  N   UNL     1       1.973   5.814  19.181  0.00  0.00    +0.000 N 
ATOM     11  C   UNL     1       1.490   6.145  20.527  0.00  0.00    +0.000 C 
ATOM     12  C   UNL     1       2.177   7.426  21.026  0.00  0.00    +0.000 C 
BRANCH   7  16
ATOM     13  C   UNL     1      -1.154  10.655  19.351  0.00  0.00    +0.000 C 
ATOM     14  N   UNL     1       0.237  10.233  19.289  0.00  0.00    +0.000 N 
ATOM     15  C   UNL     1       1.159  11.099  18.577  0.00  0.00    +0.000 C 
ATOM     16  C   UNL     1       0.580   9.106  20.021  0.00  0.00    +0.000 C 
ATOM     17  O   UNL     1      -0.274   8.548  20.717  0.00  0.00    +0.000 OA
ENDBRANCH   7  16
ENDBRANCH   1  10
BRANCH   6  18
ATOM     18  N   UNL     1       4.768   4.813  18.428  0.00  0.00    +0.000 N 
ATOM     19  C   UNL     1       5.249   5.766  17.554  0.00  0.00    +0.000 A 
ATOM     20  C   UNL     1       6.418   6.227  18.096  0.00  0.00    +0.000 A 
ATOM     21 BR   UNL     1       7.521   7.595  17.474  0.00  0.00    +0.000 Br
ATOM     22  C   UNL     1       6.626   5.471  19.247  0.00  0.00    +0.000 A 
ATOM     23  N   UNL     1       5.653   4.575  19.433  0.00  0.00    +0.000 NA
ENDBRANCH   6  18
TORSDOF 3
ENDMDL
MODEL 7
REMARK VINA RESULT:      -6.0      3.221      4.805
REMARK  Name = 
REMARK  5 active torsions:
REMARK  status: ('A' for Active; 'I' for Inactive)
REMARK    1  A    between atoms: C_1  and  N_2
REMARK    2  A    between atoms: N_2  and  C_3
REMARK    3  A    between atoms: C_4  and  C_6
REMARK    4  A    between atoms: N_9  and  C_10
REMARK    5  A    between atoms: C_15  and  N_16
REMARK                            x       y       z     vdW  Elec       q    Type
REMARK                         _______ _______ _______ _____ _____    ______ ____
ROOT
ATOM      1  C   UNL     1       2.443   4.754  18.457  0.00  0.00    +0.000 A 
ATOM      2  C   UNL     1       1.398   3.809  18.396  0.00  0.00    +0.000 A 
ATOM      3  N   UNL     1       1.498   2.493  18.081  0.00  0.00    +0.000 NA
ATOM      4  C   UNL     1       2.726   2.048  17.787  0.00  0.00    +0.000 A 
ATOM      5  C   UNL     1       3.849   2.852  17.819  0.00  0.00    +0.000 A 
ATOM      6  C   UNL     1       3.717   4.204  18.199  0.00  0.00    +0.000 A 
ENDROOT
BRANCH   1  10
ATOM      7  C   UNL     1       2.189   8.959  19.091  0.00  0.00    +0.000 C 
ATOM      8  C   UNL     1       2.904   8.270  17.920  0.00  0.00    +0.000 C 
ATOM      9  C   UNL     1       2.158   7.012  17.481  0.00  0.00    +0.000 C 
ATOM     10  N   UNL     1       2.113   6.095  18.620  0.00  0.00    +0.000 N 
ATOM     11  C   UNL     1       1.448   6.621  19.818  0.00  0.00    +0.000 C 
ATOM     12  C   UNL     1       2.115   7.936  20.249  0.00  0.00    +0.000 C 
BRANCH   7  16
ATOM     13  C   UNL     1      -1.207  10.765  19.376  0.00  0.00    +0.000 C 
ATOM     14  N   UNL     1       0.122  10.291  19.733  0.00  0.00    +0.000 N 
ATOM     15  C   UNL     1       0.581  10.568  21.082  0.00  0.00    +0.000 C 
ATOM     16  C   UNL     1       0.778   9.512  18.793  0.00  0.00    +0.000 C 
ATOM     17  O   UNL     1       0.207   9.216  17.740  0.00  0.00    +0.000 OA
ENDBRANCH   7  16
ENDBRANCH   1  10
BRANCH   6  18
ATOM     18  N   UNL     1       4.934   4.926  18.375  0.00  0.00    +0.000 N 
ATOM     19  C   UNL     1       5.449   5.893  17.537  0.00  0.00    +0.000 A 
ATOM     20  C   UNL     1       6.610   6.325  18.119  0.00  0.00    +0.000 A 
ATOM     21 BR   UNL     1       7.746   7.692  17.560  0.00  0.00    +0.000 Br
ATOM     22  C   UNL     1       6.779   5.538  19.256  0.00  0.00    +0.000 A 
ATOM     23  N   UNL     1       5.790   4.651  19.396  0.00  0.00    +0.000 NA
ENDBRANCH   6  18
TORSDOF 3
ENDMDL
MODEL 8
REMARK VINA RESULT:      -6.0      9.344     12.308
REMARK  Name = 
REMARK  5 active torsions:
REMARK  status: ('A' for Active; 'I' for Inactive)
REMARK    1  A    between atoms: C_1  and  N_2
REMARK    2  A    between atoms: N_2  and  C_3
REMARK    3  A    between atoms: C_4  and  C_6
REMARK    4  A    between atoms: N_9  and  C_10
REMARK    5  A    between atoms: C_15  and  N_16
REMARK                            x       y       z     vdW  Elec       q    Type
REMARK                         _______ _______ _______ _____ _____    ______ ____
ROOT
ATOM      1  C   UNL     1      -3.288  12.473  21.049  0.00  0.00    +0.000 A 
ATOM      2  C   UNL     1      -3.592  12.664  22.413  0.00  0.00    +0.000 A 
ATOM      3  N   UNL     1      -4.823  12.790  22.970  0.00  0.00    +0.000 NA
ATOM      4  C   UNL     1      -5.861  12.738  22.127  0.00  0.00    +0.000 A 
ATOM      5  C   UNL     1      -5.721  12.541  20.767  0.00  0.00    +0.000 A 
ATOM      6  C   UNL     1      -4.430  12.363  20.226  0.00  0.00    +0.000 A 
ENDROOT
BRANCH   1  10
ATOM      7  C   UNL     1       0.514  12.519  19.129  0.00  0.00    +0.000 C 
ATOM      8  C   UNL     1      -0.637  13.498  18.861  0.00  0.00    +0.000 C 
ATOM      9  C   UNL     1      -1.408  13.807  20.143  0.00  0.00    +0.000 C 
ATOM     10  N   UNL     1      -1.958  12.550  20.650  0.00  0.00    +0.000 N 
ATOM     11  C   UNL     1      -0.964  11.514  20.958  0.00  0.00    +0.000 C 
ATOM     12  C   UNL     1      -0.107  11.230  19.715  0.00  0.00    +0.000 C 
BRANCH   7  16
ATOM     13  C   UNL     1       3.628  14.319  20.521  0.00  0.00    +0.000 C 
ATOM     14  N   UNL     1       2.603  13.895  19.579  0.00  0.00    +0.000 N 
ATOM     15  C   UNL     1       2.762  14.314  18.199  0.00  0.00    +0.000 C 
ATOM     16  C   UNL     1       1.635  13.028  20.061  0.00  0.00    +0.000 C 
ATOM     17  O   UNL     1       1.705  12.620  21.224  0.00  0.00    +0.000 OA
ENDBRANCH   7  16
ENDBRANCH   1  10
BRANCH   6  18
ATOM     18  N   UNL     1      -4.373  11.996  18.850  0.00  0.00    +0.000 N 
ATOM     19  C   UNL     1      -3.373  11.278  18.228  0.00  0.00    +0.000 A 
ATOM     20  C   UNL     1      -3.756  11.141  16.921  0.00  0.00    +0.000 A 
ATOM     21 BR   UNL     1      -2.908  10.191  15.560  0.00  0.00    +0.000 Br
ATOM     22  C   UNL     1      -4.948  11.853  16.799  0.00  0.00    +0.000 A 
ATOM     23  N   UNL     1      -5.308  12.416  17.955  0.00  0.00    +0.000 NA
ENDBRANCH   6  18
TORSDOF 3
ENDMDL
MODEL 9
REMARK VINA RESULT:      -5.9      3.117      6.485
REMARK  Name = 
REMARK  5 active torsions:
REMARK  status: ('A' for Active; 'I' for Inactive)
REMARK    1  A    between atoms: C_1  and  N_2
REMARK    2  A    between atoms: N_2  and  C_3
REMARK    3  A    between atoms: C_4  and  C_6
REMARK    4  A    between atoms: N_9  and  C_10
REMARK    5  A    between atoms: C_15  and  N_16
REMARK                            x       y       z     vdW  Elec       q    Type
REMARK                         _______ _______ _______ _____ _____    ______ ____
ROOT
ATOM      1  C   UNL     1       4.094   6.329  17.604  0.00  0.00    +0.000 A 
ATOM      2  C   UNL     1       3.818   7.709  17.512  0.00  0.00    +0.000 A 
ATOM      3  N   UNL     1       2.838   8.395  18.154  0.00  0.00    +0.000 NA
ATOM      4  C   UNL     1       2.041   7.677  18.954  0.00  0.00    +0.000 A 
ATOM      5  C   UNL     1       2.198   6.319  19.157  0.00  0.00    +0.000 A 
ATOM      6  C   UNL     1       3.257   5.645  18.513  0.00  0.00    +0.000 A 
ENDROOT
BRANCH   1  10
ATOM      7  C   UNL     1       6.870   4.011  15.354  0.00  0.00    +0.000 C 
ATOM      8  C   UNL     1       5.360   3.757  15.449  0.00  0.00    +0.000 C 
ATOM      9  C   UNL     1       4.583   5.069  15.529  0.00  0.00    +0.000 C 
ATOM     10  N   UNL     1       5.024   5.781  16.729  0.00  0.00    +0.000 N 
ATOM     11  C   UNL     1       6.456   6.099  16.772  0.00  0.00    +0.000 C 
ATOM     12  C   UNL     1       7.281   4.813  16.611  0.00  0.00    +0.000 C 
BRANCH   7  16
ATOM     13  C   UNL     1       7.443   5.075  11.690  0.00  0.00    +0.000 C 
ATOM     14  N   UNL     1       6.932   4.332  12.833  0.00  0.00    +0.000 N 
ATOM     15  C   UNL     1       6.134   3.153  12.550  0.00  0.00    +0.000 C 
ATOM     16  C   UNL     1       7.355   4.747  14.086  0.00  0.00    +0.000 C 
ATOM     17  O   UNL     1       8.166   5.674  14.180  0.00  0.00    +0.000 OA
ENDBRANCH   7  16
ENDBRANCH   1  10
BRANCH   6  18
ATOM     18  N   UNL     1       3.462   4.289  18.900  0.00  0.00    +0.000 N 
ATOM     19  C   UNL     1       4.456   3.807  19.727  0.00  0.00    +0.000 A 
ATOM     20  C   UNL     1       4.243   2.459  19.836  0.00  0.00    +0.000 A 
ATOM     21 BR   UNL     1       5.163   1.224  20.886  0.00  0.00    +0.000 Br
ATOM     22  C   UNL     1       3.162   2.178  19.004  0.00  0.00    +0.000 A 
ATOM     23  N   UNL     1       2.709   3.276  18.393  0.00  0.00    +0.000 NA
ENDBRANCH   6  18
TORSDOF 3
ENDMDL
