MODEL 1
REMARK VINA RESULT:      -7.8      0.000      0.000
REMARK  Name = 
REMARK  5 active torsions:
REMARK  status: ('A' for Active; 'I' for Inactive)
REMARK    1  A    between atoms: C_2  and  O_3
REMARK    2  A    between atoms: C_2  and  C_4
REMARK    3  A    between atoms: C_11  and  N_12
REMARK    4  A    between atoms: C_15  and  C_16
REMARK    5  A    between atoms: N_27  and  C_28
REMARK                            x       y       z     vdW  Elec       q    Type
REMARK                         _______ _______ _______ _____ _____    ______ ____
ROOT
ATOM      1  N   UNL     1      -1.106  12.014  22.856  0.00  0.00    +0.000 N 
ATOM      2  C   UNL     1      -1.137  11.566  21.533  0.00  0.00    +0.000 A 
ATOM      3  N   UNL     1      -2.033  11.880  20.628  0.00  0.00    +0.000 NA
ATOM      4  C   UNL     1      -1.880  11.364  19.315  0.00  0.00    +0.000 A 
ATOM      5  C   UNL     1      -0.769  10.698  18.926  0.00  0.00    +0.000 A 
ATOM      6  N   UNL     1       0.245  10.430  19.829  0.00  0.00    +0.000 N 
ATOM      7  C   UNL     1       0.077  10.657  21.177  0.00  0.00    +0.000 A 
ATOM      8  O   UNL     1       0.793  10.273  22.098  0.00  0.00    +0.000 OA
ATOM      9  H   UNL     1      -0.365  11.561  23.399  0.00  0.00    +0.000 HD
ENDROOT
BRANCH   4  10
ATOM     10  C   UNL     1      -3.048  11.541  18.445  0.00  0.00    +0.000 A 
ATOM     11  C   UNL     1      -2.949  11.275  17.087  0.00  0.00    +0.000 A 
ATOM     12  N   UNL     1      -4.035  11.793  16.453  0.00  0.00    +0.000 N 
ATOM     13  C   UNL     1      -5.018  11.990  17.362  0.00  0.00    +0.000 A 
ATOM     14  N   UNL     1      -6.295  12.188  16.996  0.00  0.00    +0.000 NA
ATOM     15  C   UNL     1      -7.139  12.261  18.039  0.00  0.00    +0.000 A 
ATOM     16  C   UNL     1      -6.741  12.268  19.367  0.00  0.00    +0.000 A 
ATOM     17  F   UNL     1      -7.666  12.347  20.331  0.00  0.00    +0.000 F 
ATOM     18  C   UNL     1      -5.377  12.141  19.699  0.00  0.00    +0.000 A 
ATOM     19  C   UNL     1      -4.457  11.907  18.645  0.00  0.00    +0.000 A 
ATOM     20  H   UNL     1      -4.162  11.872  15.455  0.00  0.00    +0.000 HD
ENDBRANCH   4  10
BRANCH   1  28
ATOM     21  C   UNL     1      -3.327  13.156  22.910  0.00  0.00    +0.000 C 
ATOM     22  C   UNL     1      -3.553  14.672  22.661  0.00  0.00    +0.000 C 
ATOM     23  C   UNL     1      -3.482  15.483  23.978  0.00  0.00    +0.000 C 
ATOM     24  C   UNL     1      -2.138  15.219  24.674  0.00  0.00    +0.000 C 
ATOM     25  C   UNL     1      -1.254  14.312  23.790  0.00  0.00    +0.000 C 
ATOM     26  C   UNL     1      -1.086  15.051  22.439  0.00  0.00    +0.000 C 
ATOM     27  C   UNL     1      -2.442  15.195  21.742  0.00  0.00    +0.000 C 
ATOM     28  C   UNL     1      -1.965  12.921  23.616  0.00  0.00    +0.000 C 
BRANCH  21  30
ATOM     29  O   UNL     1      -4.353  12.105  24.853  0.00  0.00    +0.000 OA
ATOM     30  C   UNL     1      -4.470  12.572  23.729  0.00  0.00    +0.000 C 
BRANCH  30  31
ATOM     31  O   UNL     1      -5.665  12.660  23.129  0.00  0.00    +0.000 OA
ATOM     32  H   UNL     1      -5.644  12.677  22.138  0.00  0.00    +0.000 HD
ENDBRANCH  30  31
ENDBRANCH  21  30
ENDBRANCH   1  28
BRANCH   6  33
ATOM     33  C   UNL     1       1.496   9.854  19.262  0.00  0.00    +0.000 C 
ATOM     34  C   UNL     1       1.700   8.337  19.543  0.00  0.00    +0.000 C 
ATOM     35  C   UNL     1       2.220   8.193  18.101  0.00  0.00    +0.000 C 
ATOM     36  C   UNL     1       1.411   9.444  17.758  0.00  0.00    +0.000 C 
ENDBRANCH   6  33
TORSDOF 5
ENDMDL
MODEL 2
REMARK VINA RESULT:      -7.6      5.811      9.777
REMARK  Name = 
REMARK  5 active torsions:
REMARK  status: ('A' for Active; 'I' for Inactive)
REMARK    1  A    between atoms: C_2  and  O_3
REMARK    2  A    between atoms: C_2  and  C_4
REMARK    3  A    between atoms: C_11  and  N_12
REMARK    4  A    between atoms: C_15  and  C_16
REMARK    5  A    between atoms: N_27  and  C_28
REMARK                            x       y       z     vdW  Elec       q    Type
REMARK                         _______ _______ _______ _____ _____    ______ ____
ROOT
ATOM      1  N   UNL     1       1.703   7.708  19.831  0.00  0.00    +0.000 N 
ATOM      2  C   UNL     1       2.528   6.643  19.462  0.00  0.00    +0.000 A 
ATOM      3  N   UNL     1       3.662   6.729  18.809  0.00  0.00    +0.000 NA
ATOM      4  C   UNL     1       4.393   5.538  18.560  0.00  0.00    +0.000 A 
ATOM      5  C   UNL     1       4.046   4.350  19.107  0.00  0.00    +0.000 A 
ATOM      6  N   UNL     1       2.907   4.238  19.884  0.00  0.00    +0.000 N 
ATOM      7  C   UNL     1       1.997   5.269  19.968  0.00  0.00    +0.000 A 
ATOM      8  O   UNL     1       0.862   5.230  20.435  0.00  0.00    +0.000 OA
ATOM      9  H   UNL     1       0.826   7.389  20.252  0.00  0.00    +0.000 HD
ENDROOT
BRANCH   4  10
ATOM     10  C   UNL     1       5.499   5.684  17.606  0.00  0.00    +0.000 A 
ATOM     11  C   UNL     1       6.667   6.324  17.992  0.00  0.00    +0.000 A 
ATOM     12  N   UNL     1       7.404   6.607  16.884  0.00  0.00    +0.000 N 
ATOM     13  C   UNL     1       6.989   5.813  15.869  0.00  0.00    +0.000 A 
ATOM     14  N   UNL     1       7.723   5.636  14.759  0.00  0.00    +0.000 NA
ATOM     15  C   UNL     1       7.196   4.735  13.914  0.00  0.00    +0.000 A 
ATOM     16  C   UNL     1       5.958   4.134  14.084  0.00  0.00    +0.000 A 
ATOM     17  F   UNL     1       5.525   3.250  13.179  0.00  0.00    +0.000 F 
ATOM     18  C   UNL     1       5.185   4.416  15.228  0.00  0.00    +0.000 A 
ATOM     19  C   UNL     1       5.759   5.242  16.229  0.00  0.00    +0.000 A 
ATOM     20  H   UNL     1       8.228   7.187  16.847  0.00  0.00    +0.000 HD
ENDBRANCH   4  10
BRANCH   1  28
ATOM     21  C   UNL     1       0.581   9.906  20.221  0.00  0.00    +0.000 C 
ATOM     22  C   UNL     1      -0.081  10.774  19.116  0.00  0.00    +0.000 C 
ATOM     23  C   UNL     1       0.926  11.779  18.503  0.00  0.00    +0.000 C 
ATOM     24  C   UNL     1       2.150  11.021  17.969  0.00  0.00    +0.000 C 
ATOM     25  C   UNL     1       1.939   9.499  18.124  0.00  0.00    +0.000 C 
ATOM     26  C   UNL     1       0.645   9.156  17.345  0.00  0.00    +0.000 C 
ATOM     27  C   UNL     1      -0.558   9.857  17.983  0.00  0.00    +0.000 C 
ATOM     28  C   UNL     1       1.815   9.155  19.653  0.00  0.00    +0.000 C 
BRANCH  21  30
ATOM     29  O   UNL     1       0.962  11.989  21.424  0.00  0.00    +0.000 OA
ATOM     30  C   UNL     1       0.970  10.766  21.415  0.00  0.00    +0.000 C 
BRANCH  30  31
ATOM     31  O   UNL     1       1.282  10.060  22.511  0.00  0.00    +0.000 OA
ATOM     32  H   UNL     1       2.213  10.163  22.834  0.00  0.00    +0.000 HD
ENDBRANCH  30  31
ENDBRANCH  21  30
ENDBRANCH   1  28
BRANCH   6  33
ATOM     33  C   UNL     1       2.713   2.937  20.583  0.00  0.00    +0.000 C 
ATOM     34  C   UNL     1       2.302   3.057  22.079  0.00  0.00    +0.000 C 
ATOM     35  C   UNL     1       1.328   1.885  21.850  0.00  0.00    +0.000 C 
ATOM     36  C   UNL     1       1.316   2.276  20.372  0.00  0.00    +0.000 C 
ENDBRANCH   6  33
TORSDOF 5
ENDMDL
MODEL 3
REMARK VINA RESULT:      -7.5      6.419     11.399
REMARK  Name = 
REMARK  5 active torsions:
REMARK  status: ('A' for Active; 'I' for Inactive)
REMARK    1  A    between atoms: C_2  and  O_3
REMARK    2  A    between atoms: C_2  and  C_4
REMARK    3  A    between atoms: C_11  and  N_12
REMARK    4  A    between atoms: C_15  and  C_16
REMARK    5  A    between atoms: N_27  and  C_28
REMARK                            x       y       z     vdW  Elec       q    Type
REMARK                         _______ _______ _______ _____ _____    ______ ____
ROOT
ATOM      1  N   UNL     1       2.343   5.558  20.429  0.00  0.00    +0.000 N 
ATOM      2  C   UNL     1       2.883   6.356  19.417  0.00  0.00    +0.000 A 
ATOM      3  N   UNL     1       3.807   6.000  18.558  0.00  0.00    +0.000 NA
ATOM      4  C   UNL     1       4.203   6.932  17.563  0.00  0.00    +0.000 A 
ATOM      5  C   UNL     1       3.555   8.104  17.373  0.00  0.00    +0.000 A 
ATOM      6  N   UNL     1       2.509   8.473  18.200  0.00  0.00    +0.000 N 
ATOM      7  C   UNL     1       2.222   7.764  19.346  0.00  0.00    +0.000 A 
ATOM      8  O   UNL     1       1.479   8.096  20.266  0.00  0.00    +0.000 OA
ATOM      9  H   UNL     1       1.703   6.082  21.033  0.00  0.00    +0.000 HD
ENDROOT
BRANCH   4  10
ATOM     10  C   UNL     1       5.412   6.560  16.819  0.00  0.00    +0.000 A 
ATOM     11  C   UNL     1       6.661   6.922  17.300  0.00  0.00    +0.000 A 
ATOM     12  N   UNL     1       7.584   6.746  16.316  0.00  0.00    +0.000 N 
ATOM     13  C   UNL     1       7.078   5.897  15.390  0.00  0.00    +0.000 A 
ATOM     14  N   UNL     1       7.857   5.291  14.481  0.00  0.00    +0.000 NA
ATOM     15  C   UNL     1       7.191   4.410  13.717  0.00  0.00    +0.000 A 
ATOM     16  C   UNL     1       5.818   4.223  13.754  0.00  0.00    +0.000 A 
ATOM     17  F   UNL     1       5.254   3.319  12.946  0.00  0.00    +0.000 F 
ATOM     18  C   UNL     1       5.030   4.946  14.672  0.00  0.00    +0.000 A 
ATOM     19  C   UNL     1       5.697   5.778  15.608  0.00  0.00    +0.000 A 
ATOM     20  H   UNL     1       8.543   7.056  16.335  0.00  0.00    +0.000 HD
ENDBRANCH   4  10
BRANCH   1  28
ATOM     21  C   UNL     1       3.221   3.339  19.691  0.00  0.00    +0.000 C 
ATOM     22  C   UNL     1       2.344   2.099  19.369  0.00  0.00    +0.000 C 
ATOM     23  C   UNL     1       2.124   1.216  20.623  0.00  0.00    +0.000 C 
ATOM     24  C   UNL     1       1.513   2.064  21.749  0.00  0.00    +0.000 C 
ATOM     25  C   UNL     1       1.224   3.492  21.238  0.00  0.00    +0.000 C 
ATOM     26  C   UNL     1       0.268   3.338  20.030  0.00  0.00    +0.000 C 
ATOM     27  C   UNL     1       0.964   2.575  18.898  0.00  0.00    +0.000 C 
ATOM     28  C   UNL     1       2.582   4.173  20.833  0.00  0.00    +0.000 C 
BRANCH  21  30
ATOM     29  O   UNL     1       4.914   2.091  20.920  0.00  0.00    +0.000 OA
ATOM     30  C   UNL     1       4.636   2.913  20.057  0.00  0.00    +0.000 C 
BRANCH  30  31
ATOM     31  O   UNL     1       5.585   3.482  19.302  0.00  0.00    +0.000 OA
ATOM     32  H   UNL     1       6.460   3.619  19.747  0.00  0.00    +0.000 HD
ENDBRANCH  30  31
ENDBRANCH  21  30
ENDBRANCH   1  28
BRANCH   6  33
ATOM     33  C   UNL     1       1.750   9.689  17.797  0.00  0.00    +0.000 C 
ATOM     34  C   UNL     1       0.227   9.642  18.115  0.00  0.00    +0.000 C 
ATOM     35  C   UNL     1       0.323  11.119  18.540  0.00  0.00    +0.000 C 
ATOM     36  C   UNL     1       1.807  10.871  18.815  0.00  0.00    +0.000 C 
ENDBRANCH   6  33
TORSDOF 5
ENDMDL
MODEL 4
REMARK VINA RESULT:      -7.4      3.736      6.912
REMARK  Name = 
REMARK  5 active torsions:
REMARK  status: ('A' for Active; 'I' for Inactive)
REMARK    1  A    between atoms: C_2  and  O_3
REMARK    2  A    between atoms: C_2  and  C_4
REMARK    3  A    between atoms: C_11  and  N_12
REMARK    4  A    between atoms: C_15  and  C_16
REMARK    5  A    between atoms: N_27  and  C_28
REMARK                            x       y       z     vdW  Elec       q    Type
REMARK                         _______ _______ _______ _____ _____    ______ ____
ROOT
ATOM      1  N   UNL     1      -3.028  12.671  19.549  0.00  0.00    +0.000 N 
ATOM      2  C   UNL     1      -1.678  12.403  19.787  0.00  0.00    +0.000 A 
ATOM      3  N   UNL     1      -1.097  11.229  19.725  0.00  0.00    +0.000 NA
ATOM      4  C   UNL     1       0.302  11.152  19.954  0.00  0.00    +0.000 A 
ATOM      5  C   UNL     1       1.075  12.255  20.075  0.00  0.00    +0.000 A 
ATOM      6  N   UNL     1       0.511  13.518  20.049  0.00  0.00    +0.000 N 
ATOM      7  C   UNL     1      -0.855  13.689  20.093  0.00  0.00    +0.000 A 
ATOM      8  O   UNL     1      -1.474  14.731  20.291  0.00  0.00    +0.000 OA
ATOM      9  H   UNL     1      -3.269  13.646  19.748  0.00  0.00    +0.000 HD
ENDROOT
BRANCH   4  10
ATOM     10  C   UNL     1       0.822   9.790  20.128  0.00  0.00    +0.000 A 
ATOM     11  C   UNL     1       0.402   9.020  21.202  0.00  0.00    +0.000 A 
ATOM     12  N   UNL     1       1.227   7.946  21.327  0.00  0.00    +0.000 N 
ATOM     13  C   UNL     1       1.875   7.755  20.154  0.00  0.00    +0.000 A 
ATOM     14  N   UNL     1       2.506   6.604  19.870  0.00  0.00    +0.000 NA
ATOM     15  C   UNL     1       3.001   6.566  18.621  0.00  0.00    +0.000 A 
ATOM     16  C   UNL     1       2.990   7.639  17.743  0.00  0.00    +0.000 A 
ATOM     17  F   UNL     1       3.513   7.495  16.520  0.00  0.00    +0.000 F 
ATOM     18  C   UNL     1       2.387   8.856  18.120  0.00  0.00    +0.000 A 
ATOM     19  C   UNL     1       1.715   8.906  19.367  0.00  0.00    +0.000 A 
ATOM     20  H   UNL     1       1.247   7.294  22.097  0.00  0.00    +0.000 HD
ENDBRANCH   4  10
BRANCH   1  28
ATOM     21  C   UNL     1      -4.482  11.947  17.651  0.00  0.00    +0.000 C 
ATOM     22  C   UNL     1      -5.962  12.374  17.452  0.00  0.00    +0.000 C 
ATOM     23  C   UNL     1      -6.938  11.384  18.135  0.00  0.00    +0.000 C 
ATOM     24  C   UNL     1      -6.582  11.255  19.624  0.00  0.00    +0.000 C 
ATOM     25  C   UNL     1      -5.435  12.225  19.980  0.00  0.00    +0.000 C 
ATOM     26  C   UNL     1      -5.934  13.644  19.612  0.00  0.00    +0.000 C 
ATOM     27  C   UNL     1      -6.174  13.747  18.103  0.00  0.00    +0.000 C 
ATOM     28  C   UNL     1      -4.154  11.821  19.162  0.00  0.00    +0.000 C 
BRANCH  21  30
ATOM     29  O   UNL     1      -3.797   9.617  17.461  0.00  0.00    +0.000 OA
ATOM     30  C   UNL     1      -4.201  10.639  16.924  0.00  0.00    +0.000 C 
BRANCH  30  31
ATOM     31  O   UNL     1      -4.490  10.674  15.616  0.00  0.00    +0.000 OA
ATOM     32  H   UNL     1      -5.234  10.086  15.327  0.00  0.00    +0.000 HD
ENDBRANCH  30  31
ENDBRANCH  21  30
ENDBRANCH   1  28
BRANCH   6  33
ATOM     33  C   UNL     1       1.463  14.663  20.009  0.00  0.00    +0.000 C 
ATOM     34  C   UNL     1       2.905  14.295  19.554  0.00  0.00    +0.000 C 
ATOM     35  C   UNL     1       2.927  15.604  18.743  0.00  0.00    +0.000 C 
ATOM     36  C   UNL     1       1.400  15.528  18.712  0.00  0.00    +0.000 C 
ENDBRANCH   6  33
TORSDOF 5
ENDMDL
MODEL 5
REMARK VINA RESULT:      -7.4      3.546      4.927
REMARK  Name = 
REMARK  5 active torsions:
REMARK  status: ('A' for Active; 'I' for Inactive)
REMARK    1  A    between atoms: C_2  and  O_3
REMARK    2  A    between atoms: C_2  and  C_4
REMARK    3  A    between atoms: C_11  and  N_12
REMARK    4  A    between atoms: C_15  and  C_16
REMARK    5  A    between atoms: N_27  and  C_28
REMARK                            x       y       z     vdW  Elec       q    Type
REMARK                         _______ _______ _______ _____ _____    ______ ____
ROOT
ATOM      1  N   UNL     1       1.103  14.465  19.509  0.00  0.00    +0.000 N 
ATOM      2  C   UNL     1       0.310  13.317  19.572  0.00  0.00    +0.000 A 
ATOM      3  N   UNL     1      -0.726  13.046  18.814  0.00  0.00    +0.000 NA
ATOM      4  C   UNL     1      -1.388  11.803  18.989  0.00  0.00    +0.000 A 
ATOM      5  C   UNL     1      -0.898  10.831  19.791  0.00  0.00    +0.000 A 
ATOM      6  N   UNL     1       0.249  11.043  20.536  0.00  0.00    +0.000 N 
ATOM      7  C   UNL     1       0.813  12.296  20.635  0.00  0.00    +0.000 A 
ATOM      8  O   UNL     1       1.685  12.665  21.416  0.00  0.00    +0.000 OA
ATOM      9  H   UNL     1       1.796  14.496  20.262  0.00  0.00    +0.000 HD
ENDROOT
BRANCH   4  10
ATOM     10  C   UNL     1      -2.678  11.692  18.298  0.00  0.00    +0.000 A 
ATOM     11  C   UNL     1      -2.726  11.232  16.990  0.00  0.00    +0.000 A 
ATOM     12  N   UNL     1      -3.954  11.501  16.470  0.00  0.00    +0.000 N 
ATOM     13  C   UNL     1      -4.822  11.710  17.488  0.00  0.00    +0.000 A 
ATOM     14  N   UNL     1      -6.152  11.683  17.304  0.00  0.00    +0.000 NA
ATOM     15  C   UNL     1      -6.847  11.810  18.447  0.00  0.00    +0.000 A 
ATOM     16  C   UNL     1      -6.277  12.074  19.683  0.00  0.00    +0.000 A 
ATOM     17  F   UNL     1      -7.062  12.184  20.760  0.00  0.00    +0.000 F 
ATOM     18  C   UNL     1      -4.877  12.176  19.810  0.00  0.00    +0.000 A 
ATOM     19  C   UNL     1      -4.085  11.900  18.666  0.00  0.00    +0.000 A 
ATOM     20  H   UNL     1      -4.227  11.406  15.504  0.00  0.00    +0.000 HD
ENDBRANCH   4  10
BRANCH   1  28
ATOM     21  C   UNL     1       2.153  16.683  19.046  0.00  0.00    +0.000 C 
ATOM     22  C   UNL     1       1.497  18.058  19.348  0.00  0.00    +0.000 C 
ATOM     23  C   UNL     1       0.675  18.574  18.141  0.00  0.00    +0.000 C 
ATOM     24  C   UNL     1      -0.372  17.522  17.743  0.00  0.00    +0.000 C 
ATOM     25  C   UNL     1      -0.335  16.338  18.734  0.00  0.00    +0.000 C 
ATOM     26  C   UNL     1      -0.599  16.935  20.138  0.00  0.00    +0.000 C 
ATOM     27  C   UNL     1       0.527  17.897  20.525  0.00  0.00    +0.000 C 
ATOM     28  C   UNL     1       1.073  15.644  18.645  0.00  0.00    +0.000 C 
BRANCH  21  30
ATOM     29  O   UNL     1       2.996  16.652  16.761  0.00  0.00    +0.000 OA
ATOM     30  C   UNL     1       3.206  16.822  17.954  0.00  0.00    +0.000 C 
BRANCH  30  31
ATOM     31  O   UNL     1       4.406  17.209  18.406  0.00  0.00    +0.000 OA
ATOM     32  H   UNL     1       5.181  16.710  18.041  0.00  0.00    +0.000 HD
ENDBRANCH  30  31
ENDBRANCH  21  30
ENDBRANCH   1  28
BRANCH   6  33
ATOM     33  C   UNL     1       0.803   9.855  21.243  0.00  0.00    +0.000 C 
ATOM     34  C   UNL     1      -0.255   8.789  21.653  0.00  0.00    +0.000 C 
ATOM     35  C   UNL     1       0.753   7.703  21.234  0.00  0.00    +0.000 C 
ATOM     36  C   UNL     1       1.388   8.746  20.313  0.00  0.00    +0.000 C 
ENDBRANCH   6  33
TORSDOF 5
ENDMDL
MODEL 6
REMARK VINA RESULT:      -7.4      9.132     13.098
REMARK  Name = 
REMARK  5 active torsions:
REMARK  status: ('A' for Active; 'I' for Inactive)
REMARK    1  A    between atoms: C_2  and  O_3
REMARK    2  A    between atoms: C_2  and  C_4
REMARK    3  A    between atoms: C_11  and  N_12
REMARK    4  A    between atoms: C_15  and  C_16
REMARK    5  A    between atoms: N_27  and  C_28
REMARK                            x       y       z     vdW  Elec       q    Type
REMARK                         _______ _______ _______ _____ _____    ______ ____
ROOT
ATOM      1  N   UNL     1       8.424  14.093  18.483  0.00  0.00    +0.000 N 
ATOM      2  C   UNL     1       7.441  14.622  19.323  0.00  0.00    +0.000 A 
ATOM      3  N   UNL     1       7.566  14.871  20.604  0.00  0.00    +0.000 NA
ATOM      4  C   UNL     1       6.471  15.456  21.292  0.00  0.00    +0.000 A 
ATOM      5  C   UNL     1       5.373  15.909  20.646  0.00  0.00    +0.000 A 
ATOM      6  N   UNL     1       5.244  15.753  19.277  0.00  0.00    +0.000 N 
ATOM      7  C   UNL     1       6.127  14.971  18.564  0.00  0.00    +0.000 A 
ATOM      8  O   UNL     1       6.011  14.576  17.407  0.00  0.00    +0.000 OA
ATOM      9  H   UNL     1       8.066  13.900  17.544  0.00  0.00    +0.000 HD
ENDROOT
BRANCH   4  10
ATOM     10  C   UNL     1       6.593  15.456  22.754  0.00  0.00    +0.000 A 
ATOM     11  C   UNL     1       5.836  16.337  23.513  0.00  0.00    +0.000 A 
ATOM     12  N   UNL     1       6.330  16.370  24.780  0.00  0.00    +0.000 N 
ATOM     13  C   UNL     1       7.072  15.256  24.987  0.00  0.00    +0.000 A 
ATOM     14  N   UNL     1       7.421  14.854  26.219  0.00  0.00    +0.000 NA
ATOM     15  C   UNL     1       8.066  13.676  26.229  0.00  0.00    +0.000 A 
ATOM     16  C   UNL     1       8.460  12.991  25.089  0.00  0.00    +0.000 A 
ATOM     17  F   UNL     1       9.101  11.824  25.211  0.00  0.00    +0.000 F 
ATOM     18  C   UNL     1       8.142  13.498  23.813  0.00  0.00    +0.000 A 
ATOM     19  C   UNL     1       7.329  14.659  23.744  0.00  0.00    +0.000 A 
ATOM     20  H   UNL     1       6.069  17.019  25.506  0.00  0.00    +0.000 HD
ENDBRANCH   4  10
BRANCH   1  28
ATOM     21  C   UNL     1      10.412  12.958  17.483  0.00  0.00    +0.000 C 
ATOM     22  C   UNL     1      10.929  11.551  17.888  0.00  0.00    +0.000 C 
ATOM     23  C   UNL     1      11.974  11.635  19.029  0.00  0.00    +0.000 C 
ATOM     24  C   UNL     1      11.369  12.382  20.227  0.00  0.00    +0.000 C 
ATOM     25  C   UNL     1       9.888  12.719  19.948  0.00  0.00    +0.000 C 
ATOM     26  C   UNL     1       9.179  11.370  19.672  0.00  0.00    +0.000 C 
ATOM     27  C   UNL     1       9.750  10.720  18.410  0.00  0.00    +0.000 C 
ATOM     28  C   UNL     1       9.810  13.688  18.713  0.00  0.00    +0.000 C 
BRANCH  21  30
ATOM     29  O   UNL     1      11.923  14.857  17.281  0.00  0.00    +0.000 OA
ATOM     30  C   UNL     1      11.530  13.779  16.857  0.00  0.00    +0.000 C 
BRANCH  30  31
ATOM     31  O   UNL     1      12.109  13.189  15.803  0.00  0.00    +0.000 OA
ATOM     32  H   UNL     1      13.035  13.483  15.604  0.00  0.00    +0.000 HD
ENDBRANCH  30  31
ENDBRANCH  21  30
ENDBRANCH   1  28
BRANCH   6  33
ATOM     33  C   UNL     1       4.088  16.443  18.641  0.00  0.00    +0.000 C 
ATOM     34  C   UNL     1       2.857  15.531  18.367  0.00  0.00    +0.000 C 
ATOM     35  C   UNL     1       1.959  16.696  18.824  0.00  0.00    +0.000 C 
ATOM     36  C   UNL     1       3.153  17.210  19.628  0.00  0.00    +0.000 C 
ENDBRANCH   6  33
TORSDOF 5
ENDMDL
MODEL 7
REMARK VINA RESULT:      -7.2      8.908     13.004
REMARK  Name = 
REMARK  5 active torsions:
REMARK  status: ('A' for Active; 'I' for Inactive)
REMARK    1  A    between atoms: C_2  and  O_3
REMARK    2  A    between atoms: C_2  and  C_4
REMARK    3  A    between atoms: C_11  and  N_12
REMARK    4  A    between atoms: C_15  and  C_16
REMARK    5  A    between atoms: N_27  and  C_28
REMARK                            x       y       z     vdW  Elec       q    Type
REMARK                         _______ _______ _______ _____ _____    ______ ____
ROOT
ATOM      1  N   UNL     1       8.613  14.203  19.114  0.00  0.00    +0.000 N 
ATOM      2  C   UNL     1       7.768  14.475  20.192  0.00  0.00    +0.000 A 
ATOM      3  N   UNL     1       8.036  14.271  21.460  0.00  0.00    +0.000 NA
ATOM      4  C   UNL     1       7.069  14.652  22.427  0.00  0.00    +0.000 A 
ATOM      5  C   UNL     1       5.962  15.357  22.102  0.00  0.00    +0.000 A 
ATOM      6  N   UNL     1       5.691  15.677  20.783  0.00  0.00    +0.000 N 
ATOM      7  C   UNL     1       6.425  15.132  19.753  0.00  0.00    +0.000 A 
ATOM      8  O   UNL     1       6.165  15.156  18.553  0.00  0.00    +0.000 OA
ATOM      9  H   UNL     1       8.151  14.358  18.214  0.00  0.00    +0.000 HD
ENDROOT
BRANCH   4  10
ATOM     10  C   UNL     1       7.328  14.154  23.783  0.00  0.00    +0.000 A 
ATOM     11  C   UNL     1       8.116  14.892  24.654  0.00  0.00    +0.000 A 
ATOM     12  N   UNL     1       8.462  14.108  25.711  0.00  0.00    +0.000 N 
ATOM     13  C   UNL     1       7.599  13.068  25.783  0.00  0.00    +0.000 A 
ATOM     14  N   UNL     1       7.488  12.312  26.887  0.00  0.00    +0.000 NA
ATOM     15  C   UNL     1       6.509  11.396  26.806  0.00  0.00    +0.000 A 
ATOM     16  C   UNL     1       5.764  11.148  25.663  0.00  0.00    +0.000 A 
ATOM     17  F   UNL     1       4.812  10.209  25.688  0.00  0.00    +0.000 F 
ATOM     18  C   UNL     1       5.975  11.915  24.499  0.00  0.00    +0.000 A 
ATOM     19  C   UNL     1       6.889  12.997  24.575  0.00  0.00    +0.000 A 
ATOM     20  H   UNL     1       9.139  14.333  26.424  0.00  0.00    +0.000 HD
ENDBRANCH   4  10
BRANCH   1  28
ATOM     21  C   UNL     1      10.272  13.067  17.631  0.00  0.00    +0.000 C 
ATOM     22  C   UNL     1      10.711  11.583  17.762  0.00  0.00    +0.000 C 
ATOM     23  C   UNL     1      11.942  11.433  18.689  0.00  0.00    +0.000 C 
ATOM     24  C   UNL     1      11.635  12.054  20.059  0.00  0.00    +0.000 C 
ATOM     25  C   UNL     1      10.168  12.537  20.104  0.00  0.00    +0.000 C 
ATOM     26  C   UNL     1       9.292  11.295  19.807  0.00  0.00    +0.000 C 
ATOM     27  C   UNL     1       9.565  10.780  18.391  0.00  0.00    +0.000 C 
ATOM     28  C   UNL     1       9.971  13.668  19.030  0.00  0.00    +0.000 C 
BRANCH  21  30
ATOM     29  O   UNL     1      11.940  14.826  17.397  0.00  0.00    +0.000 OA
ATOM     30  C   UNL     1      11.339  13.879  16.910  0.00  0.00    +0.000 C 
BRANCH  30  31
ATOM     31  O   UNL     1      11.619  13.430  15.679  0.00  0.00    +0.000 OA
ATOM     32  H   UNL     1      12.330  13.924  15.196  0.00  0.00    +0.000 HD
ENDBRANCH  30  31
ENDBRANCH  21  30
ENDBRANCH   1  28
BRANCH   6  33
ATOM     33  C   UNL     1       4.549  16.604  20.552  0.00  0.00    +0.000 C 
ATOM     34  C   UNL     1       3.172  15.906  20.361  0.00  0.00    +0.000 C 
ATOM     35  C   UNL     1       2.546  17.022  21.218  0.00  0.00    +0.000 C 
ATOM     36  C   UNL     1       3.927  17.220  21.844  0.00  0.00    +0.000 C 
ENDBRANCH   6  33
TORSDOF 5
ENDMDL
MODEL 8
REMARK VINA RESULT:      -7.2      3.275      5.310
REMARK  Name = 
REMARK  5 active torsions:
REMARK  status: ('A' for Active; 'I' for Inactive)
REMARK    1  A    between atoms: C_2  and  O_3
REMARK    2  A    between atoms: C_2  and  C_4
REMARK    3  A    between atoms: C_11  and  N_12
REMARK    4  A    between atoms: C_15  and  C_16
REMARK    5  A    between atoms: N_27  and  C_28
REMARK                            x       y       z     vdW  Elec       q    Type
REMARK                         _______ _______ _______ _____ _____    ______ ____
ROOT
ATOM      1  N   UNL     1      -4.553  12.852  21.072  0.00  0.00    +0.000 N 
ATOM      2  C   UNL     1      -3.591  12.647  20.080  0.00  0.00    +0.000 A 
ATOM      3  N   UNL     1      -2.331  13.005  20.134  0.00  0.00    +0.000 NA
ATOM      4  C   UNL     1      -1.483  12.671  19.046  0.00  0.00    +0.000 A 
ATOM      5  C   UNL     1      -1.887  11.865  18.037  0.00  0.00    +0.000 A 
ATOM      6  N   UNL     1      -3.184  11.386  17.994  0.00  0.00    +0.000 N 
ATOM      7  C   UNL     1      -4.149  11.861  18.856  0.00  0.00    +0.000 A 
ATOM      8  O   UNL     1      -5.363  11.689  18.790  0.00  0.00    +0.000 OA
ATOM      9  H   UNL     1      -5.488  12.570  20.766  0.00  0.00    +0.000 HD
ENDROOT
BRANCH   4  10
ATOM     10  C   UNL     1      -0.172  13.330  19.063  0.00  0.00    +0.000 A 
ATOM     11  C   UNL     1       0.984  12.571  19.160  0.00  0.00    +0.000 A 
ATOM     12  N   UNL     1       2.028  13.389  19.463  0.00  0.00    +0.000 N 
ATOM     13  C   UNL     1       1.693  14.661  19.143  0.00  0.00    +0.000 A 
ATOM     14  N   UNL     1       2.613  15.632  19.030  0.00  0.00    +0.000 NA
ATOM     15  C   UNL     1       2.102  16.799  18.605  0.00  0.00    +0.000 A 
ATOM     16  C   UNL     1       0.749  17.039  18.422  0.00  0.00    +0.000 A 
ATOM     17  F   UNL     1       0.345  18.242  17.997  0.00  0.00    +0.000 F 
ATOM     18  C   UNL     1      -0.188  16.009  18.634  0.00  0.00    +0.000 A 
ATOM     19  C   UNL     1       0.306  14.714  18.935  0.00  0.00    +0.000 A 
ATOM     20  H   UNL     1       2.957  13.099  19.729  0.00  0.00    +0.000 HD
ENDBRANCH   4  10
BRANCH   1  28
ATOM     21  C   UNL     1      -5.906  13.758  22.967  0.00  0.00    +0.000 C 
ATOM     22  C   UNL     1      -6.042  15.263  23.321  0.00  0.00    +0.000 C 
ATOM     23  C   UNL     1      -4.953  15.712  24.327  0.00  0.00    +0.000 C 
ATOM     24  C   UNL     1      -3.563  15.388  23.761  0.00  0.00    +0.000 C 
ATOM     25  C   UNL     1      -3.694  14.814  22.333  0.00  0.00    +0.000 C 
ATOM     26  C   UNL     1      -4.439  15.885  21.499  0.00  0.00    +0.000 C 
ATOM     27  C   UNL     1      -5.854  16.093  22.045  0.00  0.00    +0.000 C 
ATOM     28  C   UNL     1      -4.492  13.461  22.400  0.00  0.00    +0.000 C 
BRANCH  21  30
ATOM     29  O   UNL     1      -5.422  12.068  24.653  0.00  0.00    +0.000 OA
ATOM     30  C   UNL     1      -6.195  12.893  24.186  0.00  0.00    +0.000 C 
BRANCH  30  31
ATOM     31  O   UNL     1      -7.377  13.148  24.762  0.00  0.00    +0.000 OA
ATOM     32  H   UNL     1      -8.084  13.488  24.154  0.00  0.00    +0.000 HD
ENDBRANCH  30  31
ENDBRANCH  21  30
ENDBRANCH   1  28
BRANCH   6  33
ATOM     33  C   UNL     1      -3.475  10.368  16.947  0.00  0.00    +0.000 C 
ATOM     34  C   UNL     1      -3.830  10.954  15.549  0.00  0.00    +0.000 C 
ATOM     35  C   UNL     1      -2.980   9.833  14.922  0.00  0.00    +0.000 C 
ATOM     36  C   UNL     1      -2.218   9.765  16.245  0.00  0.00    +0.000 C 
ENDBRANCH   6  33
TORSDOF 5
ENDMDL
MODEL 9
REMARK VINA RESULT:      -7.1      8.331     11.383
REMARK  Name = 
REMARK  5 active torsions:
REMARK  status: ('A' for Active; 'I' for Inactive)
REMARK    1  A    between atoms: C_2  and  O_3
REMARK    2  A    between atoms: C_2  and  C_4
REMARK    3  A    between atoms: C_11  and  N_12
REMARK    4  A    between atoms: C_15  and  C_16
REMARK    5  A    between atoms: N_27  and  C_28
REMARK                            x       y       z     vdW  Elec       q    Type
REMARK                         _______ _______ _______ _____ _____    ______ ____
ROOT
ATOM      1  N   UNL     1       9.267  13.459  20.853  0.00  0.00    +0.000 N 
ATOM      2  C   UNL     1       8.096  13.653  21.589  0.00  0.00    +0.000 A 
ATOM      3  N   UNL     1       6.995  14.224  21.162  0.00  0.00    +0.000 NA
ATOM      4  C   UNL     1       5.882  14.293  22.039  0.00  0.00    +0.000 A 
ATOM      5  C   UNL     1       5.863  13.656  23.232  0.00  0.00    +0.000 A 
ATOM      6  N   UNL     1       6.972  12.960  23.678  0.00  0.00    +0.000 N 
ATOM      7  C   UNL     1       8.181  13.051  23.023  0.00  0.00    +0.000 A 
ATOM      8  O   UNL     1       9.279  12.671  23.420  0.00  0.00    +0.000 OA
ATOM      9  H   UNL     1      10.023  13.076  21.426  0.00  0.00    +0.000 HD
ENDROOT
BRANCH   4  10
ATOM     10  C   UNL     1       4.796  15.170  21.586  0.00  0.00    +0.000 A 
ATOM     11  C   UNL     1       4.211  16.064  22.472  0.00  0.00    +0.000 A 
ATOM     12  N   UNL     1       3.056  16.534  21.929  0.00  0.00    +0.000 N 
ATOM     13  C   UNL     1       3.088  16.330  20.591  0.00  0.00    +0.000 A 
ATOM     14  N   UNL     1       2.248  16.962  19.756  0.00  0.00    +0.000 NA
ATOM     15  C   UNL     1       2.500  16.711  18.461  0.00  0.00    +0.000 A 
ATOM     16  C   UNL     1       3.438  15.795  18.011  0.00  0.00    +0.000 A 
ATOM     17  F   UNL     1       3.609  15.618  16.696  0.00  0.00    +0.000 F 
ATOM     18  C   UNL     1       4.241  15.093  18.932  0.00  0.00    +0.000 A 
ATOM     19  C   UNL     1       4.125  15.430  20.305  0.00  0.00    +0.000 A 
ATOM     20  H   UNL     1       2.356  17.087  22.401  0.00  0.00    +0.000 HD
ENDBRANCH   4  10
BRANCH   1  28
ATOM     21  C   UNL     1       9.211  12.652  18.490  0.00  0.00    +0.000 C 
ATOM     22  C   UNL     1      10.442  12.133  17.698  0.00  0.00    +0.000 C 
ATOM     23  C   UNL     1      11.153  13.278  16.935  0.00  0.00    +0.000 C 
ATOM     24  C   UNL     1      11.541  14.390  17.920  0.00  0.00    +0.000 C 
ATOM     25  C   UNL     1      11.190  13.966  19.363  0.00  0.00    +0.000 C 
ATOM     26  C   UNL     1      11.956  12.647  19.628  0.00  0.00    +0.000 C 
ATOM     27  C   UNL     1      11.457  11.546  18.688  0.00  0.00    +0.000 C 
ATOM     28  C   UNL     1       9.633  13.775  19.473  0.00  0.00    +0.000 C 
BRANCH  21  30
ATOM     29  O   UNL     1       7.443  12.417  16.831  0.00  0.00    +0.000 OA
ATOM     30  C   UNL     1       8.131  13.143  17.536  0.00  0.00    +0.000 C 
BRANCH  30  31
ATOM     31  O   UNL     1       7.945  14.469  17.566  0.00  0.00    +0.000 OA
ATOM     32  H   UNL     1       8.764  15.012  17.698  0.00  0.00    +0.000 HD
ENDBRANCH  30  31
ENDBRANCH  21  30
ENDBRANCH   1  28
BRANCH   6  33
ATOM     33  C   UNL     1       6.788  12.149  24.913  0.00  0.00    +0.000 C 
ATOM     34  C   UNL     1       5.914  12.823  26.010  0.00  0.00    +0.000 C 
ATOM     35  C   UNL     1       5.269  11.448  26.267  0.00  0.00    +0.000 C 
ATOM     36  C   UNL     1       5.656  11.076  24.835  0.00  0.00    +0.000 C 
ENDBRANCH   6  33
TORSDOF 5
ENDMDL
