MODEL 1
REMARK VINA RESULT:      -8.5      0.000      0.000
REMARK  Name = 
REMARK  6 active torsions:
REMARK  status: ('A' for Active; 'I' for Inactive)
REMARK    1  A    between atoms: N_2  and  C_4
REMARK    2  A    between atoms: C_7  and  O_8
REMARK    3  A    between atoms: C_9  and  C_10
REMARK    4  A    between atoms: C_10  and  C_11
REMARK    5  A    between atoms: C_10  and  N_19
REMARK    6  A    between atoms: C_12  and  C_13
REMARK                            x       y       z     vdW  Elec       q    Type
REMARK                         _______ _______ _______ _____ _____    ______ ____
ROOT
ATOM      1  C   UNL     1       3.650   4.513  18.242  0.00  0.00    +0.000 C 
ENDROOT
BRANCH   1   6
ATOM      2  C   UNL     1       6.491   4.603  15.604  0.00  0.00    +0.000 A 
ATOM      3  C   UNL     1       7.617   4.874  16.382  0.00  0.00    +0.000 A 
ATOM      4  C   UNL     1       7.485   4.922  17.770  0.00  0.00    +0.000 A 
ATOM      5  C   UNL     1       6.227   4.756  18.370  0.00  0.00    +0.000 A 
ATOM      6  C   UNL     1       5.071   4.510  17.613  0.00  0.00    +0.000 A 
ATOM      7  C   UNL     1       5.245   4.382  16.211  0.00  0.00    +0.000 A 
BRANCH   2   9
ATOM      8  O   UNL     1       5.839   3.857  13.503  0.00  0.00    +0.000 OA
ATOM      9  N   UNL     1       6.603   4.601  14.137  0.00  0.00    +0.000 N 
ATOM     10  O   UNL     1       7.458   5.332  13.619  0.00  0.00    +0.000 OA
ENDBRANCH   2   9
BRANCH   5  11
ATOM     11  O   UNL     1       6.133   4.859  19.730  0.00  0.00    +0.000 OA
ATOM     12  H   UNL     1       5.312   5.332  19.954  0.00  0.00    +0.000 HD
ENDBRANCH   5  11
ENDBRANCH   1   6
BRANCH   1  13
ATOM     13  N   UNL     1       2.652   3.635  17.569  0.00  0.00    +0.000 NA
ATOM     14  C   UNL     1       1.271   3.815  18.117  0.00  0.00    +0.000 C 
ATOM     15  C   UNL     1       1.064   3.244  19.532  0.00  0.00    +0.000 C 
ATOM     16  O   UNL     1       1.384   1.849  19.576  0.00  0.00    +0.000 OA
ATOM     17  C   UNL     1       2.727   1.625  19.128  0.00  0.00    +0.000 C 
ATOM     18  C   UNL     1       2.948   2.187  17.709  0.00  0.00    +0.000 C 
ENDBRANCH   1  13
BRANCH   1  19
ATOM     19  C   UNL     1       3.155   5.921  18.215  0.00  0.00    +0.000 C 
ATOM     20  C   UNL     1       2.709   7.023  18.393  0.00  0.00    +0.000 C 
BRANCH  20  21
ATOM     21  C   UNL     1       2.098   8.258  18.782  0.00  0.00    +0.000 A 
ATOM     22  C   UNL     1       1.516   8.376  20.053  0.00  0.00    +0.000 A 
ATOM     23  C   UNL     1       0.839   9.541  20.412  0.00  0.00    +0.000 A 
ATOM     24  C   UNL     1       0.741  10.594  19.503  0.00  0.00    +0.000 A 
ATOM     25  C   UNL     1       1.342  10.492  18.248  0.00  0.00    +0.000 A 
ATOM     26  C   UNL     1       2.023   9.324  17.889  0.00  0.00    +0.000 A 
ENDBRANCH  20  21
ENDBRANCH   1  19
TORSDOF 6
ENDMDL
MODEL 2
REMARK VINA RESULT:      -8.4      0.059      1.150
REMARK  Name = 
REMARK  6 active torsions:
REMARK  status: ('A' for Active; 'I' for Inactive)
REMARK    1  A    between atoms: N_2  and  C_4
REMARK    2  A    between atoms: C_7  and  O_8
REMARK    3  A    between atoms: C_9  and  C_10
REMARK    4  A    between atoms: C_10  and  C_11
REMARK    5  A    between atoms: C_10  and  N_19
REMARK    6  A    between atoms: C_12  and  C_13
REMARK                            x       y       z     vdW  Elec       q    Type
REMARK                         _______ _______ _______ _____ _____    ______ ____
ROOT
ATOM      1  C   UNL     1       3.653   4.536  18.243  0.00  0.00    +0.000 C 
ENDROOT
BRANCH   1   6
ATOM      2  C   UNL     1       6.489   4.604  15.599  0.00  0.00    +0.000 A 
ATOM      3  C   UNL     1       7.619   4.867  16.374  0.00  0.00    +0.000 A 
ATOM      4  C   UNL     1       7.491   4.916  17.762  0.00  0.00    +0.000 A 
ATOM      5  C   UNL     1       6.233   4.759  18.365  0.00  0.00    +0.000 A 
ATOM      6  C   UNL     1       5.073   4.522  17.611  0.00  0.00    +0.000 A 
ATOM      7  C   UNL     1       5.242   4.392  16.209  0.00  0.00    +0.000 A 
BRANCH   2   9
ATOM      8  O   UNL     1       7.455   5.333  13.616  0.00  0.00    +0.000 OA
ATOM      9  N   UNL     1       6.597   4.600  14.132  0.00  0.00    +0.000 N 
ATOM     10  O   UNL     1       5.821   3.875  13.494  0.00  0.00    +0.000 OA
ENDBRANCH   2   9
BRANCH   5  11
ATOM     11  O   UNL     1       6.143   4.864  19.725  0.00  0.00    +0.000 OA
ATOM     12  H   UNL     1       6.983   5.211  20.071  0.00  0.00    +0.000 HD
ENDBRANCH   5  11
ENDBRANCH   1   6
BRANCH   1  13
ATOM     13  N   UNL     1       2.644   3.675  17.565  0.00  0.00    +0.000 NA
ATOM     14  C   UNL     1       1.269   3.858  18.126  0.00  0.00    +0.000 C 
ATOM     15  C   UNL     1       1.068   3.266  19.534  0.00  0.00    +0.000 C 
ATOM     16  O   UNL     1       1.378   1.868  19.553  0.00  0.00    +0.000 OA
ATOM     17  C   UNL     1       2.716   1.641  19.092  0.00  0.00    +0.000 C 
ATOM     18  C   UNL     1       2.930   2.224  17.680  0.00  0.00    +0.000 C 
ENDBRANCH   1  13
BRANCH   1  19
ATOM     19  C   UNL     1       3.175   5.950  18.232  0.00  0.00    +0.000 C 
ATOM     20  C   UNL     1       2.707   7.043  18.406  0.00  0.00    +0.000 C 
BRANCH  20  21
ATOM     21  C   UNL     1       2.041   8.257  18.770  0.00  0.00    +0.000 A 
ATOM     22  C   UNL     1       2.033   9.339  17.878  0.00  0.00    +0.000 A 
ATOM     23  C   UNL     1       1.466  10.557  18.253  0.00  0.00    +0.000 A 
ATOM     24  C   UNL     1       0.903  10.698  19.522  0.00  0.00    +0.000 A 
ATOM     25  C   UNL     1       0.884   9.616  20.402  0.00  0.00    +0.000 A 
ATOM     26  C   UNL     1       1.451   8.394  20.024  0.00  0.00    +0.000 A 
ENDBRANCH  20  21
ENDBRANCH   1  19
TORSDOF 6
ENDMDL
MODEL 3
REMARK VINA RESULT:      -8.1      2.100      3.117
REMARK  Name = 
REMARK  6 active torsions:
REMARK  status: ('A' for Active; 'I' for Inactive)
REMARK    1  A    between atoms: N_2  and  C_4
REMARK    2  A    between atoms: C_7  and  O_8
REMARK    3  A    between atoms: C_9  and  C_10
REMARK    4  A    between atoms: C_10  and  C_11
REMARK    5  A    between atoms: C_10  and  N_19
REMARK    6  A    between atoms: C_12  and  C_13
REMARK                            x       y       z     vdW  Elec       q    Type
REMARK                         _______ _______ _______ _____ _____    ______ ____
ROOT
ATOM      1  C   UNL     1       2.742   5.304  19.785  0.00  0.00    +0.000 C 
ENDROOT
BRANCH   1   6
ATOM      2  C   UNL     1       6.222   5.629  18.106  0.00  0.00    +0.000 A 
ATOM      3  C   UNL     1       5.959   6.471  17.026  0.00  0.00    +0.000 A 
ATOM      4  C   UNL     1       4.686   7.025  16.894  0.00  0.00    +0.000 A 
ATOM      5  C   UNL     1       3.670   6.694  17.804  0.00  0.00    +0.000 A 
ATOM      6  C   UNL     1       3.895   5.828  18.885  0.00  0.00    +0.000 A 
ATOM      7  C   UNL     1       5.219   5.344  19.046  0.00  0.00    +0.000 A 
BRANCH   2   9
ATOM      8  O   UNL     1       8.136   5.107  19.315  0.00  0.00    +0.000 OA
ATOM      9  N   UNL     1       7.544   4.995  18.231  0.00  0.00    +0.000 N 
ATOM     10  O   UNL     1       7.995   4.394  17.245  0.00  0.00    +0.000 OA
ENDBRANCH   2   9
BRANCH   5  11
ATOM     11  O   UNL     1       2.423   7.220  17.611  0.00  0.00    +0.000 OA
ATOM     12  H   UNL     1       2.510   8.087  17.177  0.00  0.00    +0.000 HD
ENDBRANCH   5  11
ENDBRANCH   1   6
BRANCH   1  13
ATOM     13  N   UNL     1       1.659   4.570  19.072  0.00  0.00    +0.000 NA
ATOM     14  C   UNL     1       0.806   3.766  20.003  0.00  0.00    +0.000 C 
ATOM     15  C   UNL     1       1.494   2.517  20.584  0.00  0.00    +0.000 C 
ATOM     16  O   UNL     1       1.957   1.652  19.541  0.00  0.00    +0.000 OA
ATOM     17  C   UNL     1       2.840   2.354  18.657  0.00  0.00    +0.000 C 
ATOM     18  C   UNL     1       2.161   3.606  18.063  0.00  0.00    +0.000 C 
ENDBRANCH   1  13
BRANCH   1  19
ATOM     19  C   UNL     1       2.152   6.483  20.484  0.00  0.00    +0.000 C 
ATOM     20  C   UNL     1       1.570   7.460  20.873  0.00  0.00    +0.000 C 
BRANCH  20  21
ATOM     21  C   UNL     1       0.821   8.652  21.136  0.00  0.00    +0.000 A 
ATOM     22  C   UNL     1       0.619   9.586  20.109  0.00  0.00    +0.000 A 
ATOM     23  C   UNL     1      -0.029  10.792  20.373  0.00  0.00    +0.000 A 
ATOM     24  C   UNL     1      -0.479  11.070  21.664  0.00  0.00    +0.000 A 
ATOM     25  C   UNL     1      -0.305  10.132  22.682  0.00  0.00    +0.000 A 
ATOM     26  C   UNL     1       0.343   8.922  22.416  0.00  0.00    +0.000 A 
ENDBRANCH  20  21
ENDBRANCH   1  19
TORSDOF 6
ENDMDL
MODEL 4
REMARK VINA RESULT:      -7.7      1.173      1.642
REMARK  Name = 
REMARK  6 active torsions:
REMARK  status: ('A' for Active; 'I' for Inactive)
REMARK    1  A    between atoms: N_2  and  C_4
REMARK    2  A    between atoms: C_7  and  O_8
REMARK    3  A    between atoms: C_9  and  C_10
REMARK    4  A    between atoms: C_10  and  C_11
REMARK    5  A    between atoms: C_10  and  N_19
REMARK    6  A    between atoms: C_12  and  C_13
REMARK                            x       y       z     vdW  Elec       q    Type
REMARK                         _______ _______ _______ _____ _____    ______ ____
ROOT
ATOM      1  C   UNL     1       4.021   4.738  19.281  0.00  0.00    +0.000 C 
ENDROOT
BRANCH   1   6
ATOM      2  C   UNL     1       6.060   4.442  15.995  0.00  0.00    +0.000 A 
ATOM      3  C   UNL     1       7.350   4.773  16.410  0.00  0.00    +0.000 A 
ATOM      4  C   UNL     1       7.591   4.987  17.767  0.00  0.00    +0.000 A 
ATOM      5  C   UNL     1       6.539   4.925  18.693  0.00  0.00    +0.000 A 
ATOM      6  C   UNL     1       5.224   4.623  18.305  0.00  0.00    +0.000 A 
ATOM      7  C   UNL     1       5.020   4.327  16.932  0.00  0.00    +0.000 A 
BRANCH   2   9
ATOM      8  O   UNL     1       4.936   5.015  14.044  0.00  0.00    +0.000 OA
ATOM      9  N   UNL     1       5.778   4.265  14.562  0.00  0.00    +0.000 N 
ATOM     10  O   UNL     1       6.389   3.374  13.956  0.00  0.00    +0.000 OA
ENDBRANCH   2   9
BRANCH   5  11
ATOM     11  O   UNL     1       6.808   5.190  20.007  0.00  0.00    +0.000 OA
ATOM     12  H   UNL     1       6.631   6.130  20.182  0.00  0.00    +0.000 HD
ENDBRANCH   5  11
ENDBRANCH   1   6
BRANCH   1  13
ATOM     13  N   UNL     1       3.040   3.619  19.220  0.00  0.00    +0.000 NA
ATOM     14  C   UNL     1       1.897   3.810  20.166  0.00  0.00    +0.000 C 
ATOM     15  C   UNL     1       2.259   3.627  21.653  0.00  0.00    +0.000 C 
ATOM     16  O   UNL     1       2.826   2.334  21.889  0.00  0.00    +0.000 OA
ATOM     17  C   UNL     1       3.973   2.125  21.056  0.00  0.00    +0.000 C 
ATOM     18  C   UNL     1       3.624   2.299  19.564  0.00  0.00    +0.000 C 
ENDBRANCH   1  13
BRANCH   1  19
ATOM     19  C   UNL     1       3.319   6.019  18.974  0.00  0.00    +0.000 C 
ATOM     20  C   UNL     1       2.706   7.051  18.927  0.00  0.00    +0.000 C 
BRANCH  20  21
ATOM     21  C   UNL     1       1.903   8.230  19.062  0.00  0.00    +0.000 A 
ATOM     22  C   UNL     1       1.727   9.080  17.961  0.00  0.00    +0.000 A 
ATOM     23  C   UNL     1       1.024  10.276  18.100  0.00  0.00    +0.000 A 
ATOM     24  C   UNL     1       0.493  10.627  19.341  0.00  0.00    +0.000 A 
ATOM     25  C   UNL     1       0.642   9.771  20.433  0.00  0.00    +0.000 A 
ATOM     26  C   UNL     1       1.346   8.571  20.292  0.00  0.00    +0.000 A 
ENDBRANCH  20  21
ENDBRANCH   1  19
TORSDOF 6
ENDMDL
MODEL 5
REMARK VINA RESULT:      -7.7      1.923      5.091
REMARK  Name = 
REMARK  6 active torsions:
REMARK  status: ('A' for Active; 'I' for Inactive)
REMARK    1  A    between atoms: N_2  and  C_4
REMARK    2  A    between atoms: C_7  and  O_8
REMARK    3  A    between atoms: C_9  and  C_10
REMARK    4  A    between atoms: C_10  and  C_11
REMARK    5  A    between atoms: C_10  and  N_19
REMARK    6  A    between atoms: C_12  and  C_13
REMARK                            x       y       z     vdW  Elec       q    Type
REMARK                         _______ _______ _______ _____ _____    ______ ____
ROOT
ATOM      1  C   UNL     1       3.556   5.446  17.468  0.00  0.00    +0.000 C 
ENDROOT
BRANCH   1   6
ATOM      2  C   UNL     1       2.893   2.699  20.124  0.00  0.00    +0.000 A 
ATOM      3  C   UNL     1       1.575   2.329  19.853  0.00  0.00    +0.000 A 
ATOM      4  C   UNL     1       0.930   2.884  18.748  0.00  0.00    +0.000 A 
ATOM      5  C   UNL     1       1.579   3.842  17.954  0.00  0.00    +0.000 A 
ATOM      6  C   UNL     1       2.894   4.256  18.216  0.00  0.00    +0.000 A 
ATOM      7  C   UNL     1       3.558   3.616  19.294  0.00  0.00    +0.000 A 
BRANCH   2   9
ATOM      8  O   UNL     1       2.910   2.079  22.363  0.00  0.00    +0.000 OA
ATOM      9  N   UNL     1       3.570   2.163  21.315  0.00  0.00    +0.000 N 
ATOM     10  O   UNL     1       4.761   1.836  21.209  0.00  0.00    +0.000 OA
ENDBRANCH   2   9
BRANCH   5  11
ATOM     11  O   UNL     1       0.894   4.397  16.909  0.00  0.00    +0.000 OA
ATOM     12  H   UNL     1       0.390   3.700  16.456  0.00  0.00    +0.000 HD
ENDBRANCH   5  11
ENDBRANCH   1   6
BRANCH   1  13
ATOM     13  N   UNL     1       5.046   5.462  17.485  0.00  0.00    +0.000 NA
ATOM     14  C   UNL     1       5.611   6.679  16.823  0.00  0.00    +0.000 C 
ATOM     15  C   UNL     1       5.465   6.700  15.289  0.00  0.00    +0.000 C 
ATOM     16  O   UNL     1       6.073   5.545  14.699  0.00  0.00    +0.000 OA
ATOM     17  C   UNL     1       5.514   4.345  15.247  0.00  0.00    +0.000 C 
ATOM     18  C   UNL     1       5.658   4.308  16.783  0.00  0.00    +0.000 C 
ENDBRANCH   1  13
BRANCH   1  19
ATOM     19  C   UNL     1       3.049   6.703  18.094  0.00  0.00    +0.000 C 
ATOM     20  C   UNL     1       2.453   7.632  18.570  0.00  0.00    +0.000 C 
BRANCH  20  21
ATOM     21  C   UNL     1       1.572   8.653  19.051  0.00  0.00    +0.000 A 
ATOM     22  C   UNL     1       1.220   8.684  20.408  0.00  0.00    +0.000 A 
ATOM     23  C   UNL     1       0.293   9.616  20.874  0.00  0.00    +0.000 A 
ATOM     24  C   UNL     1      -0.285  10.522  19.986  0.00  0.00    +0.000 A 
ATOM     25  C   UNL     1       0.082  10.513  18.640  0.00  0.00    +0.000 A 
ATOM     26  C   UNL     1       1.013   9.579  18.173  0.00  0.00    +0.000 A 
ENDBRANCH  20  21
ENDBRANCH   1  19
TORSDOF 6
ENDMDL
MODEL 6
REMARK VINA RESULT:      -7.6      1.984      5.335
REMARK  Name = 
REMARK  6 active torsions:
REMARK  status: ('A' for Active; 'I' for Inactive)
REMARK    1  A    between atoms: N_2  and  C_4
REMARK    2  A    between atoms: C_7  and  O_8
REMARK    3  A    between atoms: C_9  and  C_10
REMARK    4  A    between atoms: C_10  and  C_11
REMARK    5  A    between atoms: C_10  and  N_19
REMARK    6  A    between atoms: C_12  and  C_13
REMARK                            x       y       z     vdW  Elec       q    Type
REMARK                         _______ _______ _______ _____ _____    ______ ____
ROOT
ATOM      1  C   UNL     1       4.025   5.365  17.739  0.00  0.00    +0.000 C 
ENDROOT
BRANCH   1   6
ATOM      2  C   UNL     1       2.207   3.137  20.342  0.00  0.00    +0.000 A 
ATOM      3  C   UNL     1       1.469   2.271  19.535  0.00  0.00    +0.000 A 
ATOM      4  C   UNL     1       1.635   2.329  18.151  0.00  0.00    +0.000 A 
ATOM      5  C   UNL     1       2.490   3.282  17.578  0.00  0.00    +0.000 A 
ATOM      6  C   UNL     1       3.226   4.186  18.360  0.00  0.00    +0.000 A 
ATOM      7  C   UNL     1       3.104   4.052  19.767  0.00  0.00    +0.000 A 
BRANCH   2   9
ATOM      8  O   UNL     1       2.674   3.919  22.479  0.00  0.00    +0.000 OA
ATOM      9  N   UNL     1       2.005   3.126  21.799  0.00  0.00    +0.000 N 
ATOM     10  O   UNL     1       1.187   2.320  22.265  0.00  0.00    +0.000 OA
ENDBRANCH   2   9
BRANCH   5  11
ATOM     11  O   UNL     1       2.588   3.338  16.215  0.00  0.00    +0.000 OA
ATOM     12  H   UNL     1       1.780   2.959  15.826  0.00  0.00    +0.000 HD
ENDBRANCH   5  11
ENDBRANCH   1   6
BRANCH   1  13
ATOM     13  N   UNL     1       5.422   5.519  18.233  0.00  0.00    +0.000 NA
ATOM     14  C   UNL     1       6.082   6.753  17.702  0.00  0.00    +0.000 C 
ATOM     15  C   UNL     1       6.443   6.694  16.206  0.00  0.00    +0.000 C 
ATOM     16  O   UNL     1       7.293   5.576  15.926  0.00  0.00    +0.000 OA
ATOM     17  C   UNL     1       6.676   4.354  16.349  0.00  0.00    +0.000 C 
ATOM     18  C   UNL     1       6.313   4.397  17.848  0.00  0.00    +0.000 C 
ENDBRANCH   1  13
BRANCH   1  19
ATOM     19  C   UNL     1       3.266   6.618  18.027  0.00  0.00    +0.000 C 
ATOM     20  C   UNL     1       2.592   7.528  18.428  0.00  0.00    +0.000 C 
BRANCH  20  21
ATOM     21  C   UNL     1       1.705   8.472  19.039  0.00  0.00    +0.000 A 
ATOM     22  C   UNL     1       1.378   8.340  20.396  0.00  0.00    +0.000 A 
ATOM     23  C   UNL     1       0.447   9.198  20.982  0.00  0.00    +0.000 A 
ATOM     24  C   UNL     1      -0.160  10.191  20.214  0.00  0.00    +0.000 A 
ATOM     25  C   UNL     1       0.183  10.343  18.870  0.00  0.00    +0.000 A 
ATOM     26  C   UNL     1       1.119   9.485  18.284  0.00  0.00    +0.000 A 
ENDBRANCH  20  21
ENDBRANCH   1  19
TORSDOF 6
ENDMDL
MODEL 7
REMARK VINA RESULT:      -7.6      1.978      5.381
REMARK  Name = 
REMARK  6 active torsions:
REMARK  status: ('A' for Active; 'I' for Inactive)
REMARK    1  A    between atoms: N_2  and  C_4
REMARK    2  A    between atoms: C_7  and  O_8
REMARK    3  A    between atoms: C_9  and  C_10
REMARK    4  A    between atoms: C_10  and  C_11
REMARK    5  A    between atoms: C_10  and  N_19
REMARK    6  A    between atoms: C_12  and  C_13
REMARK                            x       y       z     vdW  Elec       q    Type
REMARK                         _______ _______ _______ _____ _____    ______ ____
ROOT
ATOM      1  C   UNL     1       4.081   5.317  17.743  0.00  0.00    +0.000 C 
ENDROOT
BRANCH   1   6
ATOM      2  C   UNL     1       2.250   3.105  20.349  0.00  0.00    +0.000 A 
ATOM      3  C   UNL     1       1.498   2.249  19.544  0.00  0.00    +0.000 A 
ATOM      4  C   UNL     1       1.658   2.308  18.160  0.00  0.00    +0.000 A 
ATOM      5  C   UNL     1       2.522   3.253  17.584  0.00  0.00    +0.000 A 
ATOM      6  C   UNL     1       3.271   4.146  18.365  0.00  0.00    +0.000 A 
ATOM      7  C   UNL     1       3.155   4.010  19.773  0.00  0.00    +0.000 A 
BRANCH   2   9
ATOM      8  O   UNL     1       1.309   2.220  22.281  0.00  0.00    +0.000 OA
ATOM      9  N   UNL     1       2.055   3.092  21.807  0.00  0.00    +0.000 N 
ATOM     10  O   UNL     1       2.638   3.955  22.479  0.00  0.00    +0.000 OA
ENDBRANCH   2   9
BRANCH   5  11
ATOM     11  O   UNL     1       2.613   3.311  16.221  0.00  0.00    +0.000 OA
ATOM     12  H   UNL     1       3.473   2.948  15.947  0.00  0.00    +0.000 HD
ENDBRANCH   5  11
ENDBRANCH   1   6
BRANCH   1  13
ATOM     13  N   UNL     1       5.455   5.504  18.289  0.00  0.00    +0.000 NA
ATOM     14  C   UNL     1       6.089   6.774  17.815  0.00  0.00    +0.000 C 
ATOM     15  C   UNL     1       6.503   6.769  16.331  0.00  0.00    +0.000 C 
ATOM     16  O   UNL     1       7.400   5.688  16.051  0.00  0.00    +0.000 OA
ATOM     17  C   UNL     1       6.811   4.435  16.420  0.00  0.00    +0.000 C 
ATOM     18  C   UNL     1       6.397   4.424  17.906  0.00  0.00    +0.000 C 
ENDBRANCH   1  13
BRANCH   1  19
ATOM     19  C   UNL     1       3.296   6.568  17.962  0.00  0.00    +0.000 C 
ATOM     20  C   UNL     1       2.614   7.490  18.320  0.00  0.00    +0.000 C 
BRANCH  20  21
ATOM     21  C   UNL     1       1.730   8.459  18.895  0.00  0.00    +0.000 A 
ATOM     22  C   UNL     1       1.202   9.480  18.093  0.00  0.00    +0.000 A 
ATOM     23  C   UNL     1       0.414  10.483  18.658  0.00  0.00    +0.000 A 
ATOM     24  C   UNL     1       0.149  10.468  20.027  0.00  0.00    +0.000 A 
ATOM     25  C   UNL     1       0.650   9.438  20.824  0.00  0.00    +0.000 A 
ATOM     26  C   UNL     1       1.438   8.432  20.257  0.00  0.00    +0.000 A 
ENDBRANCH  20  21
ENDBRANCH   1  19
TORSDOF 6
ENDMDL
MODEL 8
REMARK VINA RESULT:      -7.4      1.992      5.291
REMARK  Name = 
REMARK  6 active torsions:
REMARK  status: ('A' for Active; 'I' for Inactive)
REMARK    1  A    between atoms: N_2  and  C_4
REMARK    2  A    between atoms: C_7  and  O_8
REMARK    3  A    between atoms: C_9  and  C_10
REMARK    4  A    between atoms: C_10  and  C_11
REMARK    5  A    between atoms: C_10  and  N_19
REMARK    6  A    between atoms: C_12  and  C_13
REMARK                            x       y       z     vdW  Elec       q    Type
REMARK                         _______ _______ _______ _____ _____    ______ ____
ROOT
ATOM      1  C   UNL     1       3.266   5.748  17.712  0.00  0.00    +0.000 C 
ENDROOT
BRANCH   1   6
ATOM      2  C   UNL     1       2.401   2.993  20.301  0.00  0.00    +0.000 A 
ATOM      3  C   UNL     1       1.190   2.495  19.818  0.00  0.00    +0.000 A 
ATOM      4  C   UNL     1       0.701   2.968  18.601  0.00  0.00    +0.000 A 
ATOM      5  C   UNL     1       1.389   3.970  17.900  0.00  0.00    +0.000 A 
ATOM      6  C   UNL     1       2.594   4.512  18.373  0.00  0.00    +0.000 A 
ATOM      7  C   UNL     1       3.115   3.955  19.569  0.00  0.00    +0.000 A 
BRANCH   2   9
ATOM      8  O   UNL     1       3.953   1.879  21.623  0.00  0.00    +0.000 OA
ATOM      9  N   UNL     1       2.905   2.543  21.608  0.00  0.00    +0.000 N 
ATOM     10  O   UNL     1       2.252   2.844  22.617  0.00  0.00    +0.000 OA
ENDBRANCH   2   9
BRANCH   5  11
ATOM     11  O   UNL     1       0.850   4.441  16.736  0.00  0.00    +0.000 OA
ATOM     12  H   UNL     1       0.492   3.692  16.228  0.00  0.00    +0.000 HD
ENDBRANCH   5  11
ENDBRANCH   1   6
BRANCH   1  13
ATOM     13  N   UNL     1       4.753   5.790  17.800  0.00  0.00    +0.000 NA
ATOM     14  C   UNL     1       5.336   6.950  17.057  0.00  0.00    +0.000 C 
ATOM     15  C   UNL     1       5.267   6.828  15.523  0.00  0.00    +0.000 C 
ATOM     16  O   UNL     1       5.918   5.634  15.072  0.00  0.00    +0.000 OA
ATOM     17  C   UNL     1       5.347   4.480  15.701  0.00  0.00    +0.000 C 
ATOM     18  C   UNL     1       5.414   4.586  17.239  0.00  0.00    +0.000 C 
ENDBRANCH   1  13
BRANCH   1  19
ATOM     19  C   UNL     1       2.704   6.964  18.370  0.00  0.00    +0.000 C 
ATOM     20  C   UNL     1       2.173   7.811  19.036  0.00  0.00    +0.000 C 
BRANCH  20  21
ATOM     21  C   UNL     1       1.434   8.662  19.920  0.00  0.00    +0.000 A 
ATOM     22  C   UNL     1       1.236   8.274  21.253  0.00  0.00    +0.000 A 
ATOM     23  C   UNL     1       0.443   9.048  22.101  0.00  0.00    +0.000 A 
ATOM     24  C   UNL     1      -0.153  10.214  21.620  0.00  0.00    +0.000 A 
ATOM     25  C   UNL     1       0.065  10.618  20.303  0.00  0.00    +0.000 A 
ATOM     26  C   UNL     1       0.861   9.842  19.454  0.00  0.00    +0.000 A 
ENDBRANCH  20  21
ENDBRANCH   1  19
TORSDOF 6
ENDMDL
MODEL 9
REMARK VINA RESULT:      -7.3      2.107      2.732
REMARK  Name = 
REMARK  6 active torsions:
REMARK  status: ('A' for Active; 'I' for Inactive)
REMARK    1  A    between atoms: N_2  and  C_4
REMARK    2  A    between atoms: C_7  and  O_8
REMARK    3  A    between atoms: C_9  and  C_10
REMARK    4  A    between atoms: C_10  and  C_11
REMARK    5  A    between atoms: C_10  and  N_19
REMARK    6  A    between atoms: C_12  and  C_13
REMARK                            x       y       z     vdW  Elec       q    Type
REMARK                         _______ _______ _______ _____ _____    ______ ____
ROOT
ATOM      1  C   UNL     1       3.397   4.832  19.499  0.00  0.00    +0.000 C 
ENDROOT
BRANCH   1   6
ATOM      2  C   UNL     1       6.399   6.249  17.494  0.00  0.00    +0.000 A 
ATOM      3  C   UNL     1       6.268   5.607  16.262  0.00  0.00    +0.000 A 
ATOM      4  C   UNL     1       5.154   4.800  16.034  0.00  0.00    +0.000 A 
ATOM      5  C   UNL     1       4.208   4.592  17.049  0.00  0.00    +0.000 A 
ATOM      6  C   UNL     1       4.325   5.200  18.309  0.00  0.00    +0.000 A 
ATOM      7  C   UNL     1       5.421   6.083  18.488  0.00  0.00    +0.000 A 
BRANCH   2   9
ATOM      8  O   UNL     1       7.872   7.966  16.967  0.00  0.00    +0.000 OA
ATOM      9  N   UNL     1       7.593   7.062  17.770  0.00  0.00    +0.000 N 
ATOM     10  O   UNL     1       8.258   6.794  18.781  0.00  0.00    +0.000 OA
ENDBRANCH   2   9
BRANCH   5  11
ATOM     11  O   UNL     1       3.157   3.754  16.801  0.00  0.00    +0.000 OA
ATOM     12  H   UNL     1       2.526   4.205  16.214  0.00  0.00    +0.000 HD
ENDBRANCH   5  11
ENDBRANCH   1   6
BRANCH   1  13
ATOM     13  N   UNL     1       2.581   3.599  19.315  0.00  0.00    +0.000 NA
ATOM     14  C   UNL     1       1.340   3.607  20.151  0.00  0.00    +0.000 C 
ATOM     15  C   UNL     1       1.583   3.417  21.661  0.00  0.00    +0.000 C 
ATOM     16  O   UNL     1       2.291   2.199  21.919  0.00  0.00    +0.000 OA
ATOM     17  C   UNL     1       3.528   2.171  21.196  0.00  0.00    +0.000 C 
ATOM     18  C   UNL     1       3.298   2.354  19.682  0.00  0.00    +0.000 C 
ENDBRANCH   1  13
BRANCH   1  19
ATOM     19  C   UNL     1       2.484   5.991  19.726  0.00  0.00    +0.000 C 
ATOM     20  C   UNL     1       1.920   7.025  19.967  0.00  0.00    +0.000 C 
BRANCH  20  21
ATOM     21  C   UNL     1       1.424   8.312  20.352  0.00  0.00    +0.000 A 
ATOM     22  C   UNL     1       1.106   8.560  21.695  0.00  0.00    +0.000 A 
ATOM     23  C   UNL     1       0.539   9.777  22.071  0.00  0.00    +0.000 A 
ATOM     24  C   UNL     1       0.287  10.752  21.105  0.00  0.00    +0.000 A 
ATOM     25  C   UNL     1       0.628  10.520  19.772  0.00  0.00    +0.000 A 
ATOM     26  C   UNL     1       1.199   9.300  19.397  0.00  0.00    +0.000 A 
ENDBRANCH  20  21
ENDBRANCH   1  19
TORSDOF 6
ENDMDL
