MODEL 1
REMARK VINA RESULT:      -9.6      0.000      0.000
REMARK  Name = 
REMARK  9 active torsions:
REMARK  status: ('A' for Active; 'I' for Inactive)
REMARK    1  A    between atoms: C_1  and  C_2
REMARK    2  A    between atoms: C_4  and  N_5
REMARK    3  A    between atoms: C_8  and  N_9
REMARK    4  A    between atoms: N_12  and  C_13
REMARK    5  A    between atoms: C_13  and  C_14
REMARK    6  A    between atoms: C_14  and  C_15
REMARK    7  A    between atoms: C_15  and  N_16
REMARK    8  A    between atoms: N_16  and  C_17
REMARK    9  A    between atoms: N_16  and  C_18
REMARK                            x       y       z     vdW  Elec       q    Type
REMARK                         _______ _______ _______ _____ _____    ______ ____
ROOT
ATOM      1  N   UNL     1       1.691   8.133  19.634  0.00  0.00    +0.000 N 
ATOM      2  C   UNL     1       1.260   8.941  20.710  0.00  0.00    +0.000 A 
ATOM      3  C   UNL     1       0.238   9.838  20.488  0.00  0.00    +0.000 A 
ATOM      4  C   UNL     1      -0.325  10.492  21.575  0.00  0.00    +0.000 A 
ATOM      5  N   UNL     1       0.110  10.265  22.822  0.00  0.00    +0.000 NA
ATOM      6  C   UNL     1       1.124   9.409  22.951  0.00  0.00    +0.000 A 
ATOM      7  N   UNL     1       1.723   8.745  21.956  0.00  0.00    +0.000 NA
ATOM      8  H   UNL     1       1.703   8.555  18.711  0.00  0.00    +0.000 HD
ENDROOT
BRANCH   1  12
ATOM      9  C   UNL     1       1.825   3.560  21.470  0.00  0.00    +0.000 C 
ATOM     10  C   UNL     1       2.418   4.549  20.514  0.00  0.00    +0.000 A 
ATOM     11  C   UNL     1       1.856   5.874  20.510  0.00  0.00    +0.000 A 
ATOM     12  C   UNL     1       2.264   6.869  19.700  0.00  0.00    +0.000 A 
ATOM     13  C   UNL     1       3.408   6.543  18.722  0.00  0.00    +0.000 A 
ATOM     14  O   UNL     1       3.818   7.410  17.950  0.00  0.00    +0.000 OA
ATOM     15  N   UNL     1       3.897   5.247  18.774  0.00  0.00    +0.000 N 
ATOM     16  C   UNL     1       3.405   4.299  19.648  0.00  0.00    +0.000 A 
ATOM     17  C   UNL     1       4.115   3.018  19.454  0.00  0.00    +0.000 C 
ATOM     18  O   UNL     1       3.954   1.970  20.035  0.00  0.00    +0.000 OA
ATOM     19  N   UNL     1       5.015   3.272  18.452  0.00  0.00    +0.000 N 
ATOM     20  C   UNL     1       4.975   4.638  17.952  0.00  0.00    +0.000 C 
ATOM     21  C   UNL     1       4.637   4.607  16.445  0.00  0.00    +0.000 C 
ATOM     22  C   UNL     1       5.759   3.970  15.611  0.00  0.00    +0.000 C 
ATOM     23  C   UNL     1       7.098   4.658  15.856  0.00  0.00    +0.000 C 
ATOM     24  C   UNL     1       7.457   4.653  17.339  0.00  0.00    +0.000 C 
ATOM     25  C   UNL     1       6.351   5.295  18.189  0.00  0.00    +0.000 C 
ATOM     26  H   UNL     1       5.633   2.538  18.125  0.00  0.00    +0.000 HD
ENDBRANCH   1  12
BRANCH   4  27
ATOM     27  N   UNL     1      -1.392  11.346  21.392  0.00  0.00    +0.000 N 
ATOM     28  C   UNL     1      -2.117  11.843  22.564  0.00  0.00    +0.000 C 
ATOM     29  C   UNL     1      -2.131  13.382  22.630  0.00  0.00    +0.000 C 
ATOM     30  N   UNL     1      -2.552  14.052  21.373  0.00  0.00    +0.000 NA
ATOM     31  C   UNL     1      -1.616  13.587  20.318  0.00  0.00    +0.000 C 
ATOM     32  C   UNL     1      -1.553  12.055  20.117  0.00  0.00    +0.000 C 
BRANCH  30  33
ATOM     33  C   UNL     1      -3.951  13.732  21.016  0.00  0.00    +0.000 C 
BRANCH  33  34
ATOM     34  C   UNL     1      -4.921  13.955  22.186  0.00  0.00    +0.000 C 
BRANCH  34  35
ATOM     35  C   UNL     1      -6.006  12.876  22.259  0.00  0.00    +0.000 C 
BRANCH  35  36
ATOM     36  N   UNL     1      -6.336  12.455  23.633  0.00  0.00    +0.000 NA
ATOM     37  C   UNL     1      -5.183  12.512  24.535  0.00  0.00    +0.000 C 
ATOM     38  C   UNL     1      -7.415  13.286  24.166  0.00  0.00    +0.000 C 
ENDBRANCH  35  36
ENDBRANCH  34  35
ENDBRANCH  33  34
ENDBRANCH  30  33
ENDBRANCH   4  27
TORSDOF 6
ENDMDL
MODEL 2
REMARK VINA RESULT:      -9.2      1.270      1.708
REMARK  Name = 
REMARK  9 active torsions:
REMARK  status: ('A' for Active; 'I' for Inactive)
REMARK    1  A    between atoms: C_1  and  C_2
REMARK    2  A    between atoms: C_4  and  N_5
REMARK    3  A    between atoms: C_8  and  N_9
REMARK    4  A    between atoms: N_12  and  C_13
REMARK    5  A    between atoms: C_13  and  C_14
REMARK    6  A    between atoms: C_14  and  C_15
REMARK    7  A    between atoms: C_15  and  N_16
REMARK    8  A    between atoms: N_16  and  C_17
REMARK    9  A    between atoms: N_16  and  C_18
REMARK                            x       y       z     vdW  Elec       q    Type
REMARK                         _______ _______ _______ _____ _____    ______ ____
ROOT
ATOM      1  N   UNL     1       1.599   7.964  19.706  0.00  0.00    +0.000 N 
ATOM      2  C   UNL     1       1.224   8.813  20.772  0.00  0.00    +0.000 A 
ATOM      3  C   UNL     1       0.136   9.640  20.601  0.00  0.00    +0.000 A 
ATOM      4  C   UNL     1      -0.359  10.328  21.700  0.00  0.00    +0.000 A 
ATOM      5  N   UNL     1       0.204  10.200  22.909  0.00  0.00    +0.000 NA
ATOM      6  C   UNL     1       1.273   9.408  22.986  0.00  0.00    +0.000 A 
ATOM      7  N   UNL     1       1.813   8.718  21.976  0.00  0.00    +0.000 NA
ATOM      8  H   UNL     1       1.498   8.330  18.764  0.00  0.00    +0.000 HD
ENDROOT
BRANCH   1  12
ATOM      9  C   UNL     1       2.053   3.456  21.646  0.00  0.00    +0.000 C 
ATOM     10  C   UNL     1       2.561   4.453  20.650  0.00  0.00    +0.000 A 
ATOM     11  C   UNL     1       1.921   5.742  20.630  0.00  0.00    +0.000 A 
ATOM     12  C   UNL     1       2.247   6.738  19.786  0.00  0.00    +0.000 A 
ATOM     13  C   UNL     1       3.382   6.455  18.784  0.00  0.00    +0.000 A 
ATOM     14  O   UNL     1       3.720   7.325  17.981  0.00  0.00    +0.000 OA
ATOM     15  N   UNL     1       3.949   5.192  18.853  0.00  0.00    +0.000 N 
ATOM     16  C   UNL     1       3.537   4.240  19.763  0.00  0.00    +0.000 A 
ATOM     17  C   UNL     1       4.317   2.998  19.580  0.00  0.00    +0.000 C 
ATOM     18  O   UNL     1       4.234   1.958  20.190  0.00  0.00    +0.000 OA
ATOM     19  N   UNL     1       5.174   3.279  18.547  0.00  0.00    +0.000 N 
ATOM     20  C   UNL     1       5.039   4.627  18.016  0.00  0.00    +0.000 C 
ATOM     21  C   UNL     1       4.664   4.538  16.521  0.00  0.00    +0.000 C 
ATOM     22  C   UNL     1       5.799   3.947  15.671  0.00  0.00    +0.000 C 
ATOM     23  C   UNL     1       7.101   4.719  15.862  0.00  0.00    +0.000 C 
ATOM     24  C   UNL     1       7.498   4.772  17.334  0.00  0.00    +0.000 C 
ATOM     25  C   UNL     1       6.379   5.370  18.199  0.00  0.00    +0.000 C 
ATOM     26  H   UNL     1       5.825   2.575  18.220  0.00  0.00    +0.000 HD
ENDBRANCH   1  12
BRANCH   4  27
ATOM     27  N   UNL     1      -1.486  11.113  21.574  0.00  0.00    +0.000 N 
ATOM     28  C   UNL     1      -1.982  11.842  22.745  0.00  0.00    +0.000 C 
ATOM     29  C   UNL     1      -2.065  13.359  22.491  0.00  0.00    +0.000 C 
ATOM     30  N   UNL     1      -2.772  13.740  21.242  0.00  0.00    +0.000 NA
ATOM     31  C   UNL     1      -2.048  13.070  20.132  0.00  0.00    +0.000 C 
ATOM     32  C   UNL     1      -1.944  11.531  20.245  0.00  0.00    +0.000 C 
BRANCH  30  33
ATOM     33  C   UNL     1      -4.195  13.338  21.264  0.00  0.00    +0.000 C 
BRANCH  33  34
ATOM     34  C   UNL     1      -5.073  14.241  20.385  0.00  0.00    +0.000 C 
BRANCH  34  35
ATOM     35  C   UNL     1      -5.744  13.471  19.243  0.00  0.00    +0.000 C 
BRANCH  35  36
ATOM     36  N   UNL     1      -5.717  12.007  19.416  0.00  0.00    +0.000 NA
ATOM     37  C   UNL     1      -7.030  11.453  19.758  0.00  0.00    +0.000 C 
ATOM     38  C   UNL     1      -5.220  11.368  18.197  0.00  0.00    +0.000 C 
ENDBRANCH  35  36
ENDBRANCH  34  35
ENDBRANCH  33  34
ENDBRANCH  30  33
ENDBRANCH   4  27
TORSDOF 6
ENDMDL
MODEL 3
REMARK VINA RESULT:      -9.0      1.010      1.229
REMARK  Name = 
REMARK  9 active torsions:
REMARK  status: ('A' for Active; 'I' for Inactive)
REMARK    1  A    between atoms: C_1  and  C_2
REMARK    2  A    between atoms: C_4  and  N_5
REMARK    3  A    between atoms: C_8  and  N_9
REMARK    4  A    between atoms: N_12  and  C_13
REMARK    5  A    between atoms: C_13  and  C_14
REMARK    6  A    between atoms: C_14  and  C_15
REMARK    7  A    between atoms: C_15  and  N_16
REMARK    8  A    between atoms: N_16  and  C_17
REMARK    9  A    between atoms: N_16  and  C_18
REMARK                            x       y       z     vdW  Elec       q    Type
REMARK                         _______ _______ _______ _____ _____    ______ ____
ROOT
ATOM      1  N   UNL     1       1.659   8.126  19.644  0.00  0.00    +0.000 N 
ATOM      2  C   UNL     1       1.240   8.932  20.726  0.00  0.00    +0.000 A 
ATOM      3  C   UNL     1       0.217   9.831  20.517  0.00  0.00    +0.000 A 
ATOM      4  C   UNL     1      -0.333  10.482  21.612  0.00  0.00    +0.000 A 
ATOM      5  N   UNL     1       0.115  10.252  22.854  0.00  0.00    +0.000 NA
ATOM      6  C   UNL     1       1.130   9.395  22.969  0.00  0.00    +0.000 A 
ATOM      7  N   UNL     1       1.717   8.733  21.967  0.00  0.00    +0.000 NA
ATOM      8  H   UNL     1       1.660   8.551  18.721  0.00  0.00    +0.000 HD
ENDROOT
BRANCH   1  12
ATOM      9  C   UNL     1       1.780   3.535  21.434  0.00  0.00    +0.000 C 
ATOM     10  C   UNL     1       2.380   4.533  20.492  0.00  0.00    +0.000 A 
ATOM     11  C   UNL     1       1.818   5.859  20.497  0.00  0.00    +0.000 A 
ATOM     12  C   UNL     1       2.231   6.861  19.701  0.00  0.00    +0.000 A 
ATOM     13  C   UNL     1       3.381   6.545  18.727  0.00  0.00    +0.000 A 
ATOM     14  O   UNL     1       3.797   7.420  17.966  0.00  0.00    +0.000 OA
ATOM     15  N   UNL     1       3.870   5.248  18.768  0.00  0.00    +0.000 N 
ATOM     16  C   UNL     1       3.371   4.292  19.629  0.00  0.00    +0.000 A 
ATOM     17  C   UNL     1       4.083   3.013  19.427  0.00  0.00    +0.000 C 
ATOM     18  O   UNL     1       3.918   1.959  19.996  0.00  0.00    +0.000 OA
ATOM     19  N   UNL     1       4.990   3.276  18.433  0.00  0.00    +0.000 N 
ATOM     20  C   UNL     1       4.953   4.648  17.947  0.00  0.00    +0.000 C 
ATOM     21  C   UNL     1       4.625   4.632  16.439  0.00  0.00    +0.000 C 
ATOM     22  C   UNL     1       5.752   4.004  15.605  0.00  0.00    +0.000 C 
ATOM     23  C   UNL     1       7.090   4.689  15.866  0.00  0.00    +0.000 C 
ATOM     24  C   UNL     1       7.439   4.668  17.351  0.00  0.00    +0.000 C 
ATOM     25  C   UNL     1       6.328   5.302  18.200  0.00  0.00    +0.000 C 
ATOM     26  H   UNL     1       5.609   2.546  18.103  0.00  0.00    +0.000 HD
ENDBRANCH   1  12
BRANCH   4  27
ATOM     27  N   UNL     1      -1.401  11.338  21.443  0.00  0.00    +0.000 N 
ATOM     28  C   UNL     1      -2.039  11.926  22.624  0.00  0.00    +0.000 C 
ATOM     29  C   UNL     1      -2.031  13.466  22.583  0.00  0.00    +0.000 C 
ATOM     30  N   UNL     1      -2.531  14.054  21.314  0.00  0.00    +0.000 NA
ATOM     31  C   UNL     1      -1.675  13.504  20.233  0.00  0.00    +0.000 C 
ATOM     32  C   UNL     1      -1.642  11.960  20.136  0.00  0.00    +0.000 C 
BRANCH  30  33
ATOM     33  C   UNL     1      -3.955  13.732  21.076  0.00  0.00    +0.000 C 
BRANCH  33  34
ATOM     34  C   UNL     1      -4.869  14.251  22.196  0.00  0.00    +0.000 C 
BRANCH  34  35
ATOM     35  C   UNL     1      -4.785  15.772  22.362  0.00  0.00    +0.000 C 
BRANCH  35  36
ATOM     36  N   UNL     1      -5.615  16.298  23.461  0.00  0.00    +0.000 NA
ATOM     37  C   UNL     1      -6.703  15.390  23.833  0.00  0.00    +0.000 C 
ATOM     38  C   UNL     1      -4.782  16.567  24.633  0.00  0.00    +0.000 C 
ENDBRANCH  35  36
ENDBRANCH  34  35
ENDBRANCH  33  34
ENDBRANCH  30  33
ENDBRANCH   4  27
TORSDOF 6
ENDMDL
MODEL 4
REMARK VINA RESULT:      -9.0      0.926      1.255
REMARK  Name = 
REMARK  9 active torsions:
REMARK  status: ('A' for Active; 'I' for Inactive)
REMARK    1  A    between atoms: C_1  and  C_2
REMARK    2  A    between atoms: C_4  and  N_5
REMARK    3  A    between atoms: C_8  and  N_9
REMARK    4  A    between atoms: N_12  and  C_13
REMARK    5  A    between atoms: C_13  and  C_14
REMARK    6  A    between atoms: C_14  and  C_15
REMARK    7  A    between atoms: C_15  and  N_16
REMARK    8  A    between atoms: N_16  and  C_17
REMARK    9  A    between atoms: N_16  and  C_18
REMARK                            x       y       z     vdW  Elec       q    Type
REMARK                         _______ _______ _______ _____ _____    ______ ____
ROOT
ATOM      1  N   UNL     1       1.611   7.948  19.712  0.00  0.00    +0.000 N 
ATOM      2  C   UNL     1       1.287   8.819  20.776  0.00  0.00    +0.000 A 
ATOM      3  C   UNL     1       0.216   9.673  20.623  0.00  0.00    +0.000 A 
ATOM      4  C   UNL     1      -0.231  10.387  21.725  0.00  0.00    +0.000 A 
ATOM      5  N   UNL     1       0.361  10.261  22.920  0.00  0.00    +0.000 NA
ATOM      6  C   UNL     1       1.411   9.442  22.980  0.00  0.00    +0.000 A 
ATOM      7  N   UNL     1       1.906   8.725  21.965  0.00  0.00    +0.000 NA
ATOM      8  H   UNL     1       1.495   8.304  18.768  0.00  0.00    +0.000 HD
ENDROOT
BRANCH   1  12
ATOM      9  C   UNL     1       1.901   3.397  21.584  0.00  0.00    +0.000 C 
ATOM     10  C   UNL     1       2.464   4.400  20.625  0.00  0.00    +0.000 A 
ATOM     11  C   UNL     1       1.854   5.703  20.606  0.00  0.00    +0.000 A 
ATOM     12  C   UNL     1       2.229   6.706  19.792  0.00  0.00    +0.000 A 
ATOM     13  C   UNL     1       3.392   6.416  18.824  0.00  0.00    +0.000 A 
ATOM     14  O   UNL     1       3.775   7.292  18.048  0.00  0.00    +0.000 OA
ATOM     15  N   UNL     1       3.928   5.139  18.889  0.00  0.00    +0.000 N 
ATOM     16  C   UNL     1       3.465   4.180  19.767  0.00  0.00    +0.000 A 
ATOM     17  C   UNL     1       4.224   2.925  19.587  0.00  0.00    +0.000 C 
ATOM     18  O   UNL     1       4.098   1.876  20.175  0.00  0.00    +0.000 OA
ATOM     19  N   UNL     1       5.121   3.205  18.589  0.00  0.00    +0.000 N 
ATOM     20  C   UNL     1       5.034   4.565  18.079  0.00  0.00    +0.000 C 
ATOM     21  C   UNL     1       4.708   4.510  16.570  0.00  0.00    +0.000 C 
ATOM     22  C   UNL     1       5.858   3.909  15.748  0.00  0.00    +0.000 C 
ATOM     23  C   UNL     1       7.169   4.648  15.997  0.00  0.00    +0.000 C 
ATOM     24  C   UNL     1       7.517   4.667  17.482  0.00  0.00    +0.000 C 
ATOM     25  C   UNL     1       6.383   5.275  18.320  0.00  0.00    +0.000 C 
ATOM     26  H   UNL     1       5.768   2.493  18.272  0.00  0.00    +0.000 HD
ENDBRANCH   1  12
BRANCH   4  27
ATOM     27  N   UNL     1      -1.341  11.199  21.619  0.00  0.00    +0.000 N 
ATOM     28  C   UNL     1      -1.970  11.710  22.839  0.00  0.00    +0.000 C 
ATOM     29  C   UNL     1      -2.033  13.249  22.861  0.00  0.00    +0.000 C 
ATOM     30  N   UNL     1      -2.594  13.863  21.631  0.00  0.00    +0.000 NA
ATOM     31  C   UNL     1      -1.745  13.396  20.506  0.00  0.00    +0.000 C 
ATOM     32  C   UNL     1      -1.646  11.861  20.345  0.00  0.00    +0.000 C 
BRANCH  30  33
ATOM     33  C   UNL     1      -4.008  13.486  21.417  0.00  0.00    +0.000 C 
BRANCH  33  34
ATOM     34  C   UNL     1      -4.921  13.962  22.557  0.00  0.00    +0.000 C 
BRANCH  34  35
ATOM     35  C   UNL     1      -6.294  14.419  22.055  0.00  0.00    +0.000 C 
BRANCH  35  36
ATOM     36  N   UNL     1      -6.638  13.909  20.715  0.00  0.00    +0.000 NA
ATOM     37  C   UNL     1      -7.623  12.826  20.757  0.00  0.00    +0.000 C 
ATOM     38  C   UNL     1      -7.145  14.998  19.880  0.00  0.00    +0.000 C 
ENDBRANCH  35  36
ENDBRANCH  34  35
ENDBRANCH  33  34
ENDBRANCH  30  33
ENDBRANCH   4  27
TORSDOF 6
ENDMDL
MODEL 5
REMARK VINA RESULT:      -8.8      1.209      1.692
REMARK  Name = 
REMARK  9 active torsions:
REMARK  status: ('A' for Active; 'I' for Inactive)
REMARK    1  A    between atoms: C_1  and  C_2
REMARK    2  A    between atoms: C_4  and  N_5
REMARK    3  A    between atoms: C_8  and  N_9
REMARK    4  A    between atoms: N_12  and  C_13
REMARK    5  A    between atoms: C_13  and  C_14
REMARK    6  A    between atoms: C_14  and  C_15
REMARK    7  A    between atoms: C_15  and  N_16
REMARK    8  A    between atoms: N_16  and  C_17
REMARK    9  A    between atoms: N_16  and  C_18
REMARK                            x       y       z     vdW  Elec       q    Type
REMARK                         _______ _______ _______ _____ _____    ______ ____
ROOT
ATOM      1  N   UNL     1       1.679   8.132  19.658  0.00  0.00    +0.000 N 
ATOM      2  C   UNL     1       1.245   8.934  20.737  0.00  0.00    +0.000 A 
ATOM      3  C   UNL     1       0.226   9.835  20.517  0.00  0.00    +0.000 A 
ATOM      4  C   UNL     1      -0.340  10.483  21.607  0.00  0.00    +0.000 A 
ATOM      5  N   UNL     1       0.090  10.247  22.854  0.00  0.00    +0.000 NA
ATOM      6  C   UNL     1       1.102   9.388  22.981  0.00  0.00    +0.000 A 
ATOM      7  N   UNL     1       1.703   8.730  21.984  0.00  0.00    +0.000 NA
ATOM      8  H   UNL     1       1.694   8.560  18.738  0.00  0.00    +0.000 HD
ENDROOT
BRANCH   1  12
ATOM      9  C   UNL     1       1.798   3.549  21.470  0.00  0.00    +0.000 C 
ATOM     10  C   UNL     1       2.396   4.542  20.520  0.00  0.00    +0.000 A 
ATOM     11  C   UNL     1       1.837   5.868  20.522  0.00  0.00    +0.000 A 
ATOM     12  C   UNL     1       2.248   6.866  19.719  0.00  0.00    +0.000 A 
ATOM     13  C   UNL     1       3.393   6.542  18.741  0.00  0.00    +0.000 A 
ATOM     14  O   UNL     1       3.807   7.413  17.974  0.00  0.00    +0.000 OA
ATOM     15  N   UNL     1       3.880   5.245  18.786  0.00  0.00    +0.000 N 
ATOM     16  C   UNL     1       3.383   4.294  19.654  0.00  0.00    +0.000 A 
ATOM     17  C   UNL     1       4.091   3.012  19.454  0.00  0.00    +0.000 C 
ATOM     18  O   UNL     1       3.926   1.962  20.029  0.00  0.00    +0.000 OA
ATOM     19  N   UNL     1       4.993   3.269  18.455  0.00  0.00    +0.000 N 
ATOM     20  C   UNL     1       4.957   4.638  17.963  0.00  0.00    +0.000 C 
ATOM     21  C   UNL     1       4.623   4.616  16.456  0.00  0.00    +0.000 C 
ATOM     22  C   UNL     1       5.744   3.981  15.620  0.00  0.00    +0.000 C 
ATOM     23  C   UNL     1       7.084   4.665  15.871  0.00  0.00    +0.000 C 
ATOM     24  C   UNL     1       7.440   4.651  17.354  0.00  0.00    +0.000 C 
ATOM     25  C   UNL     1       6.335   5.291  18.206  0.00  0.00    +0.000 C 
ATOM     26  H   UNL     1       5.610   2.536  18.125  0.00  0.00    +0.000 HD
ENDBRANCH   1  12
BRANCH   4  27
ATOM     27  N   UNL     1      -1.404  11.341  21.425  0.00  0.00    +0.000 N 
ATOM     28  C   UNL     1      -2.036  11.951  22.597  0.00  0.00    +0.000 C 
ATOM     29  C   UNL     1      -2.022  13.490  22.531  0.00  0.00    +0.000 C 
ATOM     30  N   UNL     1      -2.522  14.059  21.253  0.00  0.00    +0.000 NA
ATOM     31  C   UNL     1      -1.670  13.487  20.180  0.00  0.00    +0.000 C 
ATOM     32  C   UNL     1      -1.644  11.942  20.108  0.00  0.00    +0.000 C 
BRANCH  30  33
ATOM     33  C   UNL     1      -3.947  13.740  21.023  0.00  0.00    +0.000 C 
BRANCH  33  34
ATOM     34  C   UNL     1      -4.887  14.601  21.880  0.00  0.00    +0.000 C 
BRANCH  34  35
ATOM     35  C   UNL     1      -4.564  16.096  21.778  0.00  0.00    +0.000 C 
BRANCH  35  36
ATOM     36  N   UNL     1      -5.575  16.875  21.041  0.00  0.00    +0.000 NA
ATOM     37  C   UNL     1      -5.223  17.070  19.632  0.00  0.00    +0.000 C 
ATOM     38  C   UNL     1      -6.878  16.217  21.132  0.00  0.00    +0.000 C 
ENDBRANCH  35  36
ENDBRANCH  34  35
ENDBRANCH  33  34
ENDBRANCH  30  33
ENDBRANCH   4  27
TORSDOF 6
ENDMDL
MODEL 6
REMARK VINA RESULT:      -8.4      1.124      1.608
REMARK  Name = 
REMARK  9 active torsions:
REMARK  status: ('A' for Active; 'I' for Inactive)
REMARK    1  A    between atoms: C_1  and  C_2
REMARK    2  A    between atoms: C_4  and  N_5
REMARK    3  A    between atoms: C_8  and  N_9
REMARK    4  A    between atoms: N_12  and  C_13
REMARK    5  A    between atoms: C_13  and  C_14
REMARK    6  A    between atoms: C_14  and  C_15
REMARK    7  A    between atoms: C_15  and  N_16
REMARK    8  A    between atoms: N_16  and  C_17
REMARK    9  A    between atoms: N_16  and  C_18
REMARK                            x       y       z     vdW  Elec       q    Type
REMARK                         _______ _______ _______ _____ _____    ______ ____
ROOT
ATOM      1  N   UNL     1       1.852   8.453  19.622  0.00  0.00    +0.000 N 
ATOM      2  C   UNL     1       1.339   9.174  20.724  0.00  0.00    +0.000 A 
ATOM      3  C   UNL     1       0.493  10.234  20.477  0.00  0.00    +0.000 A 
ATOM      4  C   UNL     1      -0.171  10.821  21.546  0.00  0.00    +0.000 A 
ATOM      5  N   UNL     1       0.002  10.376  22.798  0.00  0.00    +0.000 NA
ATOM      6  C   UNL     1       0.862   9.370  22.958  0.00  0.00    +0.000 A 
ATOM      7  N   UNL     1       1.543   8.756  21.984  0.00  0.00    +0.000 NA
ATOM      8  H   UNL     1       2.081   8.983  18.787  0.00  0.00    +0.000 HD
ENDROOT
BRANCH   1  12
ATOM      9  C   UNL     1       1.208   3.748  20.942  0.00  0.00    +0.000 C 
ATOM     10  C   UNL     1       2.012   4.733  20.149  0.00  0.00    +0.000 A 
ATOM     11  C   UNL     1       1.635   6.118  20.251  0.00  0.00    +0.000 A 
ATOM     12  C   UNL     1       2.242   7.120  19.589  0.00  0.00    +0.000 A 
ATOM     13  C   UNL     1       3.414   6.734  18.667  0.00  0.00    +0.000 A 
ATOM     14  O   UNL     1       4.004   7.606  18.029  0.00  0.00    +0.000 OA
ATOM     15  N   UNL     1       3.719   5.383  18.610  0.00  0.00    +0.000 N 
ATOM     16  C   UNL     1       3.028   4.432  19.335  0.00  0.00    +0.000 A 
ATOM     17  C   UNL     1       3.574   3.089  19.052  0.00  0.00    +0.000 C 
ATOM     18  O   UNL     1       3.224   2.022  19.499  0.00  0.00    +0.000 OA
ATOM     19  N   UNL     1       4.586   3.311  18.154  0.00  0.00    +0.000 N 
ATOM     20  C   UNL     1       4.773   4.712  17.808  0.00  0.00    +0.000 C 
ATOM     21  C   UNL     1       4.569   4.880  16.286  0.00  0.00    +0.000 C 
ATOM     22  C   UNL     1       5.665   4.176  15.471  0.00  0.00    +0.000 C 
ATOM     23  C   UNL     1       7.057   4.638  15.889  0.00  0.00    +0.000 C 
ATOM     24  C   UNL     1       7.279   4.433  17.384  0.00  0.00    +0.000 C 
ATOM     25  C   UNL     1       6.199   5.139  18.217  0.00  0.00    +0.000 C 
ATOM     26  H   UNL     1       5.126   2.533  17.793  0.00  0.00    +0.000 HD
ENDBRANCH   1  12
BRANCH   4  27
ATOM     27  N   UNL     1      -1.073  11.840  21.324  0.00  0.00    +0.000 N 
ATOM     28  C   UNL     1      -1.513  12.117  19.954  0.00  0.00    +0.000 C 
ATOM     29  C   UNL     1      -3.043  12.022  19.805  0.00  0.00    +0.000 C 
ATOM     30  N   UNL     1      -3.813  12.790  20.817  0.00  0.00    +0.000 NA
ATOM     31  C   UNL     1      -3.390  12.274  22.143  0.00  0.00    +0.000 C 
ATOM     32  C   UNL     1      -1.873  12.365  22.435  0.00  0.00    +0.000 C 
BRANCH  30  33
ATOM     33  C   UNL     1      -3.568  14.245  20.713  0.00  0.00    +0.000 C 
BRANCH  33  34
ATOM     34  C   UNL     1      -4.746  15.076  21.244  0.00  0.00    +0.000 C 
BRANCH  34  35
ATOM     35  C   UNL     1      -4.314  16.082  22.317  0.00  0.00    +0.000 C 
BRANCH  35  36
ATOM     36  N   UNL     1      -4.761  15.729  23.677  0.00  0.00    +0.000 NA
ATOM     37  C   UNL     1      -5.879  14.782  23.678  0.00  0.00    +0.000 C 
ATOM     38  C   UNL     1      -3.646  15.169  24.440  0.00  0.00    +0.000 C 
ENDBRANCH  35  36
ENDBRANCH  34  35
ENDBRANCH  33  34
ENDBRANCH  30  33
ENDBRANCH   4  27
TORSDOF 6
ENDMDL
MODEL 7
REMARK VINA RESULT:      -8.3      1.354      1.858
REMARK  Name = 
REMARK  9 active torsions:
REMARK  status: ('A' for Active; 'I' for Inactive)
REMARK    1  A    between atoms: C_1  and  C_2
REMARK    2  A    between atoms: C_4  and  N_5
REMARK    3  A    between atoms: C_8  and  N_9
REMARK    4  A    between atoms: N_12  and  C_13
REMARK    5  A    between atoms: C_13  and  C_14
REMARK    6  A    between atoms: C_14  and  C_15
REMARK    7  A    between atoms: C_15  and  N_16
REMARK    8  A    between atoms: N_16  and  C_17
REMARK    9  A    between atoms: N_16  and  C_18
REMARK                            x       y       z     vdW  Elec       q    Type
REMARK                         _______ _______ _______ _____ _____    ______ ____
ROOT
ATOM      1  N   UNL     1       1.832   8.445  19.483  0.00  0.00    +0.000 N 
ATOM      2  C   UNL     1       1.358   9.187  20.588  0.00  0.00    +0.000 A 
ATOM      3  C   UNL     1       0.488  10.230  20.353  0.00  0.00    +0.000 A 
ATOM      4  C   UNL     1      -0.135  10.836  21.435  0.00  0.00    +0.000 A 
ATOM      5  N   UNL     1       0.097  10.425  22.688  0.00  0.00    +0.000 NA
ATOM      6  C   UNL     1       0.976   9.434  22.836  0.00  0.00    +0.000 A 
ATOM      7  N   UNL     1       1.622   8.804  21.848  0.00  0.00    +0.000 NA
ATOM      8  H   UNL     1       2.018   8.956  18.625  0.00  0.00    +0.000 HD
ENDROOT
BRANCH   1  12
ATOM      9  C   UNL     1       1.239   3.748  20.855  0.00  0.00    +0.000 C 
ATOM     10  C   UNL     1       2.033   4.733  20.052  0.00  0.00    +0.000 A 
ATOM     11  C   UNL     1       1.640   6.115  20.137  0.00  0.00    +0.000 A 
ATOM     12  C   UNL     1       2.237   7.116  19.466  0.00  0.00    +0.000 A 
ATOM     13  C   UNL     1       3.415   6.733  18.551  0.00  0.00    +0.000 A 
ATOM     14  O   UNL     1       3.996   7.605  17.904  0.00  0.00    +0.000 OA
ATOM     15  N   UNL     1       3.735   5.385  18.509  0.00  0.00    +0.000 N 
ATOM     16  C   UNL     1       3.054   4.435  19.243  0.00  0.00    +0.000 A 
ATOM     17  C   UNL     1       3.616   3.095  18.977  0.00  0.00    +0.000 C 
ATOM     18  O   UNL     1       3.277   2.029  19.435  0.00  0.00    +0.000 OA
ATOM     19  N   UNL     1       4.627   3.318  18.078  0.00  0.00    +0.000 N 
ATOM     20  C   UNL     1       4.799   4.717  17.716  0.00  0.00    +0.000 C 
ATOM     21  C   UNL     1       4.597   4.866  16.193  0.00  0.00    +0.000 C 
ATOM     22  C   UNL     1       5.702   4.165  15.387  0.00  0.00    +0.000 C 
ATOM     23  C   UNL     1       7.087   4.648  15.803  0.00  0.00    +0.000 C 
ATOM     24  C   UNL     1       7.309   4.462  17.301  0.00  0.00    +0.000 C 
ATOM     25  C   UNL     1       6.219   5.165  18.123  0.00  0.00    +0.000 C 
ATOM     26  H   UNL     1       5.177   2.542  17.727  0.00  0.00    +0.000 HD
ENDBRANCH   1  12
BRANCH   4  27
ATOM     27  N   UNL     1      -1.059  11.839  21.227  0.00  0.00    +0.000 N 
ATOM     28  C   UNL     1      -1.618  12.027  19.886  0.00  0.00    +0.000 C 
ATOM     29  C   UNL     1      -3.155  11.922  19.877  0.00  0.00    +0.000 C 
ATOM     30  N   UNL     1      -3.838  12.754  20.900  0.00  0.00    +0.000 NA
ATOM     31  C   UNL     1      -3.299  12.324  22.215  0.00  0.00    +0.000 C 
ATOM     32  C   UNL     1      -1.763  12.435  22.368  0.00  0.00    +0.000 C 
BRANCH  30  33
ATOM     33  C   UNL     1      -3.612  14.199  20.683  0.00  0.00    +0.000 C 
BRANCH  33  34
ATOM     34  C   UNL     1      -4.848  15.044  21.026  0.00  0.00    +0.000 C 
BRANCH  34  35
ATOM     35  C   UNL     1      -6.148  14.235  20.954  0.00  0.00    +0.000 C 
BRANCH  35  36
ATOM     36  N   UNL     1      -6.733  14.168  19.602  0.00  0.00    +0.000 NA
ATOM     37  C   UNL     1      -7.311  12.856  19.299  0.00  0.00    +0.000 C 
ATOM     38  C   UNL     1      -7.758  15.200  19.449  0.00  0.00    +0.000 C 
ENDBRANCH  35  36
ENDBRANCH  34  35
ENDBRANCH  33  34
ENDBRANCH  30  33
ENDBRANCH   4  27
TORSDOF 6
ENDMDL
MODEL 8
REMARK VINA RESULT:      -8.2      3.848     11.271
REMARK  Name = 
REMARK  9 active torsions:
REMARK  status: ('A' for Active; 'I' for Inactive)
REMARK    1  A    between atoms: C_1  and  C_2
REMARK    2  A    between atoms: C_4  and  N_5
REMARK    3  A    between atoms: C_8  and  N_9
REMARK    4  A    between atoms: N_12  and  C_13
REMARK    5  A    between atoms: C_13  and  C_14
REMARK    6  A    between atoms: C_14  and  C_15
REMARK    7  A    between atoms: C_15  and  N_16
REMARK    8  A    between atoms: N_16  and  C_17
REMARK    9  A    between atoms: N_16  and  C_18
REMARK                            x       y       z     vdW  Elec       q    Type
REMARK                         _______ _______ _______ _____ _____    ______ ____
ROOT
ATOM      1  N   UNL     1       0.993  10.294  17.948  0.00  0.00    +0.000 N 
ATOM      2  C   UNL     1       1.363   9.107  18.620  0.00  0.00    +0.000 A 
ATOM      3  C   UNL     1       2.108   8.171  17.935  0.00  0.00    +0.000 A 
ATOM      4  C   UNL     1       2.642   7.100  18.638  0.00  0.00    +0.000 A 
ATOM      5  N   UNL     1       2.442   6.966  19.956  0.00  0.00    +0.000 NA
ATOM      6  C   UNL     1       1.683   7.893  20.539  0.00  0.00    +0.000 A 
ATOM      7  N   UNL     1       1.129   8.949  19.933  0.00  0.00    +0.000 NA
ATOM      8  H   UNL     1       0.761  10.217  16.963  0.00  0.00    +0.000 HD
ENDROOT
BRANCH   1  12
ATOM      9  C   UNL     1      -1.958  13.425  20.353  0.00  0.00    +0.000 C 
ATOM     10  C   UNL     1      -0.616  13.189  19.729  0.00  0.00    +0.000 A 
ATOM     11  C   UNL     1      -0.404  11.915  19.095  0.00  0.00    +0.000 A 
ATOM     12  C   UNL     1       0.747  11.542  18.507  0.00  0.00    +0.000 A 
ATOM     13  C   UNL     1       1.900  12.563  18.528  0.00  0.00    +0.000 A 
ATOM     14  O   UNL     1       2.981  12.276  18.014  0.00  0.00    +0.000 OA
ATOM     15  N   UNL     1       1.630  13.766  19.162  0.00  0.00    +0.000 N 
ATOM     16  C   UNL     1       0.407  14.048  19.736  0.00  0.00    +0.000 A 
ATOM     17  C   UNL     1       0.435  15.395  20.342  0.00  0.00    +0.000 C 
ATOM     18  O   UNL     1      -0.448  15.976  20.930  0.00  0.00    +0.000 OA
ATOM     19  N   UNL     1       1.700  15.859  20.094  0.00  0.00    +0.000 N 
ATOM     20  C   UNL     1       2.538  14.927  19.355  0.00  0.00    +0.000 C 
ATOM     21  C   UNL     1       3.777  14.585  20.210  0.00  0.00    +0.000 C 
ATOM     22  C   UNL     1       4.702  15.796  20.404  0.00  0.00    +0.000 C 
ATOM     23  C   UNL     1       5.113  16.406  19.068  0.00  0.00    +0.000 C 
ATOM     24  C   UNL     1       3.891  16.786  18.237  0.00  0.00    +0.000 C 
ATOM     25  C   UNL     1       2.959  15.584  18.023  0.00  0.00    +0.000 C 
ATOM     26  H   UNL     1       1.978  16.778  20.417  0.00  0.00    +0.000 HD
ENDBRANCH   1  12
BRANCH   4  27
ATOM     27  N   UNL     1       3.445   6.182  17.994  0.00  0.00    +0.000 N 
ATOM     28  C   UNL     1       4.340   6.642  16.928  0.00  0.00    +0.000 C 
ATOM     29  C   UNL     1       5.813   6.295  17.216  0.00  0.00    +0.000 C 
ATOM     30  N   UNL     1       6.053   4.877  17.589  0.00  0.00    +0.000 NA
ATOM     31  C   UNL     1       5.217   4.614  18.787  0.00  0.00    +0.000 C 
ATOM     32  C   UNL     1       3.702   4.874  18.607  0.00  0.00    +0.000 C 
BRANCH  30  33
ATOM     33  C   UNL     1       5.712   3.948  16.491  0.00  0.00    +0.000 C 
BRANCH  33  34
ATOM     34  C   UNL     1       6.505   4.239  15.208  0.00  0.00    +0.000 C 
BRANCH  34  35
ATOM     35  C   UNL     1       5.608   4.307  13.968  0.00  0.00    +0.000 C 
BRANCH  35  36
ATOM     36  N   UNL     1       6.087   3.488  12.840  0.00  0.00    +0.000 NA
ATOM     37  C   UNL     1       5.026   3.165  11.883  0.00  0.00    +0.000 C 
ATOM     38  C   UNL     1       7.176   4.178  12.148  0.00  0.00    +0.000 C 
ENDBRANCH  35  36
ENDBRANCH  34  35
ENDBRANCH  33  34
ENDBRANCH  30  33
ENDBRANCH   4  27
TORSDOF 6
ENDMDL
MODEL 9
REMARK VINA RESULT:      -8.1      2.947     11.681
REMARK  Name = 
REMARK  9 active torsions:
REMARK  status: ('A' for Active; 'I' for Inactive)
REMARK    1  A    between atoms: C_1  and  C_2
REMARK    2  A    between atoms: C_4  and  N_5
REMARK    3  A    between atoms: C_8  and  N_9
REMARK    4  A    between atoms: N_12  and  C_13
REMARK    5  A    between atoms: C_13  and  C_14
REMARK    6  A    between atoms: C_14  and  C_15
REMARK    7  A    between atoms: C_15  and  N_16
REMARK    8  A    between atoms: N_16  and  C_17
REMARK    9  A    between atoms: N_16  and  C_18
REMARK                            x       y       z     vdW  Elec       q    Type
REMARK                         _______ _______ _______ _____ _____    ______ ____
ROOT
ATOM      1  N   UNL     1       1.433  10.123  18.034  0.00  0.00    +0.000 N 
ATOM      2  C   UNL     1       1.738   8.863  18.596  0.00  0.00    +0.000 A 
ATOM      3  C   UNL     1       2.494   7.980  17.856  0.00  0.00    +0.000 A 
ATOM      4  C   UNL     1       2.966   6.827  18.468  0.00  0.00    +0.000 A 
ATOM      5  N   UNL     1       2.695   6.565  19.754  0.00  0.00    +0.000 NA
ATOM      6  C   UNL     1       1.930   7.450  20.393  0.00  0.00    +0.000 A 
ATOM      7  N   UNL     1       1.433   8.578  19.874  0.00  0.00    +0.000 NA
ATOM      8  H   UNL     1       1.249  10.154  17.036  0.00  0.00    +0.000 HD
ENDROOT
BRANCH   1  12
ATOM      9  C   UNL     1       2.670  14.758  19.168  0.00  0.00    +0.000 C 
ATOM     10  C   UNL     1       1.677  13.647  19.326  0.00  0.00    +0.000 A 
ATOM     11  C   UNL     1       1.983  12.398  18.678  0.00  0.00    +0.000 A 
ATOM     12  C   UNL     1       1.188  11.313  18.707  0.00  0.00    +0.000 A 
ATOM     13  C   UNL     1      -0.131  11.440  19.492  0.00  0.00    +0.000 A 
ATOM     14  O   UNL     1      -0.904  10.483  19.549  0.00  0.00    +0.000 OA
ATOM     15  N   UNL     1      -0.366  12.671  20.085  0.00  0.00    +0.000 N 
ATOM     16  C   UNL     1       0.521  13.724  19.992  0.00  0.00    +0.000 A 
ATOM     17  C   UNL     1      -0.015  14.898  20.711  0.00  0.00    +0.000 C 
ATOM     18  O   UNL     1       0.481  15.993  20.843  0.00  0.00    +0.000 OA
ATOM     19  N   UNL     1      -1.221  14.478  21.207  0.00  0.00    +0.000 N 
ATOM     20  C   UNL     1      -1.545  13.096  20.884  0.00  0.00    +0.000 C 
ATOM     21  C   UNL     1      -2.860  13.069  20.077  0.00  0.00    +0.000 C 
ATOM     22  C   UNL     1      -4.067  13.516  20.915  0.00  0.00    +0.000 C 
ATOM     23  C   UNL     1      -4.195  12.694  22.194  0.00  0.00    +0.000 C 
ATOM     24  C   UNL     1      -2.912  12.753  23.017  0.00  0.00    +0.000 C 
ATOM     25  C   UNL     1      -1.695  12.300  22.198  0.00  0.00    +0.000 C 
ATOM     26  H   UNL     1      -1.799  15.111  21.747  0.00  0.00    +0.000 HD
ENDBRANCH   1  12
BRANCH   4  27
ATOM     27  N   UNL     1       3.778   5.958  17.772  0.00  0.00    +0.000 N 
ATOM     28  C   UNL     1       4.683   6.490  16.750  0.00  0.00    +0.000 C 
ATOM     29  C   UNL     1       6.154   6.128  17.028  0.00  0.00    +0.000 C 
ATOM     30  N   UNL     1       6.394   4.689  17.308  0.00  0.00    +0.000 NA
ATOM     31  C   UNL     1       5.546   4.343  18.476  0.00  0.00    +0.000 C 
ATOM     32  C   UNL     1       4.033   4.612  18.298  0.00  0.00    +0.000 C 
BRANCH  30  33
ATOM     33  C   UNL     1       6.067   3.835  16.146  0.00  0.00    +0.000 C 
BRANCH  33  34
ATOM     34  C   UNL     1       6.577   4.425  14.822  0.00  0.00    +0.000 C 
BRANCH  34  35
ATOM     35  C   UNL     1       5.570   4.255  13.680  0.00  0.00    +0.000 C 
BRANCH  35  36
ATOM     36  N   UNL     1       6.049   3.388  12.588  0.00  0.00    +0.000 NA
ATOM     37  C   UNL     1       4.976   2.975  11.681  0.00  0.00    +0.000 C 
ATOM     38  C   UNL     1       7.094   4.073  11.828  0.00  0.00    +0.000 C 
ENDBRANCH  35  36
ENDBRANCH  34  35
ENDBRANCH  33  34
ENDBRANCH  30  33
ENDBRANCH   4  27
TORSDOF 6
ENDMDL
