MODEL 1
REMARK VINA RESULT:      -4.5      0.000      0.000
REMARK  Name = 
REMARK  5 active torsions:
REMARK  status: ('A' for Active; 'I' for Inactive)
REMARK    1  A    between atoms: C_2  and  O_4
REMARK    2  A    between atoms: O_4  and  C_5
REMARK    3  A    between atoms: C_5  and  C_6
REMARK    4  A    between atoms: C_6  and  O_7
REMARK    5  A    between atoms: O_7  and  C_8
REMARK                            x       y       z     vdW  Elec       q    Type
REMARK                         _______ _______ _______ _____ _____    ______ ____
ROOT
ATOM      1  C   UNL     1       5.441   5.111  19.128  0.00  0.00    +0.000 C 
ENDROOT
BRANCH   1   2
ATOM      2  O   UNL     1       6.863   4.892  19.163  0.00  0.00    +0.000 OA
BRANCH   2   4
ATOM      3  O   UNL     1       8.028   4.373  17.281  0.00  0.00    +0.000 OA
ATOM      4  C   UNL     1       7.549   5.222  18.027  0.00  0.00    +0.000 C 
ATOM      5 CL   UNL     1       7.644   6.939  17.777  0.00  0.00    +0.000 Cl
ENDBRANCH   2   4
ENDBRANCH   1   2
BRANCH   1   6
ATOM      6  C   UNL     1       4.715   3.889  18.560  0.00  0.00    +0.000 C 
BRANCH   6   7
ATOM      7  O   UNL     1       3.587   3.538  19.382  0.00  0.00    +0.000 OA
BRANCH   7   8
ATOM      8  C   UNL     1       3.833   2.634  20.380  0.00  0.00    +0.000 C 
ATOM      9  O   UNL     1       4.846   1.942  20.397  0.00  0.00    +0.000 OA
ATOM     10 CL   UNL     1       2.585   2.597  21.588  0.00  0.00    +0.000 Cl
ENDBRANCH   7   8
ENDBRANCH   6   7
ENDBRANCH   1   6
TORSDOF 5
ENDMDL
MODEL 2
REMARK VINA RESULT:      -4.4      1.761      2.256
REMARK  Name = 
REMARK  5 active torsions:
REMARK  status: ('A' for Active; 'I' for Inactive)
REMARK    1  A    between atoms: C_2  and  O_4
REMARK    2  A    between atoms: O_4  and  C_5
REMARK    3  A    between atoms: C_5  and  C_6
REMARK    4  A    between atoms: C_6  and  O_7
REMARK    5  A    between atoms: O_7  and  C_8
REMARK                            x       y       z     vdW  Elec       q    Type
REMARK                         _______ _______ _______ _____ _____    ______ ____
ROOT
ATOM      1  C   UNL     1       5.373   5.129  19.148  0.00  0.00    +0.000 C 
ENDROOT
BRANCH   1   2
ATOM      2  O   UNL     1       6.553   4.359  18.852  0.00  0.00    +0.000 OA
BRANCH   2   4
ATOM      3  O   UNL     1       7.960   4.388  17.067  0.00  0.00    +0.000 OA
ATOM      4  C   UNL     1       7.472   4.960  18.037  0.00  0.00    +0.000 C 
ATOM      5 CL   UNL     1       7.841   6.586  18.526  0.00  0.00    +0.000 Cl
ENDBRANCH   2   4
ENDBRANCH   1   2
BRANCH   1   6
ATOM      6  C   UNL     1       4.122   4.250  19.096  0.00  0.00    +0.000 C 
BRANCH   6   7
ATOM      7  O   UNL     1       3.180   4.759  18.135  0.00  0.00    +0.000 OA
BRANCH   7   8
ATOM      8  C   UNL     1       1.877   4.381  18.317  0.00  0.00    +0.000 C 
ATOM      9  O   UNL     1       1.147   4.084  17.376  0.00  0.00    +0.000 OA
ATOM     10 CL   UNL     1       1.400   4.360  19.988  0.00  0.00    +0.000 Cl
ENDBRANCH   7   8
ENDBRANCH   6   7
ENDBRANCH   1   6
TORSDOF 5
ENDMDL
MODEL 3
REMARK VINA RESULT:      -4.4      1.904      4.879
REMARK  Name = 
REMARK  5 active torsions:
REMARK  status: ('A' for Active; 'I' for Inactive)
REMARK    1  A    between atoms: C_2  and  O_4
REMARK    2  A    between atoms: O_4  and  C_5
REMARK    3  A    between atoms: C_5  and  C_6
REMARK    4  A    between atoms: C_6  and  O_7
REMARK    5  A    between atoms: O_7  and  C_8
REMARK                            x       y       z     vdW  Elec       q    Type
REMARK                         _______ _______ _______ _____ _____    ______ ____
ROOT
ATOM      1  C   UNL     1       4.135   4.944  18.558  0.00  0.00    +0.000 C 
ENDROOT
BRANCH   1   2
ATOM      2  O   UNL     1       3.632   3.639  18.898  0.00  0.00    +0.000 OA
BRANCH   2   4
ATOM      3  O   UNL     1       2.720   1.970  17.654  0.00  0.00    +0.000 OA
ATOM      4  C   UNL     1       2.678   3.126  18.062  0.00  0.00    +0.000 C 
ATOM      5 CL   UNL     1       1.437   4.279  17.674  0.00  0.00    +0.000 Cl
ENDBRANCH   2   4
ENDBRANCH   1   2
BRANCH   1   6
ATOM      6  C   UNL     1       5.494   5.193  19.215  0.00  0.00    +0.000 C 
BRANCH   6   7
ATOM      7  O   UNL     1       6.487   4.294  18.689  0.00  0.00    +0.000 OA
BRANCH   7   8
ATOM      8  C   UNL     1       7.484   4.871  17.950  0.00  0.00    +0.000 C 
ATOM      9  O   UNL     1       8.060   4.268  17.051  0.00  0.00    +0.000 OA
ATOM     10 CL   UNL     1       7.814   6.512  18.415  0.00  0.00    +0.000 Cl
ENDBRANCH   7   8
ENDBRANCH   6   7
ENDBRANCH   1   6
TORSDOF 5
ENDMDL
MODEL 4
REMARK VINA RESULT:      -4.4      2.426      4.816
REMARK  Name = 
REMARK  5 active torsions:
REMARK  status: ('A' for Active; 'I' for Inactive)
REMARK    1  A    between atoms: C_2  and  O_4
REMARK    2  A    between atoms: O_4  and  C_5
REMARK    3  A    between atoms: C_5  and  C_6
REMARK    4  A    between atoms: C_6  and  O_7
REMARK    5  A    between atoms: O_7  and  C_8
REMARK                            x       y       z     vdW  Elec       q    Type
REMARK                         _______ _______ _______ _____ _____    ______ ____
ROOT
ATOM      1  C   UNL     1       7.271   5.874  18.717  0.00  0.00    +0.000 C 
ENDROOT
BRANCH   1   2
ATOM      2  O   UNL     1       6.493   5.166  19.698  0.00  0.00    +0.000 OA
BRANCH   2   4
ATOM      3  O   UNL     1       5.070   3.418  19.397  0.00  0.00    +0.000 OA
ATOM      4  C   UNL     1       5.326   4.609  19.251  0.00  0.00    +0.000 C 
ATOM      5 CL   UNL     1       4.282   5.767  18.484  0.00  0.00    +0.000 Cl
ENDBRANCH   2   4
ENDBRANCH   1   2
BRANCH   1   6
ATOM      6  C   UNL     1       7.542   4.993  17.496  0.00  0.00    +0.000 C 
BRANCH   6   7
ATOM      7  O   UNL     1       7.435   5.757  16.281  0.00  0.00    +0.000 OA
BRANCH   7   8
ATOM      8  C   UNL     1       7.117   5.048  15.155  0.00  0.00    +0.000 C 
ATOM      9  O   UNL     1       7.610   5.307  14.062  0.00  0.00    +0.000 OA
ATOM     10 CL   UNL     1       5.982   3.767  15.454  0.00  0.00    +0.000 Cl
ENDBRANCH   7   8
ENDBRANCH   6   7
ENDBRANCH   1   6
TORSDOF 5
ENDMDL
MODEL 5
REMARK VINA RESULT:      -4.4      5.158      6.370
REMARK  Name = 
REMARK  5 active torsions:
REMARK  status: ('A' for Active; 'I' for Inactive)
REMARK    1  A    between atoms: C_2  and  O_4
REMARK    2  A    between atoms: O_4  and  C_5
REMARK    3  A    between atoms: C_5  and  C_6
REMARK    4  A    between atoms: C_6  and  O_7
REMARK    5  A    between atoms: O_7  and  C_8
REMARK                            x       y       z     vdW  Elec       q    Type
REMARK                         _______ _______ _______ _____ _____    ______ ____
ROOT
ATOM      1  C   UNL     1       6.221   3.732  13.523  0.00  0.00    +0.000 C 
ENDROOT
BRANCH   1   2
ATOM      2  O   UNL     1       6.370   3.465  12.116  0.00  0.00    +0.000 OA
BRANCH   2   4
ATOM      3  O   UNL     1       5.775   1.397  11.382  0.00  0.00    +0.000 OA
ATOM      4  C   UNL     1       5.484   2.573  11.577  0.00  0.00    +0.000 C 
ATOM      5 CL   UNL     1       3.941   3.292  11.224  0.00  0.00    +0.000 Cl
ENDBRANCH   2   4
ENDBRANCH   1   2
BRANCH   1   6
ATOM      6  C   UNL     1       7.139   4.874  13.961  0.00  0.00    +0.000 C 
BRANCH   6   7
ATOM      7  O   UNL     1       6.666   5.468  15.184  0.00  0.00    +0.000 OA
BRANCH   7   8
ATOM      8  C   UNL     1       6.816   4.710  16.313  0.00  0.00    +0.000 C 
ATOM      9  O   UNL     1       7.920   4.434  16.772  0.00  0.00    +0.000 OA
ATOM     10 CL   UNL     1       5.302   4.214  17.007  0.00  0.00    +0.000 Cl
ENDBRANCH   7   8
ENDBRANCH   6   7
ENDBRANCH   1   6
TORSDOF 5
ENDMDL
MODEL 6
REMARK VINA RESULT:      -4.4      2.212      4.694
REMARK  Name = 
REMARK  5 active torsions:
REMARK  status: ('A' for Active; 'I' for Inactive)
REMARK    1  A    between atoms: C_2  and  O_4
REMARK    2  A    between atoms: O_4  and  C_5
REMARK    3  A    between atoms: C_5  and  C_6
REMARK    4  A    between atoms: C_6  and  O_7
REMARK    5  A    between atoms: O_7  and  C_8
REMARK                            x       y       z     vdW  Elec       q    Type
REMARK                         _______ _______ _______ _____ _____    ______ ____
ROOT
ATOM      1  C   UNL     1       5.926   5.262  19.166  0.00  0.00    +0.000 C 
ENDROOT
BRANCH   1   2
ATOM      2  O   UNL     1       5.639   3.873  19.412  0.00  0.00    +0.000 OA
BRANCH   2   4
ATOM      3  O   UNL     1       3.892   2.427  19.578  0.00  0.00    +0.000 OA
ATOM      4  C   UNL     1       4.368   3.461  19.118  0.00  0.00    +0.000 C 
ATOM      5 CL   UNL     1       3.537   4.556  18.055  0.00  0.00    +0.000 Cl
ENDBRANCH   2   4
ENDBRANCH   1   2
BRANCH   1   6
ATOM      6  C   UNL     1       7.322   5.431  18.562  0.00  0.00    +0.000 C 
BRANCH   6   7
ATOM      7  O   UNL     1       7.552   4.457  17.528  0.00  0.00    +0.000 OA
BRANCH   7   8
ATOM      8  C   UNL     1       7.131   4.806  16.274  0.00  0.00    +0.000 C 
ATOM      9  O   UNL     1       7.557   5.801  15.696  0.00  0.00    +0.000 OA
ATOM     10 CL   UNL     1       5.969   3.696  15.612  0.00  0.00    +0.000 Cl
ENDBRANCH   7   8
ENDBRANCH   6   7
ENDBRANCH   1   6
TORSDOF 5
ENDMDL
MODEL 7
REMARK VINA RESULT:      -4.4      1.428      1.531
REMARK  Name = 
REMARK  5 active torsions:
REMARK  status: ('A' for Active; 'I' for Inactive)
REMARK    1  A    between atoms: C_2  and  O_4
REMARK    2  A    between atoms: O_4  and  C_5
REMARK    3  A    between atoms: C_5  and  C_6
REMARK    4  A    between atoms: C_6  and  O_7
REMARK    5  A    between atoms: O_7  and  C_8
REMARK                            x       y       z     vdW  Elec       q    Type
REMARK                         _______ _______ _______ _____ _____    ______ ____
ROOT
ATOM      1  C   UNL     1       5.433   4.882  19.017  0.00  0.00    +0.000 C 
ENDROOT
BRANCH   1   2
ATOM      2  O   UNL     1       6.785   4.400  18.906  0.00  0.00    +0.000 OA
BRANCH   2   4
ATOM      3  O   UNL     1       8.064   4.246  17.034  0.00  0.00    +0.000 OA
ATOM      4  C   UNL     1       7.534   4.939  17.896  0.00  0.00    +0.000 C 
ATOM      5 CL   UNL     1       7.625   6.672  17.980  0.00  0.00    +0.000 Cl
ENDBRANCH   2   4
ENDBRANCH   1   2
BRANCH   1   6
ATOM      6  C   UNL     1       4.459   3.725  19.247  0.00  0.00    +0.000 C 
BRANCH   6   7
ATOM      7  O   UNL     1       3.104   4.141  18.997  0.00  0.00    +0.000 OA
BRANCH   7   8
ATOM      8  C   UNL     1       2.155   3.157  19.060  0.00  0.00    +0.000 C 
ATOM      9  O   UNL     1       2.233   2.134  18.388  0.00  0.00    +0.000 OA
ATOM     10 CL   UNL     1       0.877   3.513  20.182  0.00  0.00    +0.000 Cl
ENDBRANCH   7   8
ENDBRANCH   6   7
ENDBRANCH   1   6
TORSDOF 5
ENDMDL
MODEL 8
REMARK VINA RESULT:      -4.3      4.134      5.684
REMARK  Name = 
REMARK  5 active torsions:
REMARK  status: ('A' for Active; 'I' for Inactive)
REMARK    1  A    between atoms: C_2  and  O_4
REMARK    2  A    between atoms: O_4  and  C_5
REMARK    3  A    between atoms: C_5  and  C_6
REMARK    4  A    between atoms: C_6  and  O_7
REMARK    5  A    between atoms: O_7  and  C_8
REMARK                            x       y       z     vdW  Elec       q    Type
REMARK                         _______ _______ _______ _____ _____    ______ ____
ROOT
ATOM      1  C   UNL     1       6.133   4.873  14.545  0.00  0.00    +0.000 C 
ENDROOT
BRANCH   1   2
ATOM      2  O   UNL     1       5.252   4.059  13.750  0.00  0.00    +0.000 OA
BRANCH   2   4
ATOM      3  O   UNL     1       6.924   3.742  12.242  0.00  0.00    +0.000 OA
ATOM      4  C   UNL     1       5.732   3.671  12.529  0.00  0.00    +0.000 C 
ATOM      5 CL   UNL     1       4.485   3.077  11.476  0.00  0.00    +0.000 Cl
ENDBRANCH   2   4
ENDBRANCH   1   2
BRANCH   1   6
ATOM      6  C   UNL     1       6.530   4.150  15.833  0.00  0.00    +0.000 C 
BRANCH   6   7
ATOM      7  O   UNL     1       7.705   4.746  16.412  0.00  0.00    +0.000 OA
BRANCH   7   8
ATOM      8  C   UNL     1       7.563   5.232  17.684  0.00  0.00    +0.000 C 
ATOM      9  O   UNL     1       7.405   4.492  18.650  0.00  0.00    +0.000 OA
ATOM     10 CL   UNL     1       7.648   6.965  17.766  0.00  0.00    +0.000 Cl
ENDBRANCH   7   8
ENDBRANCH   6   7
ENDBRANCH   1   6
TORSDOF 5
ENDMDL
MODEL 9
REMARK VINA RESULT:      -4.3      2.180      2.402
REMARK  Name = 
REMARK  5 active torsions:
REMARK  status: ('A' for Active; 'I' for Inactive)
REMARK    1  A    between atoms: C_2  and  O_4
REMARK    2  A    between atoms: O_4  and  C_5
REMARK    3  A    between atoms: C_5  and  C_6
REMARK    4  A    between atoms: C_6  and  O_7
REMARK    5  A    between atoms: O_7  and  C_8
REMARK                            x       y       z     vdW  Elec       q    Type
REMARK                         _______ _______ _______ _____ _____    ______ ____
ROOT
ATOM      1  C   UNL     1       6.616   4.712  17.009  0.00  0.00    +0.000 C 
ENDROOT
BRANCH   1   2
ATOM      2  O   UNL     1       7.098   4.437  18.337  0.00  0.00    +0.000 OA
BRANCH   2   4
ATOM      3  O   UNL     1       7.692   5.465  20.275  0.00  0.00    +0.000 OA
ATOM      4  C   UNL     1       7.507   5.521  19.063  0.00  0.00    +0.000 C 
ATOM      5 CL   UNL     1       7.734   6.938  18.083  0.00  0.00    +0.000 Cl
ENDBRANCH   2   4
ENDBRANCH   1   2
BRANCH   1   6
ATOM      6  C   UNL     1       5.140   4.331  16.875  0.00  0.00    +0.000 C 
BRANCH   6   7
ATOM      7  O   UNL     1       4.702   3.575  18.019  0.00  0.00    +0.000 OA
BRANCH   7   8
ATOM      8  C   UNL     1       3.550   2.855  17.854  0.00  0.00    +0.000 C 
ATOM      9  O   UNL     1       3.521   1.635  17.980  0.00  0.00    +0.000 OA
ATOM     10 CL   UNL     1       2.175   3.846  17.473  0.00  0.00    +0.000 Cl
ENDBRANCH   7   8
ENDBRANCH   6   7
ENDBRANCH   1   6
TORSDOF 5
ENDMDL
